data_mof_unit_6297.cif
_audit_creation_date              2013-03-05T15:53:42-0500
_audit_creation_method            fapswitch 2.2
_symmetry_space_group_name_H-M    P1
_symmetry_Int_Tables_number       1
_space_group_crystal_system       triclinic
_cell_length_a                    15.463705
_cell_length_b                    15.428335
_cell_length_c                    16.01979
_cell_angle_alpha                 77.903389
_cell_angle_beta                  97.222664
_cell_angle_gamma                 110.949583
_cell_volume                      3484.6787677

loop_
_atom_site_label
_atom_site_type_symbol
_atom_site_description
_atom_site_fract_x
_atom_site_fract_y
_atom_site_fract_z
_atom_type_partial_charge
Zn1   Zn    Zn3+2 0.414470 0.414440 0.430940 0.999432
Zn2   Zn    Zn3+2 0.557950 0.430400 0.589240 0.939741
Zn3   Zn    Zn3+2 0.433010 0.560580 0.548920 1.011249
Zn4   Zn    Zn3+2 0.594570 0.594580 0.430900 1.006198
O1    O     O_3   0.500000 0.500000 0.500000 -0.502550
O2    O     O_R   0.716410 0.590800 0.471470 -0.648333
O3    O     O_R   0.289920 0.415510 0.431830 -0.583527
O4    O     O_R   0.513390 0.298480 0.582330 -0.682194
O5    O     O_R   0.480280 0.695210 0.514370 -0.587100
O6    O     O_R   0.531650 0.442400 0.698530 -0.657035
O7    O     O_R   0.575100 0.575080 0.315570 -0.628824
O8    O     O_R   0.444210 0.533510 0.670310 -0.618301
O9    O     O_R   0.449040 0.449000 0.315590 -0.630390
O10   O     O_R   0.412970 0.287310 0.471540 -0.624128
O11   O     O_R   0.593360 0.719010 0.431760 -0.594867
O12   O     O_R   0.690770 0.475890 0.582290 -0.645741
O13   O     O_R   0.302900 0.517790 0.514410 -0.618087
C1    C     C_R   0.746970 0.540746 0.532564 0.940259
C2    C     C_R   0.254306 0.465999 0.460887 0.917220
C3    C     C_R   0.450900 0.247996 0.536505 0.885637
C4    C     C_R   0.547832 0.752673 0.469725 0.937775
C5    C     C_R   0.484960 0.484610 0.724041 0.806054
C6    C     C_R   0.514751 0.514636 0.275798 0.815422
C7    C     C_1   0.478092 0.476753 0.813697 -0.163852
C8    C     C_2   0.464808 0.463669 0.980053 0.445651
C9    C     C_2   0.534376 0.522403 0.022358 0.358498
C10   C     C_1   0.527907 0.520601 0.112203 -0.053414
C11   C     C_1   0.472245 0.470514 0.889066 -0.055591
C12   C     C_1   0.522135 0.518522 0.186862 -0.115715
C13   C     C_R   0.998044 0.667566 0.583021 0.377445
C14   C     C_R   0.846873 0.560693 0.545058 -0.336078
C15   C     C_R   0.108091 0.415047 0.366572 0.260709
C16   C     C_R   0.021567 0.422905 0.332494 0.251737
C17   C     C_R   0.979632 0.470961 0.371389 0.422034
C18   C     C_R   0.027338 0.515997 0.440611 -0.055861
C19   C     C_R   0.123749 0.533526 0.452869 -0.206183
C20   C     C_R   0.984457 0.552335 0.492357 -0.070193
C21   C     C_R   0.040647 0.623713 0.539100 -0.264008
C22   C     C_R   0.137779 0.648706 0.541454 0.371411
C23   C     C_R   0.178469 0.613123 0.489189 0.418196
C24   C     C_R   0.888142 0.513339 0.505817 0.474279
C25   C     C_R   0.901337 0.636845 0.584068 0.355747
C26   C     C_R   0.161252 0.471960 0.426460 -0.154857
C27   C     C_R   0.408690 0.007315 0.667741 0.384046
C28   C     C_R   0.430623 0.146040 0.557688 -0.337640
C29   C     C_R   0.635057 0.918139 0.399786 0.279205
C30   C     C_R   0.659707 0.016117 0.393431 0.235069
C31   C     C_R   0.605194 0.053859 0.429748 0.415681
C32   C     C_R   0.541059 0.992003 0.492014 -0.086106
C33   C     C_R   0.540589 0.897732 0.517720 -0.277984
C34   C     C_R   0.486230 0.023006 0.537301 -0.067087
C35   C     C_R   0.450349 0.968826 0.617005 -0.296292
C36   C     C_R   0.458723 0.878765 0.644320 0.345459
C37   C     C_R   0.512137 0.849252 0.600186 0.521397
C38   C     C_R   0.460959 0.103521 0.503777 0.466230
C39   C     C_R   0.401828 0.096833 0.639466 0.396624
C40   C     C_R   0.574450 0.857202 0.462608 -0.174493
O14   O     O_3   0.611894 0.583734 0.980202 -0.800104
H1    H     H_    0.655059 0.620759 0.021513 0.339006
O15   O     O_3   0.268266 0.662277 0.464814 -0.741338
H2    H     H_    0.293994 0.720969 0.489243 0.354729
O16   O     O_3   0.348387 0.124767 0.684942 -0.611553
C41   C     C_3   0.401331 0.188611 0.739876 0.127164
H3    H     H_    0.351664 0.193359 0.781702 0.148663
H4    H     H_    0.430096 0.260746 0.703611 0.160288
C42   C     C_3   0.476599 0.159193 0.798971 -0.371673
H5    H     H_    0.443885 0.090196 0.840326 0.256030
H6    H     H_    0.528680 0.153159 0.760729 0.208231
C43   C     C_3   0.527307 0.231511 0.856417 -0.936588
H7    H     H_    0.563468 0.300927 0.817215 0.292387
H8    H     H_    0.579722 0.207687 0.899400 0.264993
H9    H     H_    0.477732 0.239423 0.896268 0.250884
O17   O     O_3   0.415425 0.816061 0.713750 -0.768065
H10   H     H_    0.350994 0.815951 0.709484 0.376385
O18   O     O_3   0.379689 0.962766 0.748350 -0.736978
H11   H     H_    0.432205 0.946019 0.780727 0.344578
O19   O     O_3   0.460691 0.138446 0.417215 -0.634882
C44   C     C_3   0.370282 0.102377 0.379210 0.085912
H12   H     H_    0.364113 0.154551 0.321431 0.175844
H13   H     H_    0.314344 0.094436 0.420991 0.145905
C45   C     C_3   0.355241 0.008478 0.351500 -0.388677
H14   H     H_    0.412328 0.017134 0.311251 0.221758
H15   H     H_    0.355750 0.953668 0.408701 0.229156
C46   C     C_3   0.262683 0.974811 0.300977 -0.919615
H16   H     H_    0.253601 0.906482 0.282499 0.273425
H17   H     H_    0.260739 0.027010 0.241975 0.261122
H18   H     H_    0.204582 0.964573 0.340570 0.264861
O20   O     O_3   0.675338 0.881541 0.349831 -0.734122
H19   H     H_    0.708123 0.932132 0.303685 0.363274
O21   O     O_3   0.632576 0.151262 0.424053 -0.590708
C47   C     C_3   0.633408 0.199416 0.337663 0.168421
H20   H     H_    0.562588 0.183408 0.306536 0.155984
H21   H     H_    0.673802 0.181394 0.296090 0.149663
C48   C     C_3   0.678097 0.305613 0.335189 -0.384607
H22   H     H_    0.749202 0.320401 0.365615 0.269298
H23   H     H_    0.683542 0.342456 0.267513 0.165619
C49   C     C_3   0.622932 0.344123 0.381069 -0.635956
H24   H     H_    0.551353 0.329153 0.351709 0.240598
H25   H     H_    0.657025 0.421614 0.375757 0.222371
H26   H     H_    0.620284 0.311828 0.449805 0.259658
O22   O     O_3   0.742321 0.075205 0.358091 -0.659405
C50   C     C_3   0.815944 0.073123 0.419494 0.090440
H27   H     H_    0.835195 0.010524 0.418294 0.169377
H28   H     H_    0.797412 0.070405 0.485487 0.142066
C51   C     C_3   0.899702 0.162229 0.397826 -0.289425
H29   H     H_    0.920508 0.167723 0.332456 0.242587
H30   H     H_    0.880429 0.224736 0.399055 0.241319
C52   C     C_3   0.981387 0.161183 0.462006 -0.981191
H31   H     H_    0.959764 0.146001 0.528532 0.273136
H32   H     H_    0.037198 0.230752 0.452619 0.291169
H33   H     H_    0.009513 0.107015 0.453164 0.271237
O23   O     O_3   0.541945 0.775611 0.641228 -0.603661
C53   C     C_3   0.613739 0.808965 0.702924 0.051015
H34   H     H_    0.589032 0.836215 0.751133 0.183507
H35   H     H_    0.673865 0.866414 0.671571 0.115143
C54   C     C_3   0.645934 0.728050 0.749970 -0.291185
H36   H     H_    0.584776 0.666799 0.773521 0.254779
H37   H     H_    0.680648 0.706601 0.705131 0.206958
C55   C     C_3   0.712164 0.756276 0.826557 -0.892499
H38   H     H_    0.769618 0.823349 0.807344 0.241970
H39   H     H_    0.741855 0.699975 0.854076 0.292305
H40   H     H_    0.674261 0.765863 0.876496 0.281480
O24   O     O_3   0.386564 0.403389 0.024205 -0.668074
C56   C     C_3   0.328394 0.330226 0.981006 0.095078
H41   H     H_    0.292971 0.269532 0.030384 0.168816
H42   H     H_    0.367639 0.303210 0.945152 0.118345
C57   C     C_3   0.253846 0.361220 0.923388 -0.359341
H43   H     H_    0.211023 0.379452 0.963076 0.235178
H44   H     H_    0.286718 0.424810 0.875760 0.225723
C58   C     C_3   0.191188 0.283408 0.875800 -0.960242
H45   H     H_    0.232520 0.265814 0.834148 0.260957
H46   H     H_    0.137768 0.307821 0.835098 0.265239
H47   H     H_    0.155776 0.219166 0.921879 0.269866
O25   O     O_3   0.859567 0.676938 0.629234 -0.627415
C59   C     C_3   0.857677 0.764911 0.582405 0.139648
H48   H     H_    0.785068 0.756089 0.557763 0.148529
H49   H     H_    0.902447 0.793619 0.526405 0.128896
C60   C     C_3   0.888512 0.836359 0.642786 -0.284619
H50   H     H_    0.847004 0.807243 0.700060 0.230921
H51   H     H_    0.962541 0.849312 0.664171 0.265502
C61   C     C_3   0.876704 0.929494 0.599709 -1.037202
H52   H     H_    0.921873 0.961286 0.544862 0.276876
H53   H     H_    0.896982 0.978858 0.645900 0.276049
H54   H     H_    0.803300 0.918133 0.576833 0.256458
O26   O     O_3   0.193793 0.699755 0.601475 -0.655096
C62   C     C_3   0.214777 0.636708 0.672672 0.111242
H55   H     H_    0.291300 0.656231 0.681185 0.208459
H56   H     H_    0.187501 0.560783 0.665583 0.106731
C63   C     C_3   0.176721 0.645320 0.753101 -0.279388
H57   H     H_    0.202805 0.720097 0.761785 0.256424
H58   H     H_    0.099815 0.621643 0.745811 0.248122
C64   C     C_3   0.204703 0.585004 0.832543 -0.980661
H59   H     H_    0.174783 0.509419 0.826610 0.259375
H60   H     H_    0.177724 0.594374 0.889859 0.276700
H61   H     H_    0.281438 0.606154 0.841197 0.286152
O27   O     O_3   0.047987 0.744239 0.621072 -0.736355
H62   H     H_    0.093491 0.788968 0.580044 0.362312
O28   O     O_3   0.834331 0.427654 0.482524 -0.616450
C65   C     C_3   0.820292 0.354564 0.555091 0.070258
H63   H     H_    0.758620 0.294645 0.539446 0.197553
H64   H     H_    0.804023 0.374822 0.612515 0.144020
C66   C     C_3   0.903781 0.320645 0.576144 -0.376685
H65   H     H_    0.924380 0.308090 0.517108 0.236478
H66   H     H_    0.963388 0.375677 0.602020 0.208678
C67   C     C_3   0.881203 0.229775 0.642192 -0.952906
H67   H     H_    0.859036 0.240367 0.701495 0.267275
H68   H     H_    0.943814 0.208936 0.658402 0.264771
H69   H     H_    0.825057 0.171950 0.616158 0.266097
O29   O     O_3   0.143763 0.356152 0.338899 -0.740824
H70   H     H_    0.094766 0.312418 0.306544 0.359220
O30   O     O_3   0.898467 0.485616 0.336237 -0.731316
H71   H     H_    0.871762 0.449101 0.289650 0.353515
O31   O     O_3   0.974406 0.378267 0.265120 -0.680386
C68   C     C_3   0.018959 0.425380 0.187915 0.072602
H72   H     H_    0.006883 0.371668 0.147121 0.171399
H73   H     H_    0.095722 0.458587 0.196815 0.163469
C69   C     C_3   0.977221 0.499586 0.140440 -0.367208
H74   H     H_    0.900917 0.465912 0.130749 0.232904
H75   H     H_    0.991134 0.555467 0.179255 0.235540
C70   C     C_3   0.018629 0.544970 0.053606 -0.925010
H76   H     H_    0.094799 0.580405 0.061802 0.265001
H77   H     H_    0.987199 0.598452 0.020923 0.274771
H78   H     H_    0.004229 0.490848 0.012767 0.263598

loop_
_geom_bond_atom_site_label_1
_geom_bond_atom_site_label_2
_geom_bond_distance
_ccdc_geom_bond_type
C59   C60   1.527474 S    
C42   H6    1.110922 S    
C15   O29   1.383910 S    
C41   H4    1.101809 S    
C67   H67   1.110743 S    
C23   O15   1.383828 S    
C14   C25   1.395726 A    
C10   C12   1.203412 T    
O29   H70   0.990086 S    
C18   C19   1.412336 A    
C46   H18   1.110986 S    
O30   H71   0.988554 S    
C45   C46   1.525367 S    
C49   H24   1.109757 S    
O24   C56   1.416694 S    
C34   C38   1.413840 A    
O19   C44   1.416521 S    
C52   H31   1.109696 S    
C8    C11   1.455292 S    
C51   H30   1.110946 S    
O9    C6    1.273131 A    
C9    C10   1.449059 S    
O22   C50   1.412830 S    
Zn1   O1    1.926513 S    
C6    C12   1.430627 S    
O27   H62   0.991116 S    
C18   C20   1.428303 A    
C46   H17   1.110854 S    
C53   H34   1.115486 S    
C61   H53   1.110413 S    
C21   C22   1.408499 A    
C38   O19   1.378508 S    
C44   H13   1.116542 S    
C42   C43   1.526408 S    
C66   C67   1.525810 S    
O8    C5    1.280070 A    
C54   H36   1.109491 S    
C13   C21   1.421847 A    
C50   C51   1.525700 S    
C17   C18   1.416828 A    
O17   H10   0.989481 S    
C43   H8    1.110334 S    
C68   H72   1.110998 S    
Zn3   O8    1.900711 S    
C45   H15   1.110416 S    
C65   H63   1.110627 S    
C28   C39   1.406776 A    
C2    C26   1.502353 S    
C32   C34   1.436710 A    
C70   H76   1.110954 S    
C65   H64   1.114518 S    
C16   O31   1.387636 S    
C62   H56   1.119542 S    
C3    C28   1.462251 S    
C70   H78   1.110949 S    
C48   H23   1.111771 S    
C53   C54   1.526453 S    
C27   C35   1.426788 A    
C13   O27   1.377640 S    
C42   H5    1.109780 S    
C41   C42   1.541937 S    
C67   H68   1.110225 S    
C31   O21   1.393975 S    
C50   H27   1.112005 S    
C27   O18   1.376340 S    
O23   C53   1.415263 S    
C49   H25   1.110159 S    
C70   H77   1.110370 S    
O26   C62   1.421263 S    
C66   H66   1.110929 S    
C55   H39   1.110622 S    
O2    C1    1.267072 A    
C51   C52   1.527736 S    
C36   O17   1.376369 S    
C34   C35   1.426904 A    
O10   C3    1.277250 A    
C19   C23   1.412531 A    
C46   H16   1.110463 S    
Zn4   O2    1.931427 S    
C61   H54   1.110639 S    
C47   H20   1.108999 S    
C44   H12   1.110968 S    
C48   C49   1.524479 S    
C69   H75   1.111135 S    
C8    C9    1.347113 D    
C36   C37   1.392908 A    
O6    C5    1.278421 A    
C45   H14   1.111589 S    
C24   O28   1.386112 S    
O15   H2    0.991542 S    
C43   H9    1.110327 S    
C58   H46   1.110638 S    
O18   H11   0.991571 S    
C57   H44   1.109172 S    
C4    C40   1.497765 S    
C20   C21   1.423457 A    
Zn3   O5    1.920739 S    
C47   H21   1.103376 S    
C62   C63   1.530500 S    
C8    O24   1.401432 S    
C27   C39   1.398008 A    
C30   C31   1.415782 A    
C64   H61   1.111057 S    
C69   C70   1.526598 S    
C22   O26   1.383938 S    
O16   C41   1.421419 S    
C16   C17   1.413334 A    
C65   C66   1.534313 S    
C37   O23   1.385927 S    
C48   H22   1.109547 S    
C52   H33   1.110256 S    
O4    C3    1.265861 A    
C64   H59   1.110221 S    
Zn4   O7    1.903409 S    
C50   H28   1.118280 S    
C9    O14   1.383107 S    
C68   C69   1.531584 S    
C60   H51   1.110986 S    
C56   C57   1.533365 S    
C31   C32   1.436076 A    
C64   H60   1.110455 S    
C69   H74   1.111598 S    
C67   H69   1.111154 S    
O3    C2    1.284495 A    
C29   C40   1.409128 A    
O28   C65   1.417448 S    
C39   O16   1.391786 S    
C63   C64   1.525098 S    
C58   H47   1.110863 S    
Zn1   O9    1.901672 S    
C57   H43   1.111713 S    
Zn2   O6    1.906233 S    
C22   C23   1.403730 A    
C49   H26   1.108704 S    
Zn2   O12   1.928052 S    
C35   C36   1.413686 A    
C56   H42   1.113913 S    
C62   H55   1.109661 S    
C55   H40   1.111277 S    
C59   H49   1.118312 S    
C29   C30   1.404976 A    
C14   C24   1.401076 A    
Zn1   O3    1.933833 S    
C33   C40   1.423524 A    
Zn2   O4    1.924033 S    
C7    C11   1.203237 T    
Zn4   O1    1.922854 S    
Zn3   O1    1.940192 S    
C60   C61   1.521385 S    
C55   H38   1.110303 S    
C54   C55   1.527376 S    
O25   C59   1.414909 S    
Zn1   O10   1.925423 S    
C66   H65   1.109084 S    
C51   H29   1.111469 S    
C29   O20   1.383274 S    
C25   O25   1.383538 S    
C15   C16   1.416861 A    
Zn4   O11   1.929457 S    
C63   H58   1.110730 S    
C58   H45   1.111153 S    
O14   H1    0.992234 S    
C57   C58   1.525528 S    
C33   C37   1.412440 A    
C61   H52   1.108674 S    
C47   C48   1.527620 S    
C44   C45   1.533798 S    
O5    C4    1.283953 A    
O21   C47   1.426231 S    
C52   H32   1.105479 S    
O7    C6    1.274241 A    
O13   C2    1.278323 A    
C15   C26   1.416279 A    
C54   H37   1.112328 S    
Zn3   O13   1.926911 S    
C5    C7    1.430046 S    
C30   O22   1.384332 S    
C20   C24   1.418571 A    
C43   H7    1.110052 S    
C68   H73   1.115807 S    
C59   H48   1.112121 S    
C60   H50   1.106704 S    
O31   C68   1.418469 S    
C41   H3    1.111039 S    
Zn2   O1    1.929364 S    
O11   C4    1.279388 A    
O20   H19   0.991056 S    
C28   C38   1.398455 A    
O12   C1    1.268560 A    
C32   C33   1.423801 A    
C13   C25   1.399070 A    
C19   C26   1.428837 A    
C1    C14   1.459264 S    
C63   H57   1.110602 S    
C17   O30   1.383974 S    
C56   H41   1.111006 S    
C53   H35   1.115299 S    
