data_mof_unit_62630.cif
_audit_creation_date              2012-12-10T16:42:46-0500
_audit_creation_method            fapswitch 2.2
_symmetry_space_group_name_H-M    P1
_symmetry_Int_Tables_number       1
_space_group_crystal_system       triclinic
_cell_length_a                    19.241138
_cell_length_b                    18.908155
_cell_length_c                    19.040837
_cell_angle_alpha                 109.400358
_cell_angle_beta                  110.341813
_cell_angle_gamma                 109.837177
_cell_volume                      5254.28088227

loop_
_atom_site_label
_atom_site_type_symbol
_atom_type_description
_atom_site_fract_x
_atom_site_fract_y
_atom_site_fract_z
_atom_type_partial_charge
C1    C     C_R   0.384657 0.381620 0.501294 0.845517
C2    C     C_R   0.756190 0.581378 0.760322 0.074447
C3    C     C_R   0.812108 0.500179 0.813230 -0.155215
C4    C     C_R   0.742486 0.420081 0.737251 0.068466
C5    C     C_R   0.674135 0.420035 0.677487 0.067110
C6    C     C_R   0.683624 0.500857 0.686559 -0.167515
C7    C     C_R   0.738837 0.339431 0.719580 -0.146724
C8    C     C_R   0.665224 0.260467 0.649826 -0.139685
C9    C     C_R   0.593962 0.259977 0.596616 -0.139780
C10   C     C_R   0.597894 0.338624 0.610061 -0.141199
C11   C     C_2   0.259245 0.250285 0.574433 -0.166512
C12   C     C_R   0.618070 0.500660 0.618663 0.784555
C13   C     C_2   0.181367 0.189247 0.502965 -0.310696
C14   C     C_2   0.320210 0.323066 0.574441 -0.150202
C15   C     C_2   0.323294 0.311806 0.502491 -0.309194
C16   C     C_2   0.171046 0.483666 0.242725 -0.279470
C17   C     C_2   0.184466 0.509828 0.188909 -0.383498
C18   C     C_2   0.244409 0.499555 0.320059 0.533716
C19   C     C_2   0.306599 0.487447 0.311011 -0.401201
C20   C     C_2   0.740900 0.749675 0.425711 -0.167262
C21   C     C_2   0.818724 0.810834 0.497161 -0.312107
C22   C     C_2   0.680062 0.676905 0.425801 -0.149207
C23   C     C_R   0.615515 0.618385 0.498872 0.835107
C24   C     C_2   0.677026 0.688170 0.497781 -0.311056
C25   C     C_R   0.993333 0.381537 0.876969 0.843886
C26   C     C_R   0.878876 0.499829 0.878830 0.785860
C27   C     C_R   0.000661 0.618512 0.116931 0.838390
C28   C     C_R   0.115442 0.501961 0.116798 0.880610
C29   C     C_R   0.006076 0.123238 0.617669 0.811760
C30   C     C_R   0.117311 0.119259 0.501554 0.838648
C31   C     C_R   0.993786 0.876709 0.382247 0.810782
C32   C     C_R   0.882706 0.880769 0.498475 0.839258
C33   C     C_2   0.978998 0.242364 0.670848 -0.185333
C34   C     C_R   0.379134 0.496585 0.380929 0.889529
C35   C     C_2   0.027467 0.205846 0.687440 -0.054667
C36   C     C_2   0.990509 0.317700 0.740461 -0.173593
C37   C     C_2   0.983571 0.310948 0.805687 -0.348062
C38   C     C_2   0.020545 0.757658 0.326851 -0.188448
C39   C     C_2   0.971623 0.793994 0.311897 -0.050532
C40   C     C_2   0.007965 0.682508 0.255943 -0.169946
C41   C     C_2   0.011776 0.689048 0.189414 -0.342352
C42   C     C_R   0.770570 0.663384 0.769197 -0.239917
C43   C     C_R   0.835743 0.741224 0.847020 -0.214996
C44   C     C_R   0.887886 0.739643 0.917900 0.555015
C45   C     C_R   0.880241 0.659933 0.907294 -0.245975
C46   C     C_R   0.816607 0.580354 0.827411 0.004855
Cu1   Cu    Cu3+1 0.500390 0.438990 0.439360 0.949332
Cu2   Cu    Cu3+1 0.499610 0.561010 0.560640 0.970399
Cu3   Cu    Cu3+1 0.935830 0.439030 0.996840 0.942269
Cu4   Cu    Cu3+1 0.057850 0.561040 0.996790 0.957892
Cu5   Cu    Cu3+1 0.061410 0.000010 0.561410 0.939962
Cu6   Cu    Cu3+1 0.938590 0.999990 0.438590 0.937520
H1    H     H_    0.535720 0.198488 0.544081 0.136808
H2    H     H_    0.160519 0.194963 0.445298 0.159418
H3    H     H_    0.365680 0.385148 0.635272 0.161533
H4    H     H_    0.284625 0.247335 0.444369 0.154293
H5    H     H_    0.106715 0.454669 0.232964 0.176907
H6    H     H_    0.249769 0.544956 0.202446 0.155429
H7    H     H_    0.301123 0.463758 0.247816 0.116953
H8    H     H_    0.723536 0.749816 0.365055 0.157383
H9    H     H_    0.839640 0.805222 0.554887 0.156657
H10   H     H_    0.634560 0.614829 0.364968 0.160441
H11   H     H_    0.732539 0.668988 0.716525 0.173113
H12   H     H_    0.715753 0.752612 0.555951 0.151586
H13   H     H_    0.926327 0.213733 0.605236 0.163003
H14   H     H_    0.999327 0.375375 0.735580 0.170661
H15   H     H_    0.965584 0.249089 0.804143 0.162421
H16   H     H_    0.074120 0.786222 0.391921 0.159599
H17   H     H_    0.000641 0.625020 0.260683 0.163009
H18   H     H_    0.028687 0.750833 0.190985 0.158565
H19   H     H_    0.844517 0.802998 0.852814 0.156892
H20   H     H_    0.924213 0.661574 0.962590 0.159114
H21   H     H_    0.792488 0.336114 0.758894 0.143782
H22   H     H_    0.662978 0.199411 0.637993 0.136275
H23   H     H_    0.540083 0.334330 0.567634 0.147365
H24   H     H_    0.276551 0.250049 0.635042 0.157948
O1    O     O_R   0.411310 0.359450 0.448800 -0.597882
O2    O     O_R   0.048900 0.462510 0.908320 -0.577149
O3    O     O_R   0.855710 0.448510 0.907250 -0.589035
O4    O     O_R   0.958760 0.551540 0.907200 -0.583647
O5    O     O_R   0.944780 0.537560 0.085320 -0.580968
O6    O     O_R   0.047820 0.640590 0.085270 -0.585658
O7    O     O_R   0.034920 0.448530 0.086440 -0.584608
O8    O     O_R   0.137970 0.551560 0.086390 -0.588301
O9    O     O_R   0.051300 0.089020 0.640330 -0.591015
O10   O     O_R   0.947570 0.089010 0.536620 -0.590529
O11   O     O_R   0.140880 0.089030 0.551840 -0.584627
O12   O     O_R   0.410660 0.462490 0.551220 -0.568620
O13   O     O_R   0.037150 0.089020 0.448130 -0.584701
O14   O     O_R   0.052430 0.910990 0.463380 -0.590401
O15   O     O_R   0.948700 0.910980 0.359670 -0.592928
O16   O     O_R   0.962850 0.910980 0.551870 -0.584340
O17   O     O_R   0.859120 0.910970 0.448160 -0.585171
O18   O     O_R   0.589930 0.448490 0.538390 -0.586447
O19   O     O_R   0.589280 0.551530 0.640800 -0.594887
O20   O     O_R   0.589340 0.537510 0.448780 -0.578127
O21   O     O_R   0.588690 0.640550 0.551200 -0.598426
O22   O     O_R   0.410720 0.448470 0.359200 -0.600046
O23   O     O_R   0.410070 0.551510 0.461610 -0.534112
O24   O     O_R   0.945860 0.359480 0.908360 -0.592295
O25   O     O_3   0.245259 0.515600 0.397455 -0.555125
C47   C     C_3   0.206129 0.564893 0.414929 -0.293802
H25   H     H_    0.134584 0.522788 0.374641 0.153651
H26   H     H_    0.228821 0.621730 0.405529 0.156014
H27   H     H_    0.224486 0.591289 0.484144 0.188302
C48   C     C_3   0.111635 0.252225 0.774603 -0.366603
C49   C     C_3   0.190377 0.290241 0.765705 -0.344871
C50   C     C_3   0.274824 0.336531 0.851974 -0.852239
H28   H     H_    0.279251 0.391617 0.902462 0.255926
H29   H     H_    0.278809 0.289938 0.874270 0.256648
H30   H     H_    0.330304 0.362944 0.843248 0.241527
H31   H     H_    0.189449 0.237642 0.716144 0.228547
H32   H     H_    0.188486 0.337902 0.744261 0.222683
H33   H     H_    0.118295 0.306712 0.827422 0.221185
H34   H     H_    0.113239 0.205033 0.796793 0.200630
C51   C     C_3   0.886631 0.747911 0.225421 -0.376840
C52   C     C_3   0.808586 0.711382 0.235711 -0.340003
C53   C     C_3   0.723612 0.665493 0.150062 -0.856906
H35   H     H_    0.719942 0.712036 0.127584 0.254744
H36   H     H_    0.718020 0.609651 0.099262 0.256916
H37   H     H_    0.668614 0.640212 0.159742 0.241431
H38   H     H_    0.810255 0.663790 0.257321 0.221020
H39   H     H_    0.810578 0.764679 0.285604 0.229432
H40   H     H_    0.885205 0.794977 0.202990 0.193398
H41   H     H_    0.878417 0.692537 0.172143 0.218920
O26   O     O_3   0.951432 0.817494 0.994945 -0.571359
C54   C     C_3   0.929599 0.821684 0.059136 -0.339653
H42   H     H_    0.932501 0.771876 0.076806 0.143441
H43   H     H_    0.864610 0.814442 0.037988 0.159034
H44   H     H_    0.977391 0.886849 0.118888 0.198175

loop_
_geom_bond_atom_site_label_1
_geom_bond_atom_site_label_2
_ccdc_geom_bond_type
O25   C47   S    
Cu2   O19   S    
C28   O8    A    
C1    O1    A    
C49   H31   S    
C52   H38   S    
Cu5   O9    S    
C33   H13   S    
C7    C8    A    
C7    H21   S    
C32   O16   A    
C45   C46   A    
C23   O20   A    
Cu2   O21   S    
C44   O26   S    
O26   C54   S    
Cu1   O22   S    
C48   H33   S    
C36   C37   D    
C11   H24   S    
C4    C7    A    
Cu5   O14   S    
C6    C12   S    
C5    C6    A    
C11   C14   S    
C36   H14   S    
C48   C49   S    
C33   C36   S    
C50   H28   S    
C47   H27   S    
C18   C19   D    
Cu3   O5    S    
C53   H35   S    
C49   H32   S    
C25   C37   S    
C50   H29   S    
C8    C9    A    
Cu1   O20   S    
Cu2   O12   S    
C12   O19   A    
C1    C15   S    
C20   H8    S    
C9    C10   A    
C29   O9    A    
C17   H6    S    
C1    O12   A    
C32   O17   A    
C24   H12   S    
C45   H20   S    
C12   O18   A    
Cu6   O13   S    
C2    C6    A    
C30   O13   A    
Cu4   O2    S    
C3    C26   S    
C21   C32   S    
C40   H17   S    
Cu4   O8    S    
C25   O2    A    
C13   C30   S    
C27   O5    A    
Cu5   O11   S    
C16   C17   D    
C19   H7    S    
C26   O4    A    
Cu5   Cu6   S    
C53   H37   S    
C43   C44   A    
C54   H43   S    
Cu5   O16   S    
C22   H10   S    
C10   H23   S    
C27   C41   S    
C25   O24   A    
Cu1   Cu2   S    
C49   C50   S    
C31   O14   A    
C8    H22   S    
C34   O23   A    
Cu6   O17   S    
C47   H26   S    
C29   O10   A    
C40   C41   D    
C23   O21   A    
C20   C22   S    
Cu3   Cu4   S    
C31   O15   A    
C51   H41   S    
C2    C46   A    
C22   C24   D    
C9    H1    S    
C42   C43   A    
Cu1   O1    S    
C54   H42   S    
C44   C45   A    
Cu4   O6    S    
C13   H2    S    
Cu2   O23   S    
C43   H19   S    
C51   H40   S    
C17   C28   S    
C21   H9    S    
C27   O6    A    
C34   O22   A    
C38   H16   S    
C4    C5    A    
C19   C34   S    
Cu4   O4    S    
C29   C35   S    
C3    C46   A    
C26   O3    A    
C50   H30   S    
C48   H34   S    
C15   H4    S    
Cu3   O7    S    
Cu6   O10   S    
C52   H39   S    
C54   H44   S    
C5    C10   A    
C35   C48   S    
C52   C53   S    
Cu3   O24   S    
C38   C40   S    
C11   C13   D    
C38   C39   D    
C2    C42   A    
C37   H15   S    
C33   C35   D    
Cu1   O18   S    
C31   C39   S    
C51   C52   S    
C14   H3    S    
C16   H5    S    
C47   H25   S    
C53   H36   S    
C23   C24   S    
Cu3   O3    S    
C20   C21   D    
C16   C18   S    
C39   C51   S    
C14   C15   D    
Cu6   O15   S    
C30   O11   A    
C42   H11   S    
C18   O25   S    
C3    C4    A    
C41   H18   S    
C28   O7    A    
