data_mof_unit_16836.cif
_audit_creation_date              2012-12-10T16:58:31-0500
_audit_creation_method            fapswitch 2.2
_symmetry_space_group_name_H-M    P1
_symmetry_Int_Tables_number       1
_space_group_crystal_system       triclinic
_cell_length_a                    13.128908
_cell_length_b                    13.094801
_cell_length_c                    15.453674
_cell_angle_alpha                 108.549588
_cell_angle_beta                  74.620931
_cell_angle_gamma                 91.177289
_cell_volume                      2422.65989607

loop_
_atom_site_label
_atom_site_type_symbol
_atom_type_description
_atom_site_fract_x
_atom_site_fract_y
_atom_site_fract_z
_atom_type_partial_charge
C1    C     C_R   0.217460 0.539827 0.536715 0.541282
C2    C     C_R   0.531243 0.490063 0.108652 0.217013
C3    C     C_R   0.590718 0.307476 0.088328 0.215705
C4    C     C_R   0.780797 0.459668 0.466286 0.527323
C5    C     C_R   0.423402 0.568714 0.856072 -0.013260
C6    C     C_2   0.893569 0.450535 0.457982 -0.054552
C7    C     C_2   0.931743 0.480743 0.534263 0.204838
C8    C     C_2   0.101530 0.548777 0.555427 -0.068674
C9    C     C_2   0.046008 0.465005 0.520037 0.208214
C10   C     C_2   0.538597 0.896992 0.538615 0.281074
C11   C     C_2   0.465916 0.945706 0.514467 0.250275
C12   C     C_R   0.349270 0.690401 0.016709 0.255302
C13   C     C_2   0.457632 0.102954 0.458188 0.248795
C14   C     C_2   0.471196 0.061200 0.523746 -0.047069
C15   C     C_R   0.469520 0.218295 0.472368 0.544955
C16   C     C_R   0.530289 0.781574 0.528432 0.536995
C17   C     C_R   0.543503 0.443325 0.247581 0.570133
C18   C     C_R   0.452693 0.552846 0.753050 0.562896
C19   C     C_R   0.579932 0.272397 0.995976 0.260326
C20   C     C_R   0.560984 0.414751 0.145525 -0.014230
C21   C     C_R   0.375231 0.669020 0.918630 -0.191651
C22   C     C_3   0.727599 0.248687 0.131326 0.010382
C23   C     C_R   0.384775 0.616927 0.052900 0.330859
C24   C     C_3   0.807558 0.183408 0.038481 -0.256062
C25   C     C_3   0.920589 0.192495 0.047469 -0.487547
C26   C     C_3   0.688529 0.900311 0.597306 0.002131
C27   C     C_3   0.639615 0.888885 0.695698 -0.292855
C28   C     C_3   0.703028 0.803581 0.711798 -0.454133
C29   C     C_3   0.675091 0.212731 0.760137 0.035316
C30   C     C_3   0.691951 0.238708 0.667613 -0.251828
C31   C     C_3   0.809407 0.230995 0.615811 -0.426281
C32   C     C_3   0.528865 0.098291 0.964811 0.058906
C33   C     C_3   0.578586 0.999349 0.974655 -0.272215
C34   C     C_R   0.448470 0.521586 0.990275 -0.061470
C35   C     C_3   0.499179 0.913922 0.982085 -0.466177
C36   C     C_3   0.613664 0.646836 0.118760 0.018430
C37   C     C_3   0.598530 0.768842 0.169019 -0.204702
C38   C     C_3   0.690298 0.826986 0.126199 -0.490681
C39   C     C_3   0.261726 0.574543 0.168545 0.027140
C40   C     C_3   0.214693 0.606748 0.275840 -0.220229
C41   C     C_3   0.118188 0.544463 0.301420 -0.481863
C42   C     C_3   0.197255 0.804062 0.065616 0.013451
C43   C     C_3   0.194200 0.908397 0.041535 -0.260650
C44   C     C_3   0.086453 0.932352 0.029574 -0.475689
C45   C     C_R   0.448779 0.489442 0.893574 -0.068229
C46   C     C_R   0.504598 0.453486 0.020954 -0.087025
C47   C     C_R   0.539000 0.345441 0.960447 -0.084885
C48   C     C_R   0.526799 0.311414 0.867551 0.304433
C49   C     C_R   0.471991 0.379223 0.839119 0.252959
Cl1   Cl    Cl    0.849225 0.539222 0.650829 -0.665842
Cl2   Cl    Cl    0.358624 0.875867 0.479047 -0.521468
Cl3   Cl    Cl    0.433839 0.023128 0.350249 -0.516674
Cl4   Cl    Cl    0.407910 0.315308 0.750529 -0.579922
Cl5   Cl    Cl    0.103319 0.332126 0.454913 -0.560053
H1    H     H_    0.060149 0.626794 0.598631 0.115016
H2    H     H_    0.940779 0.278151 0.065388 0.153120
H3    H     H_    0.976575 0.145274 0.978971 0.159111
H4    H     H_    0.759540 0.947289 0.601176 0.148656
H5    H     H_    0.719233 0.821477 0.541737 0.152498
H6    H     H_    0.637876 0.967583 0.751424 0.186455
H7    H     H_    0.556725 0.865948 0.703863 0.180892
H8    H     H_    0.704811 0.724111 0.656753 0.189193
H9    H     H_    0.665249 0.795156 0.782263 0.156875
H10   H     H_    0.785319 0.827020 0.709071 0.169498
H11   H     H_    0.713302 0.131352 0.743150 0.164732
H12   H     H_    0.947444 0.422761 0.387017 0.086290
H13   H     H_    0.717001 0.269803 0.807635 0.122652
H14   H     H_    0.650915 0.181094 0.620560 0.216915
H15   H     H_    0.658340 0.321729 0.683297 0.219927
H16   H     H_    0.851946 0.289878 0.660638 0.198726
H17   H     H_    0.819036 0.249480 0.548902 0.199532
H18   H     H_    0.845037 0.148160 0.598026 0.150758
H19   H     H_    0.490275 0.071821 0.906140 0.168688
H20   H     H_    0.465488 0.137869 0.031723 0.143916
H21   H     H_    0.647554 0.963933 0.912382 0.162682
H22   H     H_    0.607407 0.023996 0.039217 0.207963
H23   H     H_    0.490915 0.113795 0.586334 0.170966
H24   H     H_    0.430889 0.947230 0.045517 0.206498
H25   H     H_    0.537678 0.843201 0.988835 0.159851
H26   H     H_    0.470566 0.886641 0.917445 0.136066
H27   H     H_    0.687820 0.615277 0.126393 0.128522
H28   H     H_    0.620995 0.631389 0.042048 0.124899
H29   H     H_    0.523648 0.800243 0.162800 0.238775
H30   H     H_    0.592351 0.786281 0.245582 0.217114
H31   H     H_    0.765773 0.798903 0.133717 0.146409
H32   H     H_    0.676068 0.915296 0.163777 0.180466
H33   H     H_    0.697145 0.811729 0.049870 0.142518
H34   H     H_    0.355469 0.730389 0.891463 0.139567
H35   H     H_    0.199246 0.589665 0.136344 0.114006
H36   H     H_    0.287587 0.486922 0.140367 0.129337
H37   H     H_    0.275478 0.590629 0.309014 0.203161
H38   H     H_    0.190800 0.694650 0.304795 0.210254
H39   H     H_    0.057491 0.556719 0.266763 0.142367
H40   H     H_    0.082845 0.574406 0.379319 0.151724
H41   H     H_    0.141522 0.456898 0.279004 0.180035
H42   H     H_    0.135987 0.813219 0.133362 0.163040
H43   H     H_    0.174998 0.735852 0.010370 0.111662
H44   H     H_    0.211103 0.976844 0.099234 0.194896
H45   H     H_    0.736612 0.218995 0.188893 0.149759
H46   H     H_    0.256076 0.901423 0.974690 0.154240
H47   H     H_    0.068372 0.865501 0.971437 0.157839
H48   H     H_    0.087575 0.007872 0.011380 0.153582
H49   H     H_    0.023373 0.942996 0.096517 0.150933
H50   H     H_    0.746103 0.335230 0.151667 0.115060
H51   H     H_    0.789566 0.097074 0.019567 0.175963
H52   H     H_    0.801675 0.213770 0.980419 0.185281
H53   H     H_    0.929578 0.160069 0.103499 0.149792
O1    O     O_3   0.500000 0.500000 0.500000 -0.458306
O2    O     O_R   0.468210 0.402800 0.293550 -0.519652
O3    O     O_R   0.410220 0.615430 0.721590 -0.557519
O4    O     O_R   0.602670 0.506150 0.290200 -0.539647
O5    O     O_R   0.518910 0.475630 0.694660 -0.494681
O6    O     O_3   0.622544 0.233132 0.124507 -0.555616
O7    O     O_3   0.618032 0.958061 0.571349 -0.618623
O8    O     O_3   0.565619 0.210237 0.803557 -0.508331
O9    O     O_3   0.609915 0.165770 0.941149 -0.549429
O10   O     O_3   0.526016 0.598296 0.161230 -0.496804
O11   O     O_3   0.348733 0.636766 0.149658 -0.469543
O12   O     O_R   0.526920 0.270960 0.524520 -0.558126
O13   O     O_3   0.297154 0.787355 0.079676 -0.532614
O14   O     O_R   0.454490 0.752910 0.584610 -0.529613
O15   O     O_R   0.270990 0.462040 0.468400 -0.476636
O16   O     O_R   0.747590 0.514090 0.422470 -0.563000
O17   O     O_R   0.265290 0.607490 0.589320 -0.525837
O18   O     O_R   0.716130 0.416380 0.519810 -0.513108
O19   O     O_R   0.423930 0.265320 0.430520 -0.466542
O20   O     O_R   0.594650 0.710810 0.460350 -0.547440
Zn1   Zn    Zn3+2 0.564370 0.417180 0.558730 0.970990
Zn2   Zn    Zn3+2 0.417220 0.409120 0.424430 1.046689
Zn3   Zn    Zn3+2 0.609330 0.556780 0.419650 0.940551
Zn4   Zn    Zn3+2 0.409080 0.616930 0.597190 0.980943

loop_
_geom_bond_atom_site_label_1
_geom_bond_atom_site_label_2
_ccdc_geom_bond_type
C24   C25   S    
C1    C8    S    
C25   H2    S    
C43   C44   S    
C32   O9    S    
C23   O11   S    
C2    C46   A    
C12   C23   A    
C26   C27   S    
C29   C30   S    
C4    O18   A    
C38   H32   S    
C42   H42   S    
C36   C37   S    
C18   O5    A    
C27   H6    S    
C32   H20   S    
C30   C31   S    
C11   C14   S    
C19   C47   A    
C35   H26   S    
C17   C20   S    
C22   H50   S    
C14   H23   S    
C1    O15   A    
O1    Zn4   S    
C27   H7    S    
C12   O13   S    
C33   H21   S    
C31   H16   S    
C41   H39   S    
C47   C48   A    
C36   H28   S    
C8    C9    D    
C15   O19   A    
O18   Zn1   S    
C43   H44   S    
C37   H30   S    
C3    C19   A    
C34   C46   A    
C26   H5    S    
C39   H36   S    
O1    Zn3   S    
C10   O7    S    
O12   Zn1   S    
C31   H17   S    
C29   O8    S    
C21   H34   S    
C29   H13   S    
C13   C14   D    
C25   H3    S    
O14   Zn4   S    
C17   O4    A    
C8    H1    S    
C44   H49   S    
C22   O6    S    
O5    Zn1   S    
C38   H31   S    
C2    C20   A    
C3    C20   A    
C43   H46   S    
C4    C6    S    
C3    O6    S    
C42   H43   S    
C32   H19   S    
C44   H48   S    
C5    C18   S    
O19   Zn2   S    
C5    C45   A    
C12   C21   A    
C40   H38   S    
C4    O16   A    
C16   O14   A    
C26   O7    S    
C37   C38   S    
C13   Cl3   S    
C33   H22   S    
C41   H40   S    
C45   C49   A    
C36   H27   S    
C48   C49   A    
C23   C34   A    
O3    Zn4   S    
C34   C45   A    
O1    Zn1   S    
C36   O10   S    
C26   H4    S    
O1    Zn2   S    
C48   O8    S    
C29   H11   S    
C28   H10   S    
C40   C41   S    
C13   C15   S    
O16   Zn3   S    
O2    Zn2   S    
C22   C24   S    
C24   H52   S    
C42   C43   S    
C39   C40   S    
C30   H15   S    
C25   H53   S    
C7    C9    S    
C46   C47   A    
C31   H18   S    
C22   H45   S    
O15   Zn2   S    
C18   O3    A    
C7    Cl1   S    
C17   O2    A    
C44   H47   S    
C6    C7    D    
C24   H51   S    
C39   O11   S    
C2    O10   S    
C35   H24   S    
C38   H33   S    
C32   C33   S    
C1    O17   A    
C10   C16   S    
C42   O13   S    
C41   H41   S    
C19   O9    S    
C49   Cl4   S    
C35   H25   S    
C33   C35   S    
C15   O12   A    
C40   H37   S    
C16   O20   A    
O20   Zn3   S    
C11   Cl2   S    
C10   C11   D    
C28   H9    S    
C6    H12   S    
C5    C21   A    
O17   Zn4   S    
C27   C28   S    
C37   H29   S    
O4    Zn3   S    
C9    Cl5   S    
C39   H35   S    
C30   H14   S    
C28   H8    S    
