data_mof_unit_32235.cif
_audit_creation_date              2012-12-10T16:50:04-0500
_audit_creation_method            fapswitch 2.2
_symmetry_space_group_name_H-M    P1
_symmetry_Int_Tables_number       1
_space_group_crystal_system       triclinic
_cell_length_a                    7.851635
_cell_length_b                    8.568268
_cell_length_c                    10.734219
_cell_angle_alpha                 92.693474
_cell_angle_beta                  83.869126
_cell_angle_gamma                 93.01133
_cell_volume                      716.398903352

loop_
_atom_site_label
_atom_site_type_symbol
_atom_type_description
_atom_site_fract_x
_atom_site_fract_y
_atom_site_fract_z
_atom_type_partial_charge
C1    C     C_R   0.544543 0.794315 0.495314 0.948471
C2    C     C_R   0.335397 0.531564 0.952844 0.103732
C3    C     C_R   0.482409 0.481193 0.874196 -0.114877
C4    C     C_R   0.628845 0.440076 0.925141 -0.239898
C5    C     C_R   0.635530 0.454659 0.051925 -0.228218
C6    C     C_R   0.501517 0.521979 0.128232 -0.120614
C7    C     C_2   0.563878 0.958336 0.500878 -0.463714
C8    C     C_2   0.437174 0.042179 0.468523 0.037985
C9    C     C_R   0.495435 0.491341 0.740015 0.866052
C10   C     C_R   0.455408 0.205617 0.494375 0.925303
C11   C     C_R   0.501879 0.510878 0.260813 0.859363
C12   C     C_R   0.168891 0.542054 0.913699 -0.172743
C13   C     C_R   0.044381 0.627113 0.985082 -0.176413
C14   C     C_R   0.077898 0.694273 0.100177 -0.135533
C15   C     C_R   0.231278 0.666754 0.147234 -0.174799
C16   C     C_R   0.356959 0.575327 0.077398 0.094073
H1    H     H_    0.738720 0.395828 0.866931 0.174903
H2    H     H_    0.127755 0.480921 0.831329 0.191083
H3    H     H_    0.922077 0.641599 0.950509 0.162747
H4    H     H_    0.982446 0.762613 0.155159 0.141821
H5    H     H_    0.249022 0.718464 0.238287 0.171977
H6    H     H_    0.746335 0.412887 0.090016 0.182694
H7    H     H_    0.672153 0.009320 0.546677 0.157064
H8    H     H_    0.014727 0.388975 0.397649 0.171046
N1    N     N_2   0.950330 0.457950 0.466250 -0.153647
N2    N     N_2   0.049670 0.542050 0.533750 0.007326
O1    O     O_R   0.389250 0.738570 0.508280 -0.590626
O2    O     O_R   0.678390 0.711630 0.486650 -0.650464
O3    O     O_R   0.355400 0.513470 0.694050 -0.640406
O4    O     O_R   0.644540 0.486530 0.672420 -0.640810
O5    O     O_R   0.321610 0.288370 0.513350 -0.622528
O6    O     O_R   0.610750 0.261430 0.491720 -0.630886
O7    O     O_R   0.355460 0.513470 0.327580 -0.639855
O8    O     O_R   0.644600 0.486530 0.305950 -0.620796
Zn1   Zn    Zn3+2 0.306930 0.517990 0.514440 0.942291
Zn2   Zn    Zn3+2 0.693070 0.482010 0.485560 0.930539
N3    N     N_2   0.973388 0.631744 0.632680 -0.232730
H9    H     H_    0.852955 0.662026 0.624185 0.291707
C17   C     C_3   0.072597 0.769726 0.669088 -0.705292
H10   H     H_    0.998172 0.834986 0.746706 0.187991
H11   H     H_    0.099175 0.847732 0.589075 0.257791
H12   H     H_    0.192636 0.739657 0.704607 0.281359
N4    N     N_2   0.318636 0.976990 0.384837 -0.291874
H13   H     H_    0.380500 0.936757 0.300869 0.211171
C18   C     C_3   0.163585 0.055495 0.370373 -0.765480
H14   H     H_    0.079343 0.977648 0.315271 0.224309
H15   H     H_    0.195103 0.164350 0.318654 0.237486
H16   H     H_    0.091831 0.081546 0.463264 0.251918

loop_
_geom_bond_atom_site_label_1
_geom_bond_atom_site_label_2
_ccdc_geom_bond_type
C1    O2    A    
N4    H13   S    
N2    N3    S    
N3    H9    S    
C3    C9    S    
C9    O3    A    
C2    C16   A    
O3    Zn1   S    
C8    N4    S    
O4    Zn2   S    
C2    C12   A    
C2    C3    A    
C7    C8    D    
C17   H11   S    
C13   C14   A    
H8    N1    S    
N4    C18   S    
C6    C11   S    
C15   H5    S    
C9    O4    A    
C7    H7    S    
C4    H1    S    
O6    Zn2   S    
C8    C10   S    
O7    Zn1   S    
C17   H12   S    
O8    Zn2   S    
C18   H15   S    
C5    C6    A    
O5    Zn1   S    
C18   H14   S    
C13   H3    S    
N1    Zn2   S    
C6    C16   A    
C3    C4    A    
C10   O6    A    
N2    Zn1   S    
C11   O7    A    
C12   C13   A    
O2    Zn2   S    
C14   H4    S    
N3    C17   S    
C18   H16   S    
C12   H2    S    
C17   H10   S    
C1    O1    A    
C14   C15   A    
O1    Zn1   S    
N1    N2    D    
C1    C7    S    
C10   O5    A    
C11   O8    A    
C5    H6    S    
C15   C16   A    
C4    C5    A    
