data_mof_unit_68374.cif
_audit_creation_date              2013-03-05T15:42:26-0500
_audit_creation_method            fapswitch 2.2
_symmetry_space_group_name_H-M    P1
_symmetry_Int_Tables_number       1
_space_group_crystal_system       triclinic
_cell_length_a                    11.324094
_cell_length_b                    11.585645
_cell_length_c                    18.782078
_cell_angle_alpha                 89.454015
_cell_angle_beta                  88.581936
_cell_angle_gamma                 61.0749
_cell_volume                      2156.0859907

loop_
_atom_site_label
_atom_site_type_symbol
_atom_site_description
_atom_site_fract_x
_atom_site_fract_y
_atom_site_fract_z
_atom_type_partial_charge
O1    O     O_R   0.507340 0.255690 0.581430 -0.508044
O2    O     O_R   0.280360 0.527380 0.578910 -0.531821
C1    C     C_R   0.261275 0.633519 0.614156 0.542361
O3    O     O_R   0.260600 0.739610 0.584580 -0.440842
O4    O     O_R   0.532370 0.695050 0.573830 -0.522206
C2    C     C_R   0.646797 0.617046 0.603048 0.570701
O5    O     O_R   0.744850 0.503430 0.576380 -0.437202
O6    O     O_R   0.699080 0.276500 0.571950 -0.437508
C3    C     C_R   0.632784 0.216542 0.596758 0.598814
O7    O     O_R   0.498860 0.256520 0.419860 -0.497982
O8    O     O_R   0.272490 0.528150 0.429140 -0.465738
C4    C     C_R   0.223669 0.647306 0.403205 0.539459
O9    O     O_R   0.252110 0.740440 0.423010 -0.544622
O10   O     O_R   0.524510 0.695820 0.424050 -0.529191
C5    C     C_R   0.638297 0.616447 0.390444 0.517191
O11   O     O_R   0.736370 0.504260 0.414810 -0.516320
O12   O     O_R   0.691220 0.277270 0.422180 -0.537011
C6    C     C_R   0.615829 0.233915 0.395056 0.572284
Cr1   Cr    Cr6+3 0.392940 0.397950 0.502230 1.038190
Cr2   Cr    Cr6+3 0.398400 0.708500 0.501260 1.027646
Cr3   Cr    Cr6+3 0.708640 0.393530 0.496460 1.070479
O13   O     O_3   0.499990 0.499990 0.499980 -0.304236
C7    C     C_3   0.533871 0.758732 0.801705 0.071146
C8    C     C_3   0.518061 0.761484 0.715793 -0.070866
H1    H     H_    0.444031 0.729493 0.703464 0.200391
H2    H     H_    0.748436 0.824504 0.777355 0.144976
H3    H     H_    0.694664 0.817272 0.669318 0.139098
C9    C     C_3   0.780738 0.721099 0.765050 -0.061195
C10   C     C_3   0.746685 0.523040 0.799981 0.140241
C11   C     C_3   0.696362 0.674156 0.816201 0.008451
C12   C     C_3   0.655738 0.652402 0.679439 -0.045463
C13   C     C_3   0.752372 0.712830 0.685491 -0.013614
C14   C     C_3   0.683868 0.529409 0.728117 -0.097800
H4    H     H_    0.582751 0.551417 0.745201 0.141210
C15   C     C_R   0.701250 0.142676 0.816002 -0.010004
C16   C     C_R   0.809629 0.131932 0.769495 0.020212
C17   C     C_R   0.804768 0.106381 0.694395 0.041056
C18   C     C_R   0.579732 0.143140 0.709376 0.088941
C19   C     C_R   0.585042 0.163704 0.781808 -0.082104
C20   C     C_R   0.920129 0.149135 0.791174 0.047321
C21   C     C_R   0.012316 0.146932 0.738718 -0.064209
C22   C     C_R   0.013294 0.107332 0.667934 0.130293
C23   C     C_R   0.915655 0.074442 0.648579 -0.028852
C24   C     C_R   0.681475 0.134494 0.663690 0.066862
H5    H     H_    0.499319 0.183857 0.813378 0.207404
H6    H     H_    0.086403 0.174414 0.753266 0.148263
H7    H     H_    0.912514 0.047385 0.593827 0.149886
C25   C     C_R   0.169563 0.678363 0.837095 0.010115
C26   C     C_R   0.261787 0.552114 0.812234 -0.050141
C27   C     C_R   0.254622 0.528205 0.737937 -0.021079
C28   C     C_R   0.145687 0.765255 0.722875 0.108957
C29   C     C_R   0.087336 0.768265 0.787116 0.124826
C30   C     C_R   0.310128 0.448189 0.861513 0.128273
C31   C     C_R   0.279539 0.348086 0.848984 0.090195
C32   C     C_R   0.246517 0.332039 0.780148 -0.020141
C33   C     C_R   0.244092 0.412848 0.723189 0.134932
C34   C     C_R   0.216699 0.640666 0.690387 -0.054180
H8    H     H_    0.223079 0.254132 0.770450 0.167423
C35   C     C_R   0.671506 0.642739 0.165722 -0.037628
C36   C     C_R   0.784084 0.554063 0.208964 0.004174
C37   C     C_R   0.777601 0.588399 0.281085 -0.012530
C38   C     C_R   0.531952 0.694821 0.270592 0.018155
C39   C     C_R   0.542856 0.703494 0.196320 0.038480
C40   C     C_R   0.903119 0.435315 0.185117 0.170452
C41   C     C_R   0.016981 0.379154 0.227639 -0.102774
C42   C     C_R   0.017163 0.435239 0.292173 -0.104700
C43   C     C_R   0.900386 0.542217 0.318726 0.131536
C44   C     C_R   0.648741 0.647701 0.314552 -0.022977
H9    H     H_    0.106832 0.291085 0.210121 0.153437
H10   H     H_    0.107581 0.392752 0.323221 0.142041
H11   H     H_    0.688913 0.342600 0.292523 0.146694
C45   C     C_R   0.628581 0.157584 0.176972 0.032542
C46   C     C_R   0.566375 0.106278 0.226280 -0.052585
C47   C     C_R   0.602019 0.098104 0.298580 0.043262
C48   C     C_R   0.670758 0.264272 0.273931 -0.157767
C49   C     C_R   0.661918 0.251019 0.201213 0.043400
C50   C     C_R   0.462313 0.073753 0.209841 0.057105
C51   C     C_R   0.423398 0.009263 0.261133 -0.161958
C52   C     C_R   0.482291 0.977466 0.327228 -0.147183
C53   C     C_R   0.572511 0.019693 0.346614 0.127353
C54   C     C_R   0.647320 0.184381 0.322615 0.017932
H12   H     H_    0.341496 0.988910 0.251573 0.190563
H13   H     H_    0.450372 0.928373 0.366074 0.135426
C55   C     C_R   0.081467 0.717339 0.193253 0.036162
C56   C     C_R   0.035286 0.823960 0.243176 0.006864
C57   C     C_R   0.061119 0.795026 0.315870 0.010536
C58   C     C_R   0.218086 0.565215 0.283826 0.085994
C59   C     C_R   0.184329 0.592100 0.212081 0.112214
C60   C     C_R   0.980196 0.958429 0.223094 -0.065701
C61   C     C_R   0.959894 0.055006 0.272854 -0.117554
C62   C     C_R   0.965312 0.027065 0.344883 -0.106160
C63   C     C_R   0.006439 0.898797 0.366477 -0.069252
C64   C     C_R   0.155734 0.666698 0.335647 0.059393
H14   H     H_    0.963232 0.992315 0.169435 0.185214
H15   H     H_    0.934313 0.153449 0.255434 0.126520
H16   H     H_    0.940281 0.104010 0.383898 0.152865
H17   H     H_    0.009010 0.879812 0.423142 0.146917
O14   O     O_R   0.089570 0.825450 0.930590 -0.480440
O15   O     O_R   0.818700 0.054260 0.929860 -0.481023
C65   C     C_R   0.707300 0.095859 0.893405 0.548529
O16   O     O_R   0.606310 0.077010 0.915520 -0.493705
O17   O     O_R   0.646730 0.806540 0.917560 -0.481223
C66   C     C_R   0.725441 0.689725 0.890011 0.515018
O18   O     O_R   0.837290 0.593240 0.915240 -0.467063
O19   O     O_R   0.065320 0.635310 0.931580 -0.527425
C67   C     C_R   0.118693 0.707322 0.909133 0.524553
O20   O     O_R   0.068470 0.828620 0.091850 -0.523810
O21   O     O_R   0.799150 0.057200 0.079350 -0.526103
C68   C     C_R   0.674003 0.099409 0.105359 0.542431
O22   O     O_R   0.585220 0.080180 0.076770 -0.483974
O23   O     O_R   0.627170 0.809480 0.067050 -0.459556
C69   C     C_R   0.699304 0.686657 0.096062 0.563311
O24   O     O_R   0.816200 0.596410 0.076500 -0.504295
O25   O     O_R   0.045770 0.638240 0.081070 -0.460946
C70   C     C_R   0.040144 0.740092 0.119050 0.522832
Cr4   Cr    Cr6+3 0.937880 0.938320 0.007620 1.042368
Cr5   Cr    Cr6+3 0.625560 0.937220 0.994510 1.108871
Cr6   Cr    Cr6+3 0.938080 0.625010 0.001190 1.057851
O26   O     O_3   0.833840 0.833520 0.001110 -0.343181
C71   C     C_2   0.455718 0.896785 0.836234 0.651746
O27   O     O_2   0.374037 0.918909 0.885195 -0.408805
O28   O     O_R   0.484791 0.994955 0.819465 -0.702634
H18   H     H_    0.555991 0.965194 0.781396 0.291364
C72   C     C_2   0.709142 0.405128 0.697329 0.567893
O29   O     O_2   0.621953 0.372050 0.702654 -0.537966
O30   O     O_R   0.823411 0.331913 0.657244 -0.655752
H19   H     H_    0.890320 0.364861 0.650812 0.385285
N1    N     N_3   0.925984 0.657605 0.777352 -0.629059
H20   H     H_    0.990331 0.600386 0.736789 0.298351
H21   H     H_    0.959798 0.613686 0.826053 0.291599
C73   C     C_2   0.866093 0.678807 0.630790 0.543759
O31   O     O_2   0.910803 0.580089 0.593869 -0.507227
O32   O     O_R   0.916845 0.766760 0.621316 -0.724075
H22   H     H_    0.986181 0.739686 0.580939 0.337323
N2    N     N_3   0.462727 0.146307 0.680275 -0.593292
H23   H     H_    0.494304 0.074111 0.640730 0.259441
H24   H     H_    0.408623 0.125912 0.718118 0.261522
C74   C     C_2   0.949005 0.163492 0.866609 0.608859
O33   O     O_2   0.859924 0.239009 0.907304 -0.459094
O34   O     O_R   0.080740 0.093407 0.891114 -0.639440
H25   H     H_    0.088030 0.112080 0.942994 0.350598
C75   C     C_2   0.099557 0.123194 0.611525 0.644500
O35   O     O_2   0.182813 0.156291 0.627534 -0.533690
O36   O     O_R   0.086400 0.098966 0.540108 -0.705393
H26   H     H_    0.150940 0.112388 0.507113 0.322700
C76   C     C_2   0.198437 0.857906 0.724088 0.484513
O37   O     O_2   0.237725 0.888107 0.670600 -0.533539
O38   O     O_R   0.202040 0.914109 0.788701 -0.684585
H27   H     H_    0.233705 0.980874 0.783305 0.355709
N3    N     N_3   0.472136 0.684283 0.835638 -0.694279
H28   H     H_    0.375421 0.714762 0.819249 0.279930
H29   H     H_    0.472606 0.687052 0.891329 0.266775
N4    N     N_3   0.369911 0.453305 0.927393 -0.617756
H30   H     H_    0.388708 0.533155 0.927231 0.232068
H31   H     H_    0.302790 0.466548 0.969678 0.262849
N5    N     N_3   0.958944 0.875857 0.804592 -0.602302
H32   H     H_    0.904294 0.846471 0.838514 0.235750
H33   H     H_    0.979858 0.935677 0.835590 0.290820
N6    N     N_3   0.281296 0.262197 0.904953 -0.581816
H34   H     H_    0.372373 0.224418 0.931161 0.301899
H35   H     H_    0.205883 0.319432 0.942334 0.249165
N7    N     N_3   0.193216 0.392913 0.658361 -0.519027
H36   H     H_    0.124645 0.483053 0.637710 0.286358
H37   H     H_    0.271807 0.341354 0.621969 0.314201
N8    N     N_3   0.404968 0.716735 0.298593 -0.585304
H38   H     H_    0.421865 0.631335 0.325609 0.246907
H39   H     H_    0.363677 0.799825 0.331264 0.277309
N9    N     N_3   0.911147 0.362552 0.121604 -0.555986
H40   H     H_    0.934249 0.266845 0.136589 0.229050
H41   H     H_    0.819165 0.401490 0.096254 0.288096
C77   C     C_2   0.422385 0.752913 0.149897 0.625837
O39   O     O_2   0.309438 0.828023 0.173602 -0.468855
O40   O     O_R   0.437811 0.709883 0.079198 -0.709738
H42   H     H_    0.349126 0.749134 0.053405 0.358016
N10   N     N_3   0.911826 0.604978 0.381764 -0.619354
H43   H     H_    0.935462 0.539748 0.424567 0.278811
H44   H     H_    0.821806 0.689570 0.393616 0.226812
C78   C     C_2   0.369095 0.129178 0.149144 0.593316
O41   O     O_2   0.341533 0.237097 0.124810 -0.516686
O42   O     O_R   0.309387 0.059186 0.120817 -0.665365
H45   H     H_    0.247023 0.107545 0.080270 0.341188
N11   N     N_3   0.665274 0.347057 0.154118 -0.657441
H46   H     H_    0.644158 0.333142 0.102028 0.256760
H47   H     H_    0.586286 0.439031 0.169752 0.233602
N12   N     N_3   0.627778 0.989147 0.416603 -0.616515
H48   H     H_    0.678496 0.887273 0.422455 0.218760
H49   H     H_    0.547811 0.025230 0.453934 0.246256
N13   N     N_3   0.326549 0.439067 0.303638 -0.591388
H50   H     H_    0.312861 0.363364 0.282512 0.237623
H51   H     H_    0.416103 0.432646 0.283624 0.214994
N14   N     N_3   0.264570 0.500109 0.156485 -0.537052
H52   H     H_    0.353738 0.423162 0.175352 0.248359
H53   H     H_    0.298958 0.548918 0.121548 0.244188
N15   N     N_3   0.471552 0.891942 0.684255 -0.693026
H54   H     H_    0.381316 0.959891 0.707736 0.280783
H55   H     H_    0.451913 0.892957 0.630352 0.300794
C79   C     C_2   0.899505 0.436565 0.797756 0.613444
O43   O     O_2   0.965098 0.417098 0.742850 -0.585895
O44   O     O_R   0.967337 0.382663 0.860540 -0.623433
H56   H     H_    0.063241 0.313022 0.852442 0.336901
N16   N     N_3   0.697729 0.460302 0.853953 -0.562343
H57   H     H_    0.621345 0.439862 0.839103 0.263067
H58   H     H_    0.677479 0.502184 0.904733 0.277565

loop_
_geom_bond_atom_site_label_1
_geom_bond_atom_site_label_2
_geom_bond_distance
_ccdc_geom_bond_type
C59   N14   1.445459 S    
N15   H55   1.040643 S    
C77   O39   1.222261 D    
C30   N4    1.440339 S    
N8    H38   1.041697 S    
C33   N7    1.427094 S    
C21   C22   1.408580 A    
C31   C32   1.393447 A    
O23   C69   1.368172 A    
C45   C49   1.390985 A    
N1    H20   1.032338 S    
C78   O41   1.219947 D    
C61   C62   1.383950 A    
N2    H23   1.043320 S    
N10   H44   1.037179 S    
O4    Cr2   2.013274 S    
C30   C31   1.385004 A    
C71   O27   1.224718 D    
C77   O40   1.399725 S    
O8    Cr1   2.020726 S    
C10   C11   1.587217 S    
O4    C2    1.299961 A    
C16   C17   1.451845 A    
C76   O37   1.204727 D    
C25   C29   1.385474 A    
Cr5   O26   2.071774 S    
C56   C57   1.406523 A    
C18   C19   1.391122 A    
C41   H9    1.081751 S    
N12   H49   1.046114 S    
O23   Cr5   1.995884 S    
C5    O11   1.322761 A    
C10   C14   1.525827 S    
C6    C54   1.449362 S    
O21   C68   1.336434 A    
N13   H51   1.041140 S    
C46   C47   1.415489 A    
C60   H14   1.065757 S    
C79   O44   1.391876 S    
C51   H12   1.081041 S    
Cr6   O26   2.114407 S    
C16   C20   1.428042 A    
C2    C12   1.514970 S    
C35   C69   1.480431 S    
C31   N6    1.434431 S    
N11   H46   1.045097 S    
N9    H40   1.046069 S    
O14   Cr4   2.119915 S    
C55   C56   1.432299 A    
C9    C13   1.549665 S    
C25   C67   1.434639 S    
C15   C16   1.444279 A    
C43   N10   1.436114 S    
O6    C3    1.320692 A    
C20   C74   1.490656 S    
C11   C66   1.465476 S    
C22   C75   1.493053 S    
C14   C72   1.448652 S    
C21   H6    1.072988 S    
C12   C14   1.586928 S    
C28   C34   1.404353 A    
N4    H31   1.044837 S    
C76   O38   1.393423 S    
C52   C53   1.386001 A    
C19   H5    1.050389 S    
N9    H41   1.039742 S    
C42   C43   1.388261 A    
C62   H16   1.081538 S    
C9    N1    1.464581 S    
C35   C36   1.452150 A    
N8    H39   1.040926 S    
C47   C53   1.419137 A    
Cr3   O13   2.069571 S    
N16   H58   1.043081 S    
O17   C66   1.310512 A    
C49   N11   1.429112 S    
O22   Cr5   2.149641 S    
C69   O24   1.274717 A    
C71   O28   1.360687 S    
C63   H17   1.082963 S    
O12   C6    1.296886 A    
N7    H37   1.038986 S    
O1    Cr1   2.142603 S    
C10   N16   1.487010 S    
C28   C29   1.353789 A    
C7    C11   1.641863 S    
O10   Cr2   1.965346 S    
C61   H15   1.081548 S    
Cr1   O13   2.061971 S    
O1    C3    1.304240 A    
O34   H25   1.014079 S    
C45   C46   1.438566 A    
C62   C63   1.384981 A    
C56   C60   1.420851 A    
C51   C52   1.384262 A    
C48   C54   1.404545 A    
C28   C76   1.459782 S    
C50   C51   1.401530 A    
C27   C33   1.428281 A    
N14   H52   1.039633 S    
N1    H21   1.030631 S    
C36   C37   1.405563 A    
N5    H32   1.041629 S    
C17   C23   1.399029 A    
C15   C19   1.390061 A    
C48   C49   1.387298 A    
N14   H53   1.046556 S    
O18   Cr6   2.133799 S    
C18   C24   1.383776 A    
C38   C39   1.404330 A    
C57   C64   1.401660 A    
C37   C43   1.428707 A    
C39   C77   1.497646 S    
N6    H34   1.040155 S    
O10   C5    1.314898 A    
C8    N15   1.463244 S    
O7    Cr1   2.138298 S    
C7    C8    1.626210 S    
C32   C33   1.406865 A    
N6    H35   1.045622 S    
C14   H4    1.086316 S    
O15   Cr4   2.016264 S    
C18   N2    1.429717 S    
C8    H1    1.097997 S    
O20   C70   1.309959 A    
O25   Cr6   2.009315 S    
O17   Cr5   2.027806 S    
C74   O34   1.397025 S    
C1    C34   1.495894 S    
C25   C26   1.399768 A    
C7    N3    1.479757 S    
Cr2   O13   2.114518 S    
C41   C42   1.381233 A    
C55   C70   1.461773 S    
C10   C79   1.523274 S    
O32   H22   1.013325 S    
N3    H29   1.047006 S    
O19   Cr6   1.967187 S    
C22   C23   1.389228 A    
C47   C54   1.407899 A    
C1    O3    1.340716 A    
C7    C71   1.544058 S    
O42   H45   1.014081 S    
C72   O30   1.364896 S    
N7    H36   1.032850 S    
N2    H24   1.025529 S    
C45   C68   1.475021 S    
C20   C21   1.408873 A    
C3    C24   1.514103 S    
O9    Cr2   2.135045 S    
O2    Cr1   2.012240 S    
C75   O35   1.221581 D    
C53   N12   1.436166 S    
H2    C9    1.095285 S    
C12   C13   1.565025 S    
C55   C59   1.401030 A    
O36   H26   1.013933 S    
C73   O32   1.399395 S    
O6    Cr3   1.989518 S    
C78   O42   1.397915 S    
O8    C4    1.308026 A    
Cr4   O26   2.066626 S    
O11   Cr3   2.103458 S    
O25   C70   1.358841 A    
C2    O5    1.337046 A    
C29   N5    1.416499 S    
O19   C67   1.306752 A    
C35   C39   1.386518 A    
C50   C78   1.488686 S    
O14   C67   1.308253 A    
N16   H57   1.045660 S    
C38   C44   1.440797 A    
C36   C40   1.448563 A    
O16   Cr5   2.121379 S    
C40   C41   1.397584 A    
O21   Cr4   2.004392 S    
C17   C24   1.408683 A    
N5    H33   1.024056 S    
O2    C1    1.322279 A    
O28   H18   0.993701 S    
C8    C12   1.597458 S    
C40   N9    1.442773 S    
N10   H43   1.045230 S    
O5    Cr3   2.148128 S    
O15   C65   1.319402 A    
C52   H13   1.079069 S    
C27   C34   1.461236 A    
C37   C44   1.410500 A    
N12   H48   1.039188 S    
C42   H10   1.080409 S    
O7    C6    1.294726 A    
O30   H19   1.004377 S    
C26   C30   1.404390 A    
C5    C44   1.483280 S    
C58   C64   1.418795 A    
C9    C11   1.605930 S    
C65   O16   1.320763 A    
N15   H54   1.031778 S    
C75   O36   1.399204 S    
O38   H27   1.001092 S    
C58   N13   1.434869 S    
C79   O43   1.212658 D    
C4    C64   1.458781 S    
N11   H47   1.045335 S    
O20   Cr4   2.136434 S    
C74   O33   1.219883 D    
H3    C13   1.105164 S    
O40   H42   1.013978 S    
O24   Cr6   2.086208 S    
O3    Cr2   2.088001 S    
C15   C65   1.538310 S    
O44   H56   1.000053 S    
C38   N8    1.421536 S    
C4    O9    1.325187 A    
C58   C59   1.400472 A    
C26   C27   1.437121 A    
C32   H8    1.074978 S    
C66   O18   1.314675 A    
C46   C50   1.440745 A    
N3    H28   1.029292 S    
N13   H50   1.044944 S    
C57   C63   1.415921 A    
C60   C61   1.392395 A    
C68   O22   1.262702 A    
C23   H7    1.084341 S    
C13   C73   1.523325 S    
C73   O31   1.217739 D    
C72   O29   1.221519 D    
N4    H30   1.044778 S    
H11   C48   1.085259 S    
O12   Cr3   2.026336 S    
