data_mof_unit_22470.cif
_audit_creation_date              2012-12-11T14:21:23-0500
_audit_creation_method            fapswitch 2.2
_symmetry_space_group_name_H-M    P1
_symmetry_Int_Tables_number       1
_space_group_crystal_system       triclinic
_cell_length_a                    21.916015
_cell_length_b                    7.19916
_cell_length_c                    15.024275
_cell_angle_alpha                 90.00073
_cell_angle_beta                  107.634747
_cell_angle_gamma                 90.445059
_cell_volume                      2259.01255034

loop_
_atom_site_label
_atom_site_type_symbol
_atom_type_description
_atom_site_fract_x
_atom_site_fract_y
_atom_site_fract_z
_atom_type_partial_charge
O1    O     O_R   0.584770 0.505770 0.002090 -0.525994
O2    O     O_R   0.415230 0.005770 0.997910 -0.558610
O3    O     O_R   0.467060 0.173340 0.861950 -0.545866
O4    O     O_R   0.532940 0.673340 0.138050 -0.554139
C1    C     C_R   0.456150 0.344007 0.826038 0.757869
C2    C     C_R   0.544087 0.844369 0.174068 0.747172
O5    O     O_R   0.587510 0.175890 0.993210 -0.509395
O6    O     O_R   0.412490 0.675890 0.006790 -0.526769
O7    O     O_R   0.536540 0.008150 0.130100 -0.532669
O8    O     O_R   0.463460 0.508150 0.869900 -0.540748
C3    C     C_R   0.612385 0.345409 0.995101 0.737644
C4    C     C_R   0.387668 0.844611 0.005915 0.708109
O9    O     O_3   0.483140 0.340040 0.044760 -0.395970
O10   O     O_3   0.516860 0.840040 0.955240 -0.374298
V1    V     V_3+5 0.503130 0.064190 0.991700 1.500869
V2    V     V_3+5 0.496870 0.564190 0.008300 1.483583
C5    C     C_2   0.209625 0.735651 0.976013 0.597618
C6    C     C_2   0.784783 0.228517 0.995825 0.597849
C7    C     C_2   0.178959 0.890169 0.989676 -0.415128
C8    C     C_2   0.821366 0.383990 0.010186 -0.447116
H1    H     H_    0.202500 0.024297 0.992228 0.158021
H2    H     H_    0.803469 0.511599 0.031083 0.178505
C9    C     C_2   0.275103 0.743469 0.965478 0.467992
C10   C     C_2   0.720065 0.222232 0.008266 0.452619
C11   C     C_2   0.322579 0.853493 0.018725 0.066777
C12   C     C_2   0.676726 0.360698 0.981866 0.077789
C13   C     C_R   0.926583 0.880261 0.724067 -0.217255
C14   C     C_R   0.076254 0.386186 0.275277 -0.206037
C15   C     C_R   0.570919 0.849136 0.275869 -0.186711
C16   C     C_R   0.431494 0.347746 0.724169 -0.164710
C17   C     C_R   0.937442 0.796749 0.572430 0.466300
C18   C     C_R   0.065929 0.356717 0.431577 0.477922
C19   C     C_R   0.964074 0.818990 0.669857 -0.354722
C20   C     C_R   0.038158 0.364500 0.333825 -0.357002
C21   C     C_R   0.860946 0.910797 0.683280 0.472797
C22   C     C_R   0.143089 0.399956 0.312201 0.467749
C23   C     C_R   0.830605 0.851913 0.589763 -0.040999
C24   C     C_R   0.173114 0.366172 0.408865 -0.033828
C25   C     C_R   0.870283 0.812015 0.532940 -0.025052
C26   C     C_R   0.133544 0.363389 0.468540 -0.033637
C27   C     C_R   0.762528 0.835394 0.550224 -0.137628
C28   C     C_R   0.240946 0.342157 0.448870 -0.135480
C29   C     C_R   0.734972 0.826525 0.451395 0.026017
C30   C     C_R   0.269198 0.362329 0.547141 0.021244
C31   C     C_R   0.776441 0.802091 0.396401 -0.133880
C32   C     C_R   0.228168 0.374645 0.603528 -0.122677
C33   C     C_R   0.842204 0.788057 0.436766 -0.152173
C34   C     C_R   0.162161 0.367805 0.565232 -0.148935
C35   C     C_R   0.721580 0.809418 0.606006 0.558614
C36   C     C_R   0.280525 0.282060 0.395654 0.536391
C37   C     C_R   0.655382 0.810678 0.567099 0.520577
C38   C     C_R   0.346618 0.267637 0.434998 0.542926
C39   C     C_R   0.626915 0.831072 0.470334 -0.252481
C40   C     C_R   0.376218 0.302990 0.530573 -0.242390
C41   C     C_R   0.666829 0.833679 0.411259 -0.060552
C42   C     C_R   0.337246 0.354136 0.587016 -0.062892
C43   C     C_R   0.559256 0.842038 0.432040 0.477668
C44   C     C_R   0.443409 0.278657 0.571587 0.442674
C45   C     C_R   0.531241 0.846940 0.333903 0.341466
C46   C     C_R   0.469201 0.283745 0.670412 0.278747
C47   C     C_R   0.637276 0.845320 0.314057 -0.219845
C48   C     C_R   0.367425 0.389988 0.682552 -0.232421
H3    H     H_    0.871196 0.761089 0.391261 0.164292
H4    H     H_    0.133513 0.368618 0.612687 0.173466
H5    H     H_    0.664537 0.853858 0.265323 0.148711
H6    H     H_    0.341719 0.443257 0.727830 0.163962
H7    H     H_    0.014152 0.791212 0.704224 0.145486
H8    H     H_    0.986759 0.361319 0.302215 0.132720
H9    H     H_    0.759455 0.782143 0.321891 0.131112
H10   H     H_    0.245437 0.376467 0.678697 0.148650
O11   O     O_R   0.036450 0.233070 0.130130 -0.543261
O12   O     O_R   0.963550 0.733070 0.869870 -0.541584
O13   O     O_R   0.912470 0.560570 0.006790 -0.533492
O14   O     O_R   0.087530 0.060570 0.993210 -0.535817
C49   C     C_R   0.887236 0.391159 0.003383 0.773760
C50   C     C_R   0.112645 0.892397 0.995546 0.767736
O15   O     O_R   0.032920 0.562940 0.138050 -0.554292
O16   O     O_R   0.967080 0.062940 0.861950 -0.545899
O17   O     O_R   0.084790 0.730500 0.002090 -0.501633
O18   O     O_R   0.915210 0.230500 0.997910 -0.498453
C51   C     C_R   0.045984 0.394785 0.174246 0.770236
C52   C     C_R   0.954819 0.893816 0.825534 0.794592
O19   O     O_3   0.016820 0.396170 0.955260 -0.374468
O20   O     O_3   0.983180 0.896170 0.044740 -0.380874
V3    V     V_3+5 0.996880 0.672090 0.008300 1.567778
V4    V     V_3+5 0.003120 0.172090 0.991700 1.580127
F1    F     F_    0.178764 0.568535 0.962042 -0.640761
F2    F     F_    0.808301 0.064798 0.975600 -0.605467
O21   O     O_3   0.827761 0.999608 0.735849 -0.501409
C53   C     C_3   0.820126 0.187675 0.708716 -0.113643
H11   H     H_    0.789445 0.202098 0.635053 0.100627
H12   H     H_    0.867229 0.257725 0.718727 0.107609
H13   H     H_    0.795895 0.260343 0.753581 0.179911
O22   O     O_3   0.177506 0.456449 0.253269 -0.516114
C54   C     C_3   0.191521 0.647809 0.267352 -0.114236
H14   H     H_    0.224131 0.676018 0.338809 0.113958
H15   H     H_    0.147092 0.731184 0.254198 0.111829
H16   H     H_    0.216405 0.694330 0.216918 0.187370
F3    F     F_    0.744700 0.757721 0.696846 -0.630084
F4    F     F_    0.255358 0.210268 0.308581 -0.625395
O23   O     O_3   0.523364 0.877002 0.492226 -0.509713
C55   C     C_3   0.470240 0.756245 0.478411 -0.048775
H17   H     H_    0.475625 0.621834 0.445635 0.088404
H18   H     H_    0.426009 0.827265 0.436970 0.206118
H19   H     H_    0.464121 0.724084 0.547425 0.106470
O24   O     O_3   0.480266 0.227954 0.514591 -0.498217
C56   C     C_3   0.540167 0.321120 0.537602 -0.050674
H20   H     H_    0.578622 0.227008 0.577449 0.178416
H21   H     H_    0.542060 0.452788 0.577239 0.136361
H22   H     H_    0.550742 0.356196 0.471858 0.120461
F5    F     F_    0.286715 0.630013 0.900016 -0.690538
F6    F     F_    0.703839 0.061599 0.043552 -0.650832
O25   O     O_3   0.311831 0.943915 0.094931 -0.584852
C57   C     C_3   0.345769 0.113122 0.117217 -0.072486
H23   H     H_    0.337481 0.204003 0.054803 0.132325
H24   H     H_    0.397578 0.088624 0.151314 0.167407
H25   H     H_    0.327705 0.188497 0.168407 0.229890
O26   O     O_3   0.692336 0.522012 0.942853 -0.562685
C58   C     C_3   0.658105 0.524739 0.846785 -0.060837
H26   H     H_    0.605757 0.538875 0.835076 0.128407
H27   H     H_    0.668017 0.398996 0.810362 0.127931
H28   H     H_    0.674047 0.647550 0.814908 0.245010
O27   O     O_3   0.465767 0.869698 0.296053 -0.539158
C59   C     C_3   0.436487 0.699257 0.258435 -0.197291
H29   H     H_    0.464876 0.573222 0.287594 0.113961
H30   H     H_    0.426334 0.699283 0.181968 0.146707
H31   H     H_    0.389772 0.686893 0.272535 0.183718
O28   O     O_3   0.532094 0.235628 0.715330 -0.588796
C60   C     C_3   0.536588 0.040304 0.720506 -0.166810
H32   H     H_    0.528347 0.978820 0.650546 0.234045
H33   H     H_    0.502370 0.976813 0.753365 0.133689
H34   H     H_    0.585669 0.003149 0.763649 0.194846
F7    F     F_    0.619384 0.780076 0.625042 -0.688469
F8    F     F_    0.380832 0.208250 0.378813 -0.616170
O29   O     O_3   0.973436 0.741736 0.514668 -0.547339
C61   C     C_3   0.037077 0.809453 0.544689 -0.184784
H35   H     H_    0.067528 0.717718 0.599506 0.161580
H36   H     H_    0.040254 0.956093 0.569329 0.133092
H37   H     H_    0.056469 0.805683 0.484537 0.159059
O30   O     O_3   0.029918 0.352821 0.494162 -0.547734
C62   C     C_3   0.969057 0.268621 0.457305 -0.185134
H38   H     H_    0.971241 0.137658 0.418988 0.128485
H39   H     H_    0.934709 0.368100 0.412489 0.156754
H40   H     H_    0.950650 0.231691 0.516205 0.155610

loop_
_geom_bond_atom_site_label_1
_geom_bond_atom_site_label_2
_ccdc_geom_bond_type
O23   C55   S    
C38   F8    S    
C54   H14   S    
O1    C3    A    
C50   O17   A    
O2    C4    A    
O28   C60   S    
C2    O7    A    
O12   V3    S    
C54   H16   S    
O27   C59   S    
C9    C11   D    
C13   C19   A    
O5    C3    A    
C5    C9    S    
O14   C50   A    
C6    C10   S    
C59   H30   S    
C7    C50   S    
C7    H1    S    
C10   C12   D    
C24   C28   A    
C62   H39   S    
C33   H3    S    
C43   C45   A    
O24   C56   S    
C44   C46   A    
C55   H19   S    
C60   H33   S    
C30   C42   A    
O26   C58   S    
O18   V4    S    
C15   C45   A    
C30   C32   A    
C35   C37   A    
C16   C46   A    
C36   C38   A    
C56   H20   S    
C17   C19   A    
C49   O18   A    
C60   H34   S    
O16   V4    S    
C31   C33   A    
O15   V3    S    
O6    V2    S    
C15   C47   A    
C27   C29   A    
O22   C54   S    
C28   C30   A    
C61   H37   S    
C27   C35   A    
C38   C40   A    
C57   H23   S    
C32   C34   A    
C39   C41   A    
C45   O27   S    
C40   C42   A    
C48   H6    S    
C31   H9    S    
O29   C61   S    
O20   V3    S    
C17   O29   S    
C62   H40   S    
C20   H8    S    
C9    F5    S    
C39   C43   A    
C3    C12   S    
C13   C21   A    
C6    F2    S    
C8    C49   S    
C37   C39   A    
C18   C20   A    
O4    V2    S    
C11   O25   S    
C35   F3    S    
O11   V4    S    
O16   C52   A    
C53   H12   S    
O15   C51   A    
O6    C4    A    
O19   V4    S    
O1    V2    S    
O14   V4    S    
C55   H18   S    
O2    V1    S    
C29   C31   A    
O13   V3    S    
C58   H27   S    
C28   C36   A    
C59   H31   S    
C21   O21   S    
C61   H36   S    
C8    H2    S    
C16   C48   A    
C56   H22   S    
C42   C48   A    
O4    C2    A    
O13   C49   A    
O17   V3    S    
O3    V1    S    
C19   H7    S    
C53   H13   S    
C25   C33   A    
O25   C57   S    
C40   C44   A    
C58   H28   S    
C29   C41   A    
C26   C34   A    
C21   C23   A    
C14   C51   S    
C5    F1    S    
C13   C52   S    
C12   O26   S    
C46   O28   S    
C61   H35   S    
O3    C1    A    
C57   H24   S    
C58   H26   S    
C54   H15   S    
C18   O30   S    
C43   O23   S    
C36   F4    S    
C4    C11   S    
C22   C24   A    
C60   H32   S    
C1    O8    A    
C23   C25   A    
O8    V2    S    
C62   H38   S    
C24   C26   A    
C37   F7    S    
C53   H11   S    
C56   H21   S    
O30   C62   S    
C41   C47   A    
O5    V1    S    
C5    C7    D    
C17   C25   A    
C6    C8    D    
C18   C26   A    
C47   H5    S    
C23   C27   A    
C55   H17   S    
C10   F6    S    
C32   H10   S    
C57   H25   S    
C34   H4    S    
C14   C20   A    
C22   O22   S    
C2    C15   S    
C14   C22   A    
C1    C16   S    
O9    V2    S    
O10   V1    S    
C44   O24   S    
O21   C53   S    
O12   C52   A    
O7    V1    S    
C59   H29   S    
O11   C51   A    
