data_mof_unit_21258.cif
_audit_creation_date              2012-12-10T18:33:39-0500
_audit_creation_method            fapswitch 2.2
_symmetry_space_group_name_H-M    P1
_symmetry_Int_Tables_number       1
_space_group_crystal_system       triclinic
_cell_length_a                    10.508917
_cell_length_b                    14.837181
_cell_length_c                    15.319206
_cell_angle_alpha                 81.064265
_cell_angle_beta                  90.100811
_cell_angle_gamma                 103.949848
_cell_volume                      2288.44289188

loop_
_atom_site_label
_atom_site_type_symbol
_atom_type_description
_atom_site_fract_x
_atom_site_fract_y
_atom_site_fract_z
_atom_type_partial_charge
C1    C     C_R   0.483033 0.440678 0.663105 0.895539
C2    C     C_R   0.523821 0.559095 0.337350 0.903946
C3    C     C_R   0.560247 0.453506 0.815694 0.002485
C4    C     C_R   0.516103 0.541327 0.182146 0.003782
C5    C     C_R   0.547374 0.421349 0.908474 0.044150
C6    C     C_R   0.594176 0.532745 0.110340 0.052265
C7    C     C_R   0.449895 0.337916 0.940228 0.124162
C8    C     C_R   0.717727 0.597404 0.091485 0.124426
C9    C     C_R   0.613992 0.474868 0.971748 0.085245
C10   C     C_R   0.553812 0.462411 0.056538 0.079682
C11   C     C_R   0.464150 0.376275 0.087488 -0.243352
C12   C     C_R   0.739210 0.537148 0.956030 -0.251174
C13   C     C_R   0.416671 0.313041 0.030435 -0.218475
C14   C     C_R   0.791039 0.596825 0.015758 -0.220816
C15   C     C_R   0.683379 0.833636 0.650172 0.004561
C16   C     C_R   0.273352 0.154216 0.380813 0.029979
C17   C     C_R   0.662533 0.749871 0.615707 -0.032879
C18   C     C_R   0.327021 0.247212 0.391596 -0.066608
C19   C     C_R   0.505594 0.794119 0.518717 -0.024216
C20   C     C_R   0.478323 0.201452 0.492842 -0.056359
C21   C     C_R   0.513132 0.877343 0.554650 -0.041840
C22   C     C_R   0.421788 0.105117 0.491844 -0.080839
C23   C     C_R   0.742386 0.500634 0.500113 0.891441
C24   C     C_R   0.257644 0.499599 0.499404 0.881984
C25   C     C_R   0.606630 0.898923 0.620761 0.058702
C26   C     C_R   0.318930 0.080957 0.432644 0.133337
C27   C     C_R   0.434653 0.941058 0.523483 0.037001
C28   C     C_R   0.468971 0.033107 0.544931 -0.043297
C29   C     C_R   0.544754 0.047848 0.620896 0.073240
C30   C     C_R   0.318894 0.915060 0.475831 0.018077
C31   C     C_R   0.615267 0.982789 0.656816 0.105106
C32   C     C_R   0.262420 0.984837 0.429601 0.068099
C33   C     C_3   0.932493 0.426737 0.558628 -0.214679
C34   C     C_3   0.067583 0.573979 0.440170 -0.198688
C35   C     C_3   0.044602 0.507549 0.578574 0.140045
C36   C     C_3   0.955360 0.493217 0.420206 0.142071
C37   C     C_3   0.122607 0.498927 0.498243 -0.009167
C38   C     C_3   0.877458 0.501743 0.500601 -0.010924
C39   C     C_3   0.011732 0.417901 0.476094 -0.223447
C40   C     C_3   0.988262 0.582818 0.522656 -0.212699
C41   C     C_R   0.478922 0.401477 0.757927 -0.088537
C42   C     C_R   0.574704 0.593560 0.246421 -0.075757
C43   C     C_R   0.380567 0.282498 0.881792 -0.238313
C44   C     C_R   0.768171 0.659911 0.149814 -0.240772
C45   C     C_R   0.392797 0.313843 0.790827 0.071995
C46   C     C_R   0.700205 0.655570 0.229557 0.076883
H1    H     H_    0.563237 0.225080 0.530112 0.135079
H2    H     H_    0.447056 0.777467 0.463010 0.154097
H3    H     H_    0.287565 0.303116 0.356857 0.127308
H4    H     H_    0.716224 0.697977 0.640163 0.142604
H5    H     H_    0.874451 0.368535 0.607919 0.138350
H6    H     H_    0.125407 0.632023 0.390682 0.133267
H7    H     H_    0.024445 0.352033 0.455391 0.148386
H8    H     H_    0.975334 0.648629 0.543347 0.140873
H9    H     H_    0.346141 0.247840 0.055909 0.142908
H10   H     H_    0.887921 0.643419 0.002040 0.144202
H11   H     H_    0.309352 0.217655 0.907402 0.138209
H12   H     H_    0.863877 0.708107 0.135762 0.136360
N1    N     N_R   0.574200 0.731700 0.552740 -0.114963
N2    N     N_R   0.425800 0.268300 0.447260 -0.100739
O1    O     O_R   0.462600 0.383110 0.605620 -0.599989
O2    O     O_R   0.537400 0.616890 0.394380 -0.610867
O3    O     O_R   0.510210 0.531900 0.639510 -0.586179
O4    O     O_R   0.489790 0.468100 0.360490 -0.616548
O5    O     O_R   0.662240 0.425610 0.483080 -0.628827
O6    O     O_R   0.337760 0.574390 0.516920 -0.617347
O7    O     O_R   0.709860 0.574400 0.516970 -0.623324
O8    O     O_R   0.290140 0.425600 0.483030 -0.626692
Zn1   Zn    Zn3+2 0.468210 0.400660 0.477370 0.935487
Zn2   Zn    Zn3+2 0.531790 0.599340 0.522630 0.944535
N3    N     N_3   0.098429 0.514490 0.665630 -0.469983
H13   H     H_    0.022829 0.519372 0.707513 0.169886
H14   H     H_    0.169227 0.578251 0.660384 0.200611
N4    N     N_3   0.901221 0.486688 0.333164 -0.452146
H15   H     H_    0.976467 0.481650 0.291079 0.177527
H16   H     H_    0.829882 0.423213 0.338290 0.194231
N5    N     N_3   0.781700 0.850032 0.714592 -0.496711
H17   H     H_    0.757736 0.794933 0.767965 0.181585
H18   H     H_    0.871400 0.848349 0.686263 0.180964
N6    N     N_3   0.172636 0.135862 0.318176 -0.434840
H19   H     H_    0.094989 0.162895 0.335983 0.179217
H20   H     H_    0.210447 0.172338 0.256062 0.171151
N7    N     N_3   0.533230 0.118142 0.673504 -0.436839
H21   H     H_    0.447236 0.140857 0.661555 0.208975
H22   H     H_    0.616453 0.174258 0.662665 0.184758
N8    N     N_3   0.248900 0.817946 0.484158 -0.472654
H23   H     H_    0.158026 0.808984 0.516293 0.182477
H24   H     H_    0.233555 0.799386 0.421220 0.169113
N9    N     N_3   0.375285 0.507633 0.186829 -0.485768
H25   H     H_    0.338341 0.502591 0.123914 0.198975
H26   H     H_    0.347481 0.442459 0.227690 0.184839
N10   N     N_3   0.643199 0.543300 0.778520 -0.455449
H27   H     H_    0.633380 0.596449 0.813570 0.199361
H28   H     H_    0.739671 0.538459 0.769844 0.162192
N11   N     N_3   0.760885 0.709726 0.295245 -0.425520
H29   H     H_    0.711109 0.762348 0.298132 0.187864
H30   H     H_    0.858209 0.743910 0.276175 0.173405
N12   N     N_3   0.310639 0.260191 0.732354 -0.437426
H31   H     H_    0.237946 0.295308 0.711898 0.190537
H32   H     H_    0.262518 0.193749 0.765788 0.176539
H33   H     H_    0.434113 0.355382 0.156421 0.153437
H34   H     H_    0.801902 0.536750 0.900790 0.148538
N13   N     N_3   0.690981 0.003735 0.732430 -0.440894
H35   H     H_    0.790753 0.015715 0.716013 0.205413
H36   H     H_    0.661455 0.948490 0.785129 0.210225
N14   N     N_3   0.146840 0.957544 0.380327 -0.433221
H37   H     H_    0.167201 0.919445 0.332393 0.179484
H38   H     H_    0.071022 0.915239 0.423140 0.178589

loop_
_geom_bond_atom_site_label_1
_geom_bond_atom_site_label_2
_ccdc_geom_bond_type
C25   C31   A    
C14   H10   S    
C26   C32   A    
C34   C37   S    
N11   H29   S    
C4    C42   A    
O6    Zn2   S    
N5    H17   S    
C12   H34   S    
C33   C39   S    
N4    H16   S    
C34   C40   S    
C28   C29   A    
C19   C21   A    
C29   N7    S    
C45   N12   S    
N8    H24   S    
C20   N2    A    
C15   C25   A    
N14   H37   S    
O1    Zn1   S    
O2    Zn2   S    
C42   C46   A    
C23   O7    A    
N13   H36   S    
C46   N11   S    
C44   C46   A    
O8    Zn1   S    
C7    C43   A    
N9    H26   S    
C9    C10   A    
C24   O6    A    
C21   C27   A    
C35   N3    S    
C15   N5    S    
C38   C40   S    
C32   N14   S    
C27   C30   A    
C1    O3    A    
C9    C12   A    
C2    O4    A    
N5    H18   S    
C16   C26   A    
N4    H15   S    
N6    H20   S    
C44   H12   S    
C5    C7    A    
C43   H11   S    
N8    H23   S    
C6    C8    A    
C19   N1    A    
C3    N10   S    
C16   N6    S    
C31   N13   S    
C5    C9    A    
N7    H21   S    
O3    Zn2   S    
N10   H28   S    
C24   C37   S    
C11   H33   S    
C16   C18   A    
O4    Zn1   S    
C43   C45   A    
C36   N4    S    
C17   N1    A    
C1    C41   S    
N7    H22   S    
C12   C14   A    
C40   H8    S    
C4    C6    A    
C30   N8    S    
N13   H35   S    
N3    H14   S    
C4    N9    S    
C18   N2    A    
C15   C17   A    
C21   C25   A    
C3    C41   A    
C8    C14   A    
C35   C37   S    
C19   H2    S    
C36   C39   S    
C8    C44   A    
C20   C22   A    
N6    H19   S    
C3    C5    A    
C1    O1    A    
C17   H4    S    
C6    C10   A    
N11   H30   S    
C33   H5    S    
C23   C38   S    
C34   H6    S    
C33   C38   S    
O7    Zn2   S    
C23   O5    A    
C36   C38   S    
C35   C40   S    
N3    H13   S    
C37   C39   S    
C30   C32   A    
C11   C13   A    
C39   H7    S    
N14   H38   S    
N2    Zn1   S    
C2    C42   S    
O5    Zn1   S    
N10   H27   S    
C33   C35   S    
C34   C36   S    
N12   H32   S    
C20   H1    S    
C10   C11   A    
C24   O8    A    
N1    Zn2   S    
C7    C13   A    
C29   C31   A    
N12   H31   S    
C22   C26   A    
C27   C28   A    
C41   C45   A    
C22   C28   A    
N9    H25   S    
C2    O2    A    
C18   H3    S    
C13   H9    S    
