data_mof_unit_52461.cif
_audit_creation_date              2012-12-10T20:27:12-0500
_audit_creation_method            fapswitch 2.2
_symmetry_space_group_name_H-M    P1
_symmetry_Int_Tables_number       1
_space_group_crystal_system       triclinic
_cell_length_a                    10.810958
_cell_length_b                    10.659569
_cell_length_c                    9.864623
_cell_angle_alpha                 90.030502
_cell_angle_beta                  103.946233
_cell_angle_gamma                 90.343653
_cell_volume                      1103.26828034

loop_
_atom_site_label
_atom_site_type_symbol
_atom_type_description
_atom_site_fract_x
_atom_site_fract_y
_atom_site_fract_z
_atom_type_partial_charge
C1    C     C_R   0.504530 0.259918 0.501230 0.868058
C2    C     C_R   0.565414 0.588444 0.089900 -0.234965
C3    C     C_R   0.568530 0.587120 0.946507 0.484264
C4    C     C_R   0.259020 0.503805 0.441931 0.943551
C5    C     C_R   0.443679 0.404145 0.913819 0.127873
C6    C     C_3   0.306661 0.367847 0.872510 -0.509262
C7    C     C_3   0.307084 0.366609 0.026427 -0.496955
C8    C     C_R   0.505114 0.740082 0.501409 0.875583
C9    C     C_R   0.740858 0.501669 0.558217 0.799659
C10   C     C_2   0.122575 0.517872 0.409951 -0.408651
C11   C     C_2   0.069244 0.545387 0.514633 -0.129203
C12   C     C_R   0.527290 0.128812 0.508015 -0.106540
C13   C     C_2   0.877977 0.505273 0.592044 0.314263
C14   C     C_2   0.933633 0.543423 0.491788 -0.278856
C15   C     C_R   0.527265 0.064188 0.630576 0.129643
C16   C     C_3   0.763767 0.649239 0.917531 0.157615
C17   C     C_3   0.844581 0.718950 0.044413 -0.439945
C18   C     C_3   0.986670 0.702143 0.054341 -0.900071
C19   C     C_3   0.970064 0.345083 0.736143 0.038364
C20   C     C_3   0.855811 0.270717 0.762303 -0.338640
C21   C     C_3   0.891652 0.135253 0.803200 -0.966057
C22   C     C_R   0.553682 0.065144 0.393825 -0.227440
C23   C     C_R   0.554088 0.935359 0.394010 -0.230821
C24   C     C_R   0.528078 0.871423 0.508392 -0.113767
C25   C     C_R   0.527857 0.936218 0.630920 0.164412
C26   C     C_3   0.436957 0.928467 0.723455 -0.449852
C27   C     C_3   0.436113 0.070554 0.722686 -0.515669
C28   C     C_R   0.444004 0.403892 0.056467 0.204049
H1    H     H_    0.878298 0.566186 0.387250 0.159026
H2    H     H_    0.564290 0.114300 0.301150 0.170635
H3    H     H_    0.564945 0.886233 0.301433 0.169597
H4    H     H_    0.343639 0.885841 0.670485 0.196710
H5    H     H_    0.481924 0.888605 0.827618 0.236910
H6    H     H_    0.342373 0.110385 0.668579 0.200204
H7    H     H_    0.795483 0.680272 0.823769 0.192510
H8    H     H_    0.782559 0.546267 0.928391 0.134206
H9    H     H_    0.821664 0.820603 0.036001 0.237817
H10   H     H_    0.823314 0.682169 0.141551 0.206188
H11   H     H_    0.011376 0.600946 0.060352 0.264768
H12   H     H_    0.480527 0.112601 0.826280 0.208628
H13   H     H_    0.042958 0.749770 0.149725 0.262144
H14   H     H_    0.012603 0.743916 0.961715 0.270111
H15   H     H_    0.051117 0.330527 0.827580 0.188145
H16   H     H_    0.999866 0.307140 0.643513 0.139965
H17   H     H_    0.820711 0.316152 0.847230 0.231164
H18   H     H_    0.777678 0.268833 0.665975 0.208954
H19   H     H_    0.926008 0.087629 0.719107 0.265800
H20   H     H_    0.806685 0.083825 0.819277 0.269771
H21   H     H_    0.967339 0.132387 0.901854 0.263299
H22   H     H_    0.613528 0.662340 0.157962 0.156652
H23   H     H_    0.246479 0.443216 0.813496 0.224468
H24   H     H_    0.291460 0.273536 0.823392 0.194273
H25   H     H_    0.245923 0.440371 0.055713 0.220755
H26   H     H_    0.293809 0.271231 0.066390 0.196796
H27   H     H_    0.125291 0.560503 0.620667 0.209918
H28   H     H_    0.065964 0.502967 0.304042 0.160605
N1    N     N_R   0.499160 0.499140 0.142600 -0.122924
N2    N     N_R   0.499160 0.499180 0.856960 -0.147553
O1    O     O_R   0.500020 0.316790 0.614700 -0.616081
O2    O     O_3   0.946763 0.475925 0.726069 -0.662430
O3    O     O_R   0.500000 0.316760 0.385350 -0.616483
O4    O     O_R   0.317820 0.500020 0.571850 -0.618772
O5    O     O_R   0.317800 0.499980 0.342510 -0.608185
O6    O     O_R   0.500000 0.683240 0.614650 -0.572802
O7    O     O_R   0.499980 0.683210 0.385300 -0.624794
O8    O     O_R   0.682200 0.500020 0.657490 -0.610446
O9    O     O_R   0.682180 0.499980 0.428150 -0.642047
O10   O     O_3   0.633327 0.680894 0.895417 -0.647944
Zn1   Zn    Zn3+2 0.500010 0.500020 0.653140 0.957810
Zn2   Zn    Zn3+2 0.499990 0.499980 0.346860 0.931992

loop_
_geom_bond_atom_site_label_1
_geom_bond_atom_site_label_2
_ccdc_geom_bond_type
O3    Zn2   S    
C18   H11   S    
C9    O9    A    
N2    Zn1   S    
C26   H4    S    
C6    C7    S    
C16   O10   S    
C22   H2    S    
C12   C22   A    
N1    Zn2   S    
C5    C28   A    
C10   H28   S    
C26   H5    S    
C15   C27   S    
C3    O10   S    
C7    H26   S    
C12   C15   A    
C27   H12   S    
C23   C24   A    
C21   H20   S    
O9    Zn2   S    
C19   C20   S    
C21   H21   S    
C2    C3    A    
C25   C26   S    
C2    N1    A    
C8    O7    A    
C16   H7    S    
C13   O2    S    
C17   H9    S    
C28   N1    A    
C24   C25   A    
C4    O5    A    
C26   C27   S    
C16   H8    S    
C1    C12   S    
C5    N2    A    
O1    Zn1   S    
C8    C24   S    
C19   H15   S    
C17   C18   S    
C17   H10   S    
C1    O1    A    
C27   H6    S    
C5    C6    S    
C6    H23   S    
C11   C14   S    
C15   C25   A    
O8    Zn1   S    
C10   C11   D    
C7    H25   S    
O5    Zn2   S    
C4    C10   S    
O7    Zn2   S    
C8    O6    A    
C3    N2    A    
C4    O4    A    
C11   H27   S    
C19   H16   S    
C18   H13   S    
C2    H22   S    
C9    C13   S    
C9    O8    A    
C19   O2    S    
C14   H1    S    
C18   H14   S    
C6    H24   S    
C20   C21   S    
C22   C23   A    
O6    Zn1   S    
C20   H18   S    
C7    C28   S    
C20   H17   S    
O4    Zn1   S    
C1    O3    A    
C16   C17   S    
C21   H19   S    
C13   C14   D    
C23   H3    S    
