data_mof_unit_24118.cif
_audit_creation_date              2012-12-11T15:22:34-0500
_audit_creation_method            fapswitch 2.2
_symmetry_space_group_name_H-M    P1
_symmetry_Int_Tables_number       1
_space_group_crystal_system       triclinic
_cell_length_a                    22.446297
_cell_length_b                    12.987676
_cell_length_c                    27.011354
_cell_angle_alpha                 89.892866
_cell_angle_beta                  90.700568
_cell_angle_gamma                 89.795932
_cell_volume                      7873.83827657

loop_
_atom_site_label
_atom_site_type_symbol
_atom_type_description
_atom_site_fract_x
_atom_site_fract_y
_atom_site_fract_z
_atom_type_partial_charge
Br1   Br    Br    0.827788 0.099023 0.525592 -0.281787
Br2   Br    Br    0.332724 0.724480 0.379369 -0.302057
Br3   Br    Br    0.177102 0.210851 0.614931 -0.300851
Br4   Br    Br    0.832738 0.224511 0.379361 -0.302817
Br5   Br    Br    0.166820 0.102109 0.469618 -0.303485
Br6   Br    Br    0.327825 0.598972 0.525584 -0.281846
Br7   Br    Br    0.666848 0.602203 0.469569 -0.303025
Br8   Br    Br    0.818321 0.078584 0.647795 -0.254689
Br9   Br    Br    0.175218 0.079103 0.347990 -0.278965
Br10  Br    Br    0.318318 0.578576 0.647787 -0.255846
Br11  Br    Br    0.675282 0.579156 0.347937 -0.288334
Br12  Br    Br    0.677087 0.710881 0.614937 -0.301417
C1    C     C_R   0.720800 0.345006 0.178093 0.561940
C2    C     C_R   0.479877 0.255871 0.896709 -0.167728
C3    C     C_R   0.000047 0.581887 0.552786 0.291164
C4    C     C_R   0.474763 0.166464 0.385966 0.215676
C5    C     C_R   0.495335 0.081896 0.604337 0.235735
C6    C     C_R   0.974758 0.666469 0.385962 0.215821
C7    C     C_R   0.995340 0.581902 0.604337 0.235636
C8    C     C_R   0.744025 0.946985 0.369704 0.005406
C9    C     C_R   0.258957 0.951113 0.628887 -0.015769
C10   C     C_R   0.244027 0.446979 0.369702 0.005471
C11   C     C_R   0.758966 0.451159 0.628871 -0.015881
C12   C     C_R   0.696568 0.913298 0.399588 0.291741
C13   C     C_R   0.019881 0.755528 0.102615 -0.173512
C14   C     C_R   0.308663 0.924742 0.599825 0.255488
C15   C     C_R   0.196573 0.413292 0.399588 0.291661
C16   C     C_R   0.808677 0.424810 0.599810 0.255245
C17   C     C_R   0.706334 0.900661 0.450289 0.294408
C18   C     C_R   0.302769 0.924357 0.548541 0.262005
C19   C     C_R   0.206345 0.400635 0.450288 0.294279
C20   C     C_R   0.802791 0.424454 0.548525 0.261989
C21   C     C_R   0.764524 0.907987 0.470376 0.011218
C22   C     C_R   0.245558 0.927980 0.526449 0.007792
C23   C     C_R   0.264538 0.407951 0.470371 0.011215
C24   C     C_R   0.979528 0.755704 0.896898 -0.170037
C25   C     C_R   0.745583 0.428092 0.526426 0.007716
C26   C     C_R   0.812603 0.925484 0.439143 -0.061269
C27   C     C_R   0.195137 0.934731 0.556368 -0.067423
C28   C     C_R   0.312613 0.425450 0.439134 -0.061316
C29   C     C_R   0.695158 0.434836 0.556340 -0.067440
C30   C     C_R   0.802301 0.947337 0.389363 -0.104490
C31   C     C_R   0.201898 0.950602 0.607090 -0.115817
C32   C     C_R   0.302306 0.447318 0.389356 -0.104442
C33   C     C_R   0.701911 0.450671 0.607066 -0.115539
C34   C     C_R   0.794940 0.976368 0.554246 0.227155
C35   C     C_R   0.509023 0.256866 0.051264 -0.002745
C36   C     C_R   0.209758 0.987810 0.441965 0.200679
C37   C     C_R   0.294958 0.476333 0.554239 0.227216
C38   C     C_R   0.709792 0.487899 0.441932 0.201525
C39   C     C_R   0.722037 0.349400 0.321062 0.610459
C40   C     C_R   0.278855 0.347347 0.677922 0.575359
C41   C     C_R   0.222032 0.849391 0.321068 0.621496
C42   C     C_R   0.778853 0.847351 0.677923 0.575205
C43   C     C_R   0.791091 0.967175 0.606062 0.193650
C44   C     C_R   0.210995 0.975085 0.390299 0.178872
C45   C     C_R   0.291100 0.467153 0.606055 0.193631
C46   C     C_R   0.492330 0.257198 0.947652 -0.003378
C47   C     C_R   0.711032 0.475148 0.390268 0.179456
C48   C     C_R   0.737698 0.805862 0.595335 0.135398
C49   C     C_R   0.275559 0.825071 0.401029 0.180717
C50   C     C_R   0.237712 0.305833 0.595330 0.135445
C51   C     C_R   0.775582 0.325125 0.401015 0.181884
C52   C     C_R   0.749636 0.808283 0.545498 -0.064687
C53   C     C_R   0.270316 0.834016 0.451473 -0.010309
C54   C     C_R   0.249655 0.308248 0.545493 -0.064697
C55   C     C_R   0.770347 0.334102 0.451458 -0.010463
C56   C     C_R   0.774066 0.895551 0.523967 -0.000307
C57   C     C_R   0.008156 0.756782 0.051521 -0.004529
C58   C     C_R   0.239284 0.915545 0.472606 0.007790
C59   C     C_R   0.274085 0.395514 0.523961 -0.000307
C60   C     C_R   0.739316 0.415645 0.472583 0.007573
C61   C     C_R   0.764017 0.879136 0.626996 0.005780
C62   C     C_R   0.240575 0.888784 0.369801 0.021122
C63   C     C_R   0.264024 0.379118 0.626991 0.005718
C64   C     C_R   0.740598 0.388824 0.369782 0.022468
C65   C     C_R   0.553578 0.158906 0.320996 0.638027
C66   C     C_R   0.446216 0.159373 0.678348 0.585527
C67   C     C_R   0.053575 0.658906 0.320994 0.639897
C68   C     C_R   0.991641 0.757015 0.947897 -0.008807
C69   C     C_R   0.946216 0.659373 0.678348 0.585275
C70   C     C_R   0.732279 0.000116 0.322456 0.596157
C71   C     C_R   0.268082 0.000442 0.677320 0.553925
C72   C     C_R   0.232279 0.500116 0.322456 0.597314
C73   C     C_R   0.768084 0.500452 0.677315 0.555979
C74   C     C_R   0.508779 0.068995 0.103182 0.215196
C75   C     C_R   0.496951 0.070492 0.895034 0.216846
C76   C     C_R   0.007840 0.569130 0.103549 0.215384
C77   C     C_R   0.996091 0.570182 0.895385 0.213244
C78   C     C_R   0.506146 0.068611 0.051269 0.016910
C79   C     C_R   0.505188 0.162932 0.025291 0.030372
C80   C     C_R   0.501747 0.069447 0.946906 0.018283
C81   C     C_R   0.004896 0.568586 0.051642 0.015324
C82   C     C_R   0.000535 0.569197 0.947273 0.016888
C83   C     C_R   0.505989 0.976353 0.973252 -0.117219
C84   C     C_R   0.506329 0.975840 0.024635 -0.120570
C85   C     C_R   0.004237 0.476118 0.973686 -0.122803
C86   C     C_R   0.004562 0.475741 0.025072 -0.124656
C87   C     C_R   0.499817 0.163222 0.973231 0.029774
C88   C     C_R   0.004163 0.662828 0.025600 0.028361
C89   C     C_R   0.279182 0.345089 0.821839 0.561461
C90   C     C_R   0.998826 0.663042 0.973537 0.028011
C91   C     C_R   0.504073 0.350193 0.025219 -0.105123
C92   C     C_R   0.494294 0.350293 0.973954 -0.104330
C93   C     C_R   0.002968 0.850027 0.025486 -0.083869
C94   C     C_R   0.993463 0.850108 0.974194 -0.088545
C95   C     C_R   0.736774 0.964843 0.128465 0.032363
C96   C     C_R   0.258599 0.949237 0.867103 0.035292
C97   C     C_R   0.236236 0.465573 0.128394 0.039379
C98   C     C_R   0.763373 0.464233 0.871491 0.030629
C99   C     C_R   0.792764 0.955789 0.106442 -0.076550
C100  C     C_R   0.206286 0.808748 0.172685 0.553488
C101  C     C_R   0.201684 0.916326 0.880623 -0.082508
C102  C     C_R   0.291978 0.446678 0.107444 -0.070371
C103  C     C_R   0.707384 0.454912 0.893430 -0.077424
C104  C     C_R   0.796674 0.941121 0.055430 -0.040910
C105  C     C_R   0.191837 0.881689 0.928743 -0.040908
C106  C     C_R   0.296270 0.431022 0.056505 -0.041596
C107  C     C_R   0.703443 0.440407 0.944461 -0.040001
C108  C     C_R   0.744712 0.939334 0.025875 0.067415
C109  C     C_R   0.238179 0.884620 0.964158 0.068543
C110  C     C_R   0.245156 0.438079 0.026039 0.061182
C111  C     C_R   0.779201 0.844809 0.821915 0.561718
C112  C     C_R   0.755350 0.439059 0.974089 0.067246
C113  C     C_R   0.688868 0.944497 0.048280 -0.098048
C114  C     C_R   0.295566 0.913564 0.949729 -0.089461
C115  C     C_R   0.189358 0.453543 0.047393 -0.113091
C116  C     C_R   0.811224 0.444381 0.951770 -0.096689
C117  C     C_R   0.552835 0.157067 0.177686 0.563875
C118  C     C_R   0.447540 0.156969 0.822032 0.560014
C119  C     C_R   0.052761 0.657080 0.177738 0.554449
C120  C     C_R   0.947466 0.656940 0.822090 0.559274
C121  C     C_R   0.684905 0.955761 0.099142 -0.103924
C122  C     C_R   0.478782 0.162215 0.870575 0.004560
C123  C     C_R   0.305855 0.944334 0.901416 -0.100084
C124  C     C_R   0.184844 0.465978 0.098144 -0.112888
C125  C     C_R   0.815238 0.455462 0.900893 -0.102479
C126  C     C_R   0.712311 0.852062 0.949288 -0.103257
C127  C     C_R   0.268149 0.798581 0.042203 -0.102225
C128  C     C_R   0.210193 0.356918 0.948483 -0.111318
C129  C     C_R   0.788038 0.352259 0.050928 -0.101818
C130  C     C_R   0.717026 0.830802 0.899104 0.235199
C131  C     C_R   0.263999 0.782870 0.092998 0.223462
C132  C     C_R   0.214891 0.336358 0.898151 0.233785
C133  C     C_R   0.523195 0.161577 0.128394 0.008853
C134  C     C_R   0.783317 0.331182 0.101145 0.235176
C135  C     C_R   0.792117 0.964482 0.892535 -0.118052
C136  C     C_R   0.174746 0.889304 0.093192 -0.122340
C137  C     C_R   0.295734 0.459969 0.893547 -0.118785
C138  C     C_R   0.707440 0.464555 0.107229 -0.116487
C139  C     C_R   0.785920 0.987426 0.942617 0.227005
C140  C     C_R   0.180800 0.908757 0.042808 0.226584
C141  C     C_R   0.290297 0.481242 0.943775 0.225183
C142  C     C_R   0.713667 0.487373 0.057109 0.227796
C143  C     C_R   0.747998 0.927058 0.971869 -0.011861
C144  C     C_R   0.978402 0.662035 0.870782 0.003876
C145  C     C_R   0.227374 0.861583 0.016674 -0.009393
C146  C     C_R   0.249029 0.425867 0.972076 -0.011916
C147  C     C_R   0.752001 0.427034 0.028100 -0.011989
C148  C     C_R   0.760054 0.883260 0.870626 -0.012114
C149  C     C_R   0.216371 0.827873 0.119352 -0.018177
C150  C     C_R   0.260477 0.384074 0.870576 -0.013680
C151  C     C_R   0.739890 0.383527 0.129386 -0.010319
C152  C     C_R   0.535042 0.167489 0.372536 -0.011603
C153  C     C_R   0.473902 0.170432 0.628830 -0.065648
C154  C     C_R   0.035037 0.667488 0.372533 -0.011989
C155  C     C_R   0.022747 0.661648 0.128610 0.007809
C156  C     C_R   0.973901 0.670435 0.628830 -0.065889
C157  C     C_R   0.580085 0.173848 0.409171 0.223406
C158  C     C_R   0.469226 0.264579 0.601755 0.194783
C159  C     C_R   0.080080 0.673838 0.409168 0.223125
C160  C     C_R   0.969220 0.764579 0.601753 0.194680
C161  C     C_R   0.565264 0.178725 0.459048 0.276904
C162  C     C_R   0.478163 0.265247 0.550447 0.247236
C163  C     C_R   0.065259 0.678716 0.459045 0.277019
C164  C     C_R   0.978153 0.765246 0.550444 0.247259
C165  C     C_R   0.730890 0.002948 0.179113 0.536817
C166  C     C_R   0.520401 0.255513 0.102418 -0.166271
C167  C     C_R   0.268430 0.000417 0.819854 0.535201
C168  C     C_R   0.230873 0.502853 0.179167 0.531351
C169  C     C_R   0.769127 0.502571 0.820849 0.538902
C170  C     C_R   0.505184 0.175146 0.472756 0.028278
C171  C     C_R   0.491228 0.173230 0.525815 0.010820
C172  C     C_R   0.005178 0.675146 0.472753 0.028325
C173  C     C_R   0.991224 0.673229 0.525814 0.010840
C174  C     C_R   0.459701 0.170564 0.436334 0.286035
C175  C     C_R   0.500041 0.081883 0.552786 0.291136
C176  C     C_R   0.959695 0.670575 0.436331 0.286259
Cl1   Cl    Cl    0.514792 0.957348 0.861295 -0.505431
Cl2   Cl    Cl    0.384100 0.169509 0.453829 -0.473912
Cl3   Cl    Cl    0.015746 0.465918 0.521668 -0.240161
Cl4   Cl    Cl    0.884094 0.669544 0.453823 -0.474165
Cl5   Cl    Cl    0.520927 0.972396 0.637662 -0.320025
Cl6   Cl    Cl    0.418478 0.159231 0.339897 -0.458709
Cl7   Cl    Cl    0.020940 0.472411 0.637665 -0.319815
Cl8   Cl    Cl    0.918474 0.659234 0.339892 -0.461750
Cl9   Cl    Cl    0.622491 0.188639 0.504600 -0.489573
Cl10  Cl    Cl    0.472814 0.381896 0.516575 -0.434884
Cl11  Cl    Cl    0.122487 0.688621 0.504598 -0.489814
Cl12  Cl    Cl    0.492030 0.953870 0.135856 -0.507969
Cl13  Cl    Cl    0.972797 0.881893 0.516572 -0.434937
Cl14  Cl    Cl    0.623695 0.890428 0.375974 -0.357045
Cl15  Cl    Cl    0.378635 0.889628 0.625719 -0.342461
Cl16  Cl    Cl    0.123694 0.390449 0.375980 -0.356382
Cl17  Cl    Cl    0.878644 0.389676 0.625706 -0.342101
Cl18  Cl    Cl    0.643867 0.885357 0.488745 -0.328945
Cl19  Cl    Cl    0.368269 0.927763 0.512640 -0.385162
Cl20  Cl    Cl    0.143882 0.385316 0.488748 -0.329027
Cl21  Cl    Cl    0.868295 0.427860 0.512630 -0.385402
Cl22  Cl    Cl    0.669519 0.733955 0.875786 -0.492912
Cl23  Cl    Cl    0.013888 0.456792 0.861818 -0.504667
Cl24  Cl    Cl    0.321662 0.709613 0.120558 -0.498530
Cl25  Cl    Cl    0.163930 0.246588 0.873275 -0.469868
Cl26  Cl    Cl    0.831353 0.234678 0.124815 -0.494781
Cl27  Cl    Cl    0.825630 0.093245 0.966808 -0.606721
Cl28  Cl    Cl    0.132375 0.000402 0.015517 -0.605202
Cl29  Cl    Cl    0.335944 0.578059 0.969338 -0.622901
Cl30  Cl    Cl    0.673443 0.592937 0.032553 -0.607121
Cl31  Cl    Cl    0.990918 0.454354 0.136430 -0.507657
Cl32  Cl    Cl    0.655972 0.172086 0.392980 -0.546469
Cl33  Cl    Cl    0.454211 0.384362 0.630408 -0.402950
Cl34  Cl    Cl    0.155967 0.672059 0.392977 -0.547638
Cl35  Cl    Cl    0.954203 0.884362 0.630406 -0.403142
Cl36  Cl    Cl    0.515722 0.965909 0.521665 -0.240129
Cr1   Cr    Cr6+3 0.756570 0.170940 0.251190 1.170592
Cr2   Cr    Cr6+3 0.374010 0.036240 0.749520 1.173006
Cr3   Cr    Cr6+3 0.125990 0.536240 0.250480 1.173288
Cr4   Cr    Cr6+3 0.874010 0.536240 0.749520 1.172284
Cr5   Cr    Cr6+3 0.243430 0.170940 0.748810 1.164256
Cr6   Cr    Cr6+3 0.256570 0.670940 0.251190 1.171743
Cr7   Cr    Cr6+3 0.743430 0.670940 0.748810 1.163792
Cr8   Cr    Cr6+3 0.623740 0.299110 0.249580 1.112115
Cr9   Cr    Cr6+3 0.376260 0.299110 0.750420 1.123363
Cr10  Cr    Cr6+3 0.123740 0.799110 0.249580 1.108355
Cr11  Cr    Cr6+3 0.876260 0.799110 0.750420 1.123964
Cr12  Cr    Cr6+3 0.625990 0.036240 0.250480 1.177987
H1    H     H_    0.823759 0.008219 0.871101 0.185881
H2    H     H_    0.350019 0.970577 0.891769 0.149016
H3    H     H_    0.141340 0.482405 0.113237 0.157068
H4    H     H_    0.859086 0.464119 0.885106 0.163929
H5    H     H_    0.506665 0.902693 0.954654 0.201717
H6    H     H_    0.508794 0.901903 0.043055 0.198726
H7    H     H_    0.004557 0.402405 0.955129 0.202313
H8    H     H_    0.006656 0.401832 0.043540 0.199218
H9    H     H_    0.732501 0.747483 0.522284 0.218024
H10   H     H_    0.293722 0.779379 0.474793 0.226734
H11   H     H_    0.232521 0.247445 0.522280 0.218027
H12   H     H_    0.137730 0.924907 0.112094 0.177750
H13   H     H_    0.793753 0.279474 0.474784 0.226724
H14   H     H_    0.857695 0.927561 0.453809 0.225825
H15   H     H_    0.150761 0.932506 0.540218 0.220419
H16   H     H_    0.357707 0.427520 0.453796 0.225801
H17   H     H_    0.650785 0.432621 0.540186 0.220432
H18   H     H_    0.839679 0.969367 0.366722 0.192519
H19   H     H_    0.162795 0.966319 0.628974 0.198759
H20   H     H_    0.339682 0.469346 0.366713 0.192537
H21   H     H_    0.662805 0.466375 0.628948 0.199038
H22   H     H_    0.468197 0.327170 0.877979 0.150812
H23   H     H_    0.329663 0.500120 0.872935 0.187018
H24   H     H_    0.529342 0.327190 0.121579 0.149086
H25   H     H_    0.968135 0.827051 0.878094 0.151423
H26   H     H_    0.029056 0.827210 0.121692 0.143177
H27   H     H_    0.488746 0.423169 0.954823 0.158741
H28   H     H_    0.506862 0.423028 0.044593 0.155938
H29   H     H_    0.988026 0.922982 0.955044 0.166072
H30   H     H_    0.005531 0.922844 0.044887 0.171728
H31   H     H_    0.833228 0.962952 0.128406 0.159133
H32   H     H_    0.164898 0.919261 0.854320 0.145563
H33   H     H_    0.332044 0.446673 0.130202 0.156217
H34   H     H_    0.675475 0.508180 0.128491 0.185209
H35   H     H_    0.666931 0.461847 0.871381 0.158195
H36   H     H_    0.681825 0.806919 0.971232 0.197929
H37   H     H_    0.304785 0.763568 0.022623 0.210550
H38   H     H_    0.177220 0.315787 0.969748 0.176838
H39   H     H_    0.818818 0.307139 0.029158 0.198638
H40   H     H_    0.840182 0.933060 0.038947 0.158908
H41   H     H_    0.147729 0.855990 0.938751 0.158973
H42   H     H_    0.339510 0.415336 0.040777 0.160260
H43   H     H_    0.659945 0.432192 0.960902 0.160205
H44   H     H_    0.648215 0.942637 0.026251 0.128063
H45   H     H_    0.332024 0.916540 0.976344 0.134503
H46   H     H_    0.149370 0.458837 0.024624 0.127166
H47   H     H_    0.851845 0.442833 0.973867 0.131108
H48   H     H_    0.641045 0.964197 0.114971 0.164722
O1    O     O_R   0.769900 0.064540 0.196060 -0.470023
O2    O     O_R   0.433710 0.069580 0.694600 -0.420761
O3    O     O_R   0.066290 0.569580 0.305400 -0.419005
O4    O     O_R   0.933710 0.569580 0.694600 -0.420561
O5    O     O_R   0.680760 0.993330 0.302620 -0.438943
O6    O     O_R   0.319240 0.993330 0.697380 -0.454734
O7    O     O_R   0.180760 0.493330 0.302620 -0.436848
O8    O     O_R   0.819240 0.493330 0.697380 -0.453778
O9    O     O_3   0.668770 0.168760 0.250420 -0.295836
O10   O     O_3   0.331230 0.168760 0.749580 -0.311694
O11   O     O_3   0.168770 0.668760 0.250420 -0.315295
O12   O     O_R   0.230100 0.064540 0.803940 -0.466010
O13   O     O_3   0.831230 0.668760 0.749580 -0.311692
O14   O     O_R   0.750800 0.274080 0.199250 -0.438269
O15   O     O_R   0.249200 0.274080 0.800750 -0.434537
O16   O     O_R   0.250800 0.774080 0.199250 -0.422691
O17   O     O_R   0.749200 0.774080 0.800750 -0.434284
O18   O     O_R   0.669990 0.371670 0.194150 -0.525785
O19   O     O_R   0.330010 0.371670 0.805850 -0.522992
O20   O     O_R   0.169990 0.871670 0.194150 -0.508567
O21   O     O_R   0.830010 0.871670 0.805850 -0.521512
O22   O     O_R   0.574600 0.238480 0.197800 -0.518507
O23   O     O_R   0.269900 0.564540 0.196060 -0.469581
O24   O     O_R   0.425400 0.238480 0.802200 -0.516249
O25   O     O_R   0.074600 0.738480 0.197800 -0.537419
O26   O     O_R   0.925400 0.738480 0.802200 -0.515575
O27   O     O_R   0.566130 0.068680 0.194240 -0.448452
O28   O     O_R   0.433870 0.068680 0.805760 -0.442641
O29   O     O_R   0.066130 0.568680 0.194240 -0.447148
O30   O     O_R   0.933870 0.568680 0.805760 -0.445853
O31   O     O_R   0.680610 0.992490 0.199570 -0.511217
O32   O     O_R   0.319390 0.992490 0.800430 -0.504092
O33   O     O_R   0.180610 0.492490 0.199570 -0.512251
O34   O     O_R   0.730100 0.564540 0.803940 -0.465595
O35   O     O_R   0.819390 0.492490 0.800430 -0.506498
O36   O     O_R   0.770060 0.065440 0.307230 -0.478734
O37   O     O_R   0.229940 0.065440 0.692770 -0.481866
O38   O     O_R   0.270060 0.565440 0.307230 -0.478877
O39   O     O_R   0.729940 0.565440 0.692770 -0.480928
O40   O     O_R   0.750960 0.274920 0.302300 -0.448623
O41   O     O_R   0.249040 0.274920 0.697700 -0.461497
O42   O     O_R   0.250960 0.774920 0.302300 -0.444259
O43   O     O_R   0.749040 0.774920 0.697700 -0.461981
O44   O     O_R   0.670160 0.372580 0.305320 -0.460456
O45   O     O_R   0.574760 0.239320 0.300850 -0.476534
O46   O     O_R   0.329840 0.372580 0.694680 -0.444769
O47   O     O_R   0.170160 0.872580 0.305320 -0.456014
O48   O     O_R   0.829840 0.872580 0.694680 -0.444750
O49   O     O_R   0.425240 0.239320 0.699150 -0.459105
O50   O     O_R   0.074760 0.739320 0.300850 -0.475557
O51   O     O_R   0.925240 0.739320 0.699150 -0.459204
O52   O     O_R   0.566290 0.069580 0.305400 -0.420672

loop_
_geom_bond_atom_site_label_1
_geom_bond_atom_site_label_2
_ccdc_geom_bond_type
C9    C14   A    
C74   C133  A    
C40   C63   S    
C6    C154  A    
C126  H36   S    
C138  C151  A    
C3    C173  A    
C38   C47   A    
C111  O17   A    
C107  H43   S    
Br1   C34   S    
C51   C64   A    
C30   H18   S    
C17   C21   A    
Cr3   O29   S    
C126  C130  A    
Cr11  O13   S    
C65   O52   A    
C120  O30   A    
C77   C82   A    
C104  H40   S    
C38   C60   A    
C170  C171  S    
Cr1   O36   S    
C9    C71   S    
C66   C153  S    
C34   C43   A    
C139  C143  A    
C117  C133  S    
C168  O23   A    
C23   C59   S    
C139  Cl27  S    
C67   O3    A    
C167  O12   A    
C118  C122  S    
C1    C151  S    
C141  C146  A    
C6    Cl8   S    
C16   C20   A    
C115  C124  A    
C74   C78   A    
C106  H42   S    
C57   C93   A    
C108  C113  A    
C32   H20   S    
Cr8   O18   S    
C82   C85   A    
C70   O36   A    
C108  C143  S    
C96   C101  A    
C174  Cl2   S    
Cr4   O30   S    
C86   H8    S    
Cr3   O3    S    
Cr4   O4    S    
Cr12  O52   S    
C110  C146  S    
C69   O4    A    
C33   H21   S    
C81   C88   A    
C134  Cl26  S    
C83   H5    S    
C55   H13   S    
C161  C170  A    
C10   C15   A    
C50   C63   A    
Cr4   O35   S    
C13   C57   A    
C102  H33   S    
C158  C162  A    
C3    Cl3   S    
C140  C145  A    
C94   H29   S    
C42   O43   A    
C36   C58   A    
Cr10  O50   S    
C8    C30   A    
C49   C62   A    
C21   C26   A    
C76   Cl31  S    
C48   C52   A    
C24   H25   S    
C14   Cl15  S    
C99   H31   S    
C160  Cl35  S    
Cr11  O21   S    
C13   H26   S    
C165  O1    A    
Cr7   O39   S    
C18   Cl19  S    
C100  O20   A    
C23   C28   A    
C57   C88   A    
C49   C53   A    
C157  Cl32  S    
C127  C145  A    
C175  Cl36  S    
C29   C33   A    
C137  C150  A    
C131  C149  A    
Cr1   O1    S    
C53   H10   S    
C20   Cl21  S    
C8    C70   S    
C18   C22   A    
C138  H34   S    
C85   C86   A    
C118  O28   A    
C4    C152  A    
C169  O35   A    
Br4   C51   S    
Cr2   O10   S    
Cr3   O7    S    
C52   C56   A    
C89   O15   A    
C103  H35   S    
C169  O34   A    
C53   C58   A    
C114  H45   S    
C68   C94   A    
C37   C45   A    
C172  C173  S    
C55   C60   A    
C106  C110  A    
C110  C115  A    
C73   O39   A    
C137  C141  A    
C128  C146  A    
Cr8   O9    S    
C127  C131  A    
C129  C147  A    
C98   C169  S    
Cr12  O5    S    
C141  Cl29  S    
C65   C152  S    
C119  C155  S    
C95   C165  S    
Cr8   O44   S    
C75   C122  A    
C135  C148  A    
C39   O40   A    
Cr2   O28   S    
Br5   C36   S    
C50   C54   A    
C161  Cl9   S    
C22   C27   A    
C39   C64   S    
C96   C123  A    
C11   C16   A    
Cr1   O14   S    
C104  C108  A    
C96   C167  S    
C68   C90   A    
C135  C139  A    
Cr10  O25   S    
C34   C56   A    
Cr6   O11   S    
C70   O5    A    
C66   O49   A    
Br9   C44   S    
C20   C25   A    
C163  Cl11  S    
C97   C102  A    
C101  C105  A    
C14   C18   A    
C103  C107  A    
Cr6   O42   S    
C37   C59   A    
C1    O18   A    
C25   C60   S    
C46   C92   A    
C129  H39   S    
Cr7   O17   S    
Br3   C50   S    
C73   O8    A    
Cr2   O32   S    
C95   C99   A    
Cr2   O2    S    
Br7   C38   S    
C78   C84   A    
C131  Cl24  S    
C113  H44   S    
C176  Cl4   S    
Cr10  O11   S    
C45   C63   A    
C142  C147  A    
Cr6   O23   S    
C97   C168  S    
C26   H14   S    
C120  C144  S    
C25   C29   A    
Cr5   O10   S    
C4    Cl6   S    
Cr11  O26   S    
C43   C61   A    
C28   C32   A    
Cr9   O19   S    
C157  C161  A    
C127  H37   S    
C79   C87   A    
C47   C64   A    
C66   O2    A    
C160  C164  A    
C21   C56   S    
C126  C143  A    
C11   C33   A    
C41   C62   S    
C165  O31   A    
C117  O27   A    
C164  C173  A    
C77   Cl23  S    
Cr7   O43   S    
C3    C7    A    
C100  C149  S    
C100  O16   A    
C42   O48   A    
C115  H46   S    
C89   C150  S    
C35   C166  A    
C28   H16   S    
Cr5   O41   S    
C31   H19   S    
C48   C61   A    
C170  C174  A    
C12   C17   A    
C137  H23   S    
C167  O32   A    
Cr12  O27   S    
C133  C166  A    
C91   H28   S    
C99   C104  A    
C22   C58   S    
Br2   C49   S    
C112  C116  A    
C75   C80   A    
C16   Cl17  S    
Br11  C47   S    
Br8   C43   S    
C54   H11   S    
C135  H1    S    
C2    C46   A    
C44   C62   A    
C136  C140  A    
C35   C91   A    
C2    H22   S    
C77   C144  A    
C15   C19   A    
C13   C155  A    
C65   O45   A    
Cr5   O12   S    
Cr12  O9    S    
C171  C175  A    
C42   C61   S    
C119  O25   A    
C117  O22   A    
Cr12  O31   S    
C54   C59   A    
C76   C155  A    
C39   O44   A    
C129  C134  A    
C114  C123  A    
C40   O46   A    
C24   C68   A    
C19   C23   A    
C7    C156  A    
C24   C144  A    
Cr7   O13   S    
C153  C158  A    
C10   C32   A    
C35   C79   A    
C98   C125  A    
C46   C87   A    
C128  C132  A    
C162  C171  A    
Cr9   O49   S    
C121  H48   S    
C93   C94   A    
C123  H2    S    
C101  H32   S    
C19   Cl20  S    
C95   C121  A    
C5    C153  A    
Cr8   O45   S    
C78   C79   A    
C5    C175  A    
Cr1   O9    S    
Cr6   O38   S    
C6    C176  A    
C1    O14   A    
C69   C156  S    
Cr6   O16   S    
C156  C160  A    
C27   H15   S    
C124  H3    S    
C91   C92   A    
Cr3   O33   S    
C120  O26   A    
C98   C103  A    
C163  C172  A    
C7    Cl7   S    
C29   H17   S    
C67   O50   A    
C5    Cl5   S    
C83   C84   A    
Cr7   O34   S    
C41   O47   A    
C107  C112  A    
Cr9   O10   S    
C12   Cl14  S    
C136  C149  A    
Cr1   O40   S    
C26   C30   A    
C132  Cl25  S    
C111  C148  S    
C112  C147  S    
C136  H12   S    
C128  H38   S    
C105  C109  A    
C105  H41   S    
C9    C31   A    
Cr8   O22   S    
C52   H9    S    
C8    C12   A    
C71   O37   A    
C92   H27   S    
C142  Cl30  S    
C75   Cl1   S    
Cr10  O47   S    
Cr11  O48   S    
Br6   C37   S    
C109  C145  S    
C97   C124  A    
C152  C157  A    
C71   O6    A    
Cr5   O37   S    
C168  O33   A    
C51   C55   A    
C162  Cl10  S    
C15   Cl16  S    
Br10  C45   S    
C27   C31   A    
C2    C122  A    
C93   H30   S    
C159  C163  A    
C80   C83   A    
C17   Cl18  S    
C172  C176  A    
C72   O38   A    
C10   C72   S    
C116  C125  A    
C85   H7    S    
C158  Cl33  S    
C69   O51   A    
C88   C90   A    
Cr4   O8    S    
C84   H6    S    
C102  C106  A    
C166  H24   S    
C11   C73   S    
C130  Cl22  S    
Cr9   O24   S    
C159  Cl34  S    
C140  Cl28  S    
C113  C121  A    
C36   C44   A    
C76   C81   A    
Cr10  O20   S    
C40   O41   A    
C132  C150  A    
Cr4   O13   S    
C164  Cl13  S    
C130  C148  A    
C134  C151  A    
Cr11  O51   S    
C111  O21   A    
C125  H4    S    
C109  C114  A    
C4    C174  A    
Cr9   O46   S    
C72   O7    A    
C118  O24   A    
C41   O42   A    
C119  O29   A    
Cr2   O6    S    
Cr5   O15   S    
Cr3   O11   S    
C67   C154  S    
C89   O19   A    
Br12  C48   S    
C154  C159  A    
C80   C87   A    
C138  C142  A    
C116  H47   S    
C81   C86   A    
C82   C90   A    
C74   Cl12  S    
