data_mof_unit_31401.cif
_audit_creation_date              2012-10-26T21:05:22-0400
_audit_creation_method            fapswitch 2.2
_symmetry_space_group_name_H-M    P1
_symmetry_Int_Tables_number       1
_space_group_crystal_system       triclinic
_cell_length_a                    9.653084
_cell_length_b                    10.774946
_cell_length_c                    13.875303
_cell_angle_alpha                 93.318398
_cell_angle_beta                  85.466858
_cell_angle_gamma                 90.517039
_cell_volume                      1436.24928731

loop_
_atom_site_label
_atom_site_type_symbol
_atom_type_description
_atom_site_fract_x
_atom_site_fract_y
_atom_site_fract_z
_atom_type_partial_charge
C1    C     C_R   0.500038 0.737311 0.503226 0.553412
C2    C     C_R   0.586459 0.932351 0.442518 -0.133861
C3    C     C_R   0.585329 0.060329 0.442012 -0.145429
C4    C     C_R   0.477932 0.500359 0.682631 0.556009
C5    C     C_R   0.497794 0.129588 0.509276 0.010363
C6    C     C_R   0.870055 0.337027 0.368207 -0.075831
C7    C     C_R   0.948705 0.256954 0.304148 -0.161787
C8    C     C_R   0.091514 0.256678 0.304570 -0.158962
C9    C     C_R   0.156714 0.336411 0.369115 -0.066355
C10   C     C_R   0.081068 0.420531 0.435025 0.140078
C11   C     C_R   0.931925 0.421092 0.434508 0.117415
C12   C     C_1   0.465323 0.500211 0.785660 0.029887
C13   C     C_R   0.923250 0.572694 0.565979 0.355608
C14   C     C_R   0.070348 0.573566 0.562557 0.035312
C15   C     C_R   0.499188 0.263043 0.502765 0.512382
C16   C     C_R   0.522028 0.499576 0.317355 0.525358
C17   C     C_1   0.534568 0.499184 0.214272 -0.016551
C18   C     C_2   0.557133 0.498838 0.023874 -0.111648
C19   C     C_2   0.442822 0.499812 0.975988 -0.121274
C20   C     C_1   0.454371 0.500036 0.872429 -0.023630
C21   C     C_1   0.545553 0.498944 0.127466 -0.051542
C22   C     C_R   0.336269 0.880583 0.657100 -0.073287
C23   C     C_R   0.255612 0.950016 0.728185 -0.090624
C24   C     C_R   0.253930 0.078981 0.727462 -0.114111
C25   C     C_R   0.333099 0.139369 0.655754 -0.096805
C26   C     C_R   0.414023 0.070866 0.581883 0.028218
C27   C     C_R   0.415439 0.939618 0.582500 0.032123
C28   C     C_R   0.500094 0.871652 0.510308 0.022760
Cu1   Cu    Cu3+1 0.359340 0.500010 0.500010 0.922149
Cu2   Cu    Cu3+1 0.640660 0.499990 0.499990 1.032144
H1    H     H_    0.340127 0.500542 0.014251 0.135959
H2    H     H_    0.195708 0.903628 0.784893 0.139650
H3    H     H_    0.192578 0.132641 0.783549 0.123246
H4    H     H_    0.331955 0.239753 0.660336 0.145396
H5    H     H_    0.650976 0.105558 0.387374 0.110490
H6    H     H_    0.918741 0.785418 0.781505 0.366831
H7    H     H_    0.761228 0.327436 0.363560 0.174114
H8    H     H_    0.898046 0.193684 0.254412 0.117400
H9    H     H_    0.152476 0.193360 0.255054 0.121480
H10   H     H_    0.266491 0.327282 0.365007 0.181993
H11   H     H_    0.124501 0.630502 0.614237 0.179088
H12   H     H_    0.659829 0.498159 0.985600 0.162229
H13   H     H_    0.652564 0.880080 0.388114 0.128400
H14   H     H_    0.337955 0.780996 0.662754 0.138046
N1    N     N_R   0.852210 0.498790 0.499090 -0.265295
N2    N     N_R   0.148080 0.498710 0.499060 -0.286330
O1    O     O_R   0.381190 0.680360 0.500010 -0.514100
O2    O     O_2   0.810421 0.561546 0.747545 -0.300891
O3    O     O_3   0.961204 0.756011 0.716987 -0.582590
O4    O     O_R   0.618760 0.680340 0.500000 -0.444574
O5    O     O_R   0.364420 0.499990 0.637850 -0.529519
O6    O     O_R   0.601990 0.499960 0.637840 -0.403251
O7    O     O_R   0.381240 0.319660 0.500000 -0.530121
O8    O     O_R   0.618810 0.319640 0.499990 -0.520924
O9    O     O_R   0.398010 0.500040 0.362160 -0.511495
O10   O     O_R   0.635580 0.500010 0.362150 -0.526017
O11   O     O_2   0.718634 0.726624 0.656863 -0.261057
S1    S     S_3+6 0.845793 0.654247 0.672385 0.020323

loop_
_geom_bond_atom_site_label_1
_geom_bond_atom_site_label_2
_ccdc_geom_bond_type
C10   N2    A    
C1    C28   S    
C23   C24   A    
C16   O10   A    
O2    S1    D    
C6    C7    A    
C8    H9    S    
C4    C12   S    
C18   C21   S    
C9    C10   A    
C2    H13   S    
Cu2   N1    S    
C24   H3    S    
C3    H5    S    
Cu1   N2    S    
C19   H1    S    
C23   H2    S    
C12   C20   T    
Cu1   O5    S    
C2    C3    A    
C26   C27   A    
C16   O9    A    
C7    C8    A    
C14   N2    A    
C13   C14   A    
C13   N1    A    
Cu2   O8    S    
O11   S1    D    
Cu1   Cu2   S    
Cu1   O7    S    
Cu1   O1    S    
C14   H11   S    
C15   O7    A    
C7    H8    S    
C4    O6    A    
C22   C27   A    
C18   H12   S    
Cu2   O4    S    
C17   C21   T    
C5    C15   S    
C11   N1    A    
C10   C11   A    
O3    S1    S    
C4    O5    A    
C5    C26   A    
C15   O8    A    
C6    C11   A    
C25   H4    S    
C24   C25   A    
C8    C9    A    
C18   C19   D    
C1    O4    A    
C27   C28   A    
Cu2   O6    S    
C22   C23   A    
C1    O1    A    
C2    C28   A    
C13   S1    S    
Cu1   O9    S    
C25   C26   A    
Cu2   O10   S    
C9    H10   S    
C22   H14   S    
H6    O3    S    
C19   C20   S    
C6    H7    S    
C16   C17   S    
C3    C5    A    
