data_mof_unit_63685.cif
_audit_creation_date              2012-12-10T20:25:42-0500
_audit_creation_method            fapswitch 2.2
_symmetry_space_group_name_H-M    P1
_symmetry_Int_Tables_number       1
_space_group_crystal_system       triclinic
_cell_length_a                    35.454939
_cell_length_b                    35.454939
_cell_length_c                    35.454939
_cell_angle_alpha                 89.999982
_cell_angle_beta                  89.999982
_cell_angle_gamma                 90.0
_cell_volume                      44568.7267803

loop_
_atom_site_label
_atom_site_type_symbol
_atom_type_description
_atom_site_fract_x
_atom_site_fract_y
_atom_site_fract_z
_atom_type_partial_charge
C1    C     C_R   1.000000 0.500000 0.573301 0.994552
C2    C     C_R   1.000000 0.426698 0.500000 0.994551
C3    C     C_R   1.000000 0.500000 0.426698 0.994551
C4    C     C_R   0.000000 0.573301 0.500000 0.994552
C5    C     C_R   0.500000 0.426698 0.000000 0.994551
C6    C     C_R   0.426698 0.500000 0.000000 0.994550
C7    C     C_R   0.500000 0.573301 0.000000 0.994551
C8    C     C_R   0.573301 0.500000 0.000000 0.994552
C9    C     C_R   0.426698 0.000000 0.500000 0.994551
C10   C     C_R   0.500000 1.000000 0.573301 0.994552
C11   C     C_R   0.573301 0.000000 0.500000 0.994552
C12   C     C_R   0.500000 0.000000 0.426698 0.994551
C13   C     C_R   0.500000 0.000000 0.073301 0.994552
C14   C     C_R   0.500000 0.926698 0.000000 0.994551
C15   C     C_R   0.500000 0.000000 0.926698 0.994551
C16   C     C_R   0.500000 0.073301 0.000000 0.994552
C17   C     C_R   0.000000 0.926698 0.500000 0.994551
C18   C     C_R   0.926698 0.000000 0.500000 0.994550
C19   C     C_R   0.000000 0.073301 0.500000 0.994551
C20   C     C_R   0.073301 0.000000 0.500000 0.994552
C21   C     C_R   0.926698 0.500000 0.000000 0.994551
C22   C     C_R   0.000000 0.500000 0.073301 0.994552
C23   C     C_R   0.073301 0.500000 0.000000 0.994552
C24   C     C_R   1.000000 0.500000 0.926698 0.994551
C25   C     C_R   0.027446 0.173562 0.520406 -0.157795
C26   C     C_R   0.027446 0.479594 0.173562 -0.157795
C27   C     C_R   0.027446 0.826438 0.479594 -0.157795
C28   C     C_R   0.027446 0.520406 0.826438 -0.157795
C29   C     C_R   0.972554 0.826438 0.520406 -0.157795
C30   C     C_R   0.972554 0.520406 0.173562 -0.157795
C31   C     C_R   0.972554 0.173562 0.479594 -0.157795
C32   C     C_R   0.972554 0.479594 0.826438 -0.157795
C33   C     C_R   0.173562 0.479594 0.972554 -0.157795
C34   C     C_R   0.479594 0.826438 0.972554 -0.157795
C35   C     C_R   0.826438 0.520406 0.972554 -0.157795
C36   C     C_R   0.520406 0.173562 0.972554 -0.157795
C37   C     C_R   0.826438 0.479594 0.027446 -0.157795
C38   C     C_R   0.520406 0.826438 0.027446 -0.157794
C39   C     C_R   0.173562 0.520406 0.027446 -0.157795
C40   C     C_R   0.479594 0.173562 0.027446 -0.157795
C41   C     C_R   0.479594 0.027446 0.826438 -0.157795
C42   C     C_R   0.826438 0.027446 0.520406 -0.157795
C43   C     C_R   0.520406 0.027446 0.173562 -0.157795
C44   C     C_R   0.173562 0.027446 0.479594 -0.157796
C45   C     C_R   0.479594 0.972554 0.173562 -0.157796
C46   C     C_R   0.826438 0.972554 0.479594 -0.157795
C47   C     C_R   0.520406 0.972554 0.826438 -0.157795
C48   C     C_R   0.173562 0.972554 0.520406 -0.157795
C49   C     C_R   0.527446 0.673562 0.020406 -0.157795
C50   C     C_R   0.527446 0.979594 0.673562 -0.157795
C51   C     C_R   0.527446 0.326438 0.979594 -0.157795
C52   C     C_R   0.527446 0.020406 0.326438 -0.157795
C53   C     C_R   0.472554 0.326438 0.020406 -0.157795
C54   C     C_R   0.472554 0.020406 0.673562 -0.157795
C55   C     C_R   0.472554 0.673562 0.979594 -0.157795
C56   C     C_R   0.472554 0.979594 0.326438 -0.157795
C57   C     C_R   0.673562 0.979594 0.472554 -0.157795
C58   C     C_R   0.979594 0.326438 0.472554 -0.157795
C59   C     C_R   0.326438 0.020406 0.472554 -0.157795
C60   C     C_R   0.020406 0.673562 0.472554 -0.157795
C61   C     C_R   0.326438 0.979594 0.527446 -0.157795
C62   C     C_R   0.020406 0.326438 0.527446 -0.157794
C63   C     C_R   0.673562 0.020406 0.527446 -0.157795
C64   C     C_R   0.979594 0.673562 0.527446 -0.157795
C65   C     C_R   0.979594 0.527446 0.326438 -0.157795
C66   C     C_R   0.326438 0.527446 0.020406 -0.157795
C67   C     C_R   0.020406 0.527446 0.673562 -0.157795
C68   C     C_R   0.673562 0.527446 0.979594 -0.157796
C69   C     C_R   0.979594 0.472554 0.673562 -0.157796
C70   C     C_R   0.326438 0.472554 0.979594 -0.157795
C71   C     C_R   0.020406 0.472554 0.326438 -0.157795
C72   C     C_R   0.673562 0.472554 0.020406 -0.157795
C73   C     C_R   0.027629 0.134280 0.520559 0.360654
C74   C     C_R   0.027629 0.479440 0.134280 0.360655
C75   C     C_R   0.027629 0.865720 0.479440 0.360655
C76   C     C_R   0.027629 0.520559 0.865720 0.360655
C77   C     C_R   0.972371 0.865720 0.520559 0.360655
C78   C     C_R   0.972371 0.520559 0.134280 0.360654
C79   C     C_R   0.972371 0.134280 0.479440 0.360654
C80   C     C_R   0.972371 0.479441 0.865720 0.360655
C81   C     C_R   0.134280 0.479440 0.972371 0.360655
C82   C     C_R   0.479440 0.865720 0.972371 0.360655
C83   C     C_R   0.865720 0.520559 0.972371 0.360655
C84   C     C_R   0.520559 0.134280 0.972371 0.360654
C85   C     C_R   0.865720 0.479440 0.027629 0.360654
C86   C     C_R   0.520560 0.865720 0.027629 0.360655
C87   C     C_R   0.134280 0.520559 0.027629 0.360655
C88   C     C_R   0.479440 0.134280 0.027629 0.360655
C89   C     C_R   0.479440 0.027629 0.865720 0.360655
C90   C     C_R   0.865720 0.027629 0.520559 0.360654
C91   C     C_R   0.520559 0.027629 0.134280 0.360655
C92   C     C_R   0.134280 0.027629 0.479440 0.360655
C93   C     C_R   0.479441 0.972371 0.134280 0.360655
C94   C     C_R   0.865720 0.972371 0.479440 0.360655
C95   C     C_R   0.520559 0.972371 0.865720 0.360654
C96   C     C_R   0.134280 0.972371 0.520559 0.360654
C97   C     C_R   0.527629 0.634280 0.020559 0.360654
C98   C     C_R   0.527629 0.979441 0.634280 0.360655
C99   C     C_R   0.527629 0.365720 0.979441 0.360655
C100  C     C_R   0.527629 0.020559 0.365720 0.360655
C101  C     C_R   0.472371 0.365720 0.020560 0.360655
C102  C     C_R   0.472371 0.020559 0.634280 0.360654
C103  C     C_R   0.472371 0.634280 0.979440 0.360654
C104  C     C_R   0.472371 0.979441 0.365720 0.360655
C105  C     C_R   0.634280 0.979440 0.472371 0.360655
C106  C     C_R   0.979440 0.365720 0.472371 0.360655
C107  C     C_R   0.365720 0.020560 0.472371 0.360655
C108  C     C_R   0.020560 0.634280 0.472371 0.360654
C109  C     C_R   0.365720 0.979440 0.527629 0.360654
C110  C     C_R   0.020560 0.365720 0.527629 0.360655
C111  C     C_R   0.634280 0.020560 0.527629 0.360655
C112  C     C_R   0.979440 0.634280 0.527629 0.360655
C113  C     C_R   0.979440 0.527629 0.365720 0.360655
C114  C     C_R   0.365720 0.527629 0.020560 0.360654
C115  C     C_R   0.020559 0.527629 0.634280 0.360654
C116  C     C_R   0.634280 0.527629 0.979440 0.360655
C117  C     C_R   0.979441 0.472371 0.634280 0.360655
C118  C     C_R   0.365720 0.472371 0.979441 0.360655
C119  C     C_R   0.020559 0.472371 0.365720 0.360654
C120  C     C_R   0.634280 0.472371 0.020559 0.360654
C121  C     C_R   0.000000 0.114401 0.500000 -0.215295
C122  C     C_R   0.000000 0.500000 0.114401 -0.215295
C123  C     C_R   0.000000 0.885599 0.500000 -0.215295
C124  C     C_R   1.000000 0.500000 0.885599 -0.215295
C125  C     C_R   0.114401 0.500000 0.000000 -0.215295
C126  C     C_R   0.500000 0.885599 1.000000 -0.215296
C127  C     C_R   0.885599 0.500000 0.000000 -0.215296
C128  C     C_R   0.500000 0.114401 0.000000 -0.215295
C129  C     C_R   0.500000 0.000000 0.885599 -0.215295
C130  C     C_R   0.885599 0.000000 0.500000 -0.215295
C131  C     C_R   0.500000 1.000000 0.114401 -0.215295
C132  C     C_R   0.114401 0.000000 0.500000 -0.215295
C133  C     C_R   0.500000 0.614401 1.000000 -0.215295
C134  C     C_R   0.500000 1.000000 0.614401 -0.215295
C135  C     C_R   0.500000 0.385599 0.000000 -0.215295
C136  C     C_R   0.500000 0.000000 0.385599 -0.215295
C137  C     C_R   0.614401 0.000000 0.500000 -0.215295
C138  C     C_R   1.000000 0.385599 0.500000 -0.215296
C139  C     C_R   0.385599 0.000000 0.500000 -0.215296
C140  C     C_R   0.000000 0.614401 0.500000 -0.215295
C141  C     C_R   0.000000 0.500000 0.385599 -0.215295
C142  C     C_R   0.385599 0.500000 0.000000 -0.215295
C143  C     C_R   1.000000 0.500000 0.614401 -0.215295
C144  C     C_R   0.614401 0.500000 1.000000 -0.215295
C145  C     C_R   0.000000 0.193016 0.500000 -0.009543
C146  C     C_R   0.000000 0.500000 0.193016 -0.009543
C147  C     C_R   0.000000 0.806984 0.500000 -0.009543
C148  C     C_R   1.000000 0.500000 0.806984 -0.009543
C149  C     C_R   0.193016 0.500000 0.000000 -0.009543
C150  C     C_R   0.500000 0.806984 1.000000 -0.009543
C151  C     C_R   0.806984 0.500000 1.000000 -0.009543
C152  C     C_R   0.500000 0.193016 0.000000 -0.009543
C153  C     C_R   0.500000 1.000000 0.806984 -0.009543
C154  C     C_R   0.806984 1.000000 0.500000 -0.009543
C155  C     C_R   0.500000 0.000000 0.193016 -0.009543
C156  C     C_R   0.193016 1.000000 0.500000 -0.009543
C157  C     C_R   0.500000 0.693016 1.000000 -0.009543
C158  C     C_R   0.500000 1.000000 0.693016 -0.009543
C159  C     C_R   0.500000 0.306984 0.000000 -0.009543
C160  C     C_R   0.500000 0.000000 0.306984 -0.009543
C161  C     C_R   0.693016 1.000000 0.500000 -0.009543
C162  C     C_R   1.000000 0.306984 0.500000 -0.009543
C163  C     C_R   0.306984 1.000000 0.500000 -0.009543
C164  C     C_R   0.000000 0.693016 0.500000 -0.009543
C165  C     C_R   0.000000 0.500000 0.306984 -0.009543
C166  C     C_R   0.306984 0.500000 0.000000 -0.009543
C167  C     C_R   1.000000 0.500000 0.693016 -0.009543
C168  C     C_R   0.693016 0.500000 1.000000 -0.009543
C169  C     C_1   1.000000 0.233140 0.500000 0.040657
C170  C     C_1   0.000000 0.500000 0.233140 0.040657
C171  C     C_1   0.000000 0.766860 0.500000 0.040657
C172  C     C_1   1.000000 0.500000 0.766860 0.040657
C173  C     C_1   0.233140 0.500000 0.000000 0.040657
C174  C     C_1   0.500000 0.766860 1.000000 0.040657
C175  C     C_1   0.766860 0.500000 1.000000 0.040657
C176  C     C_1   0.500000 0.233140 0.000000 0.040657
C177  C     C_1   0.500000 1.000000 0.766860 0.040657
C178  C     C_1   0.766860 0.000000 0.500000 0.040657
C179  C     C_1   0.500000 0.000000 0.233140 0.040657
C180  C     C_1   0.233140 1.000000 0.500000 0.040657
C181  C     C_1   0.500000 0.733140 1.000000 0.040657
C182  C     C_1   0.500000 1.000000 0.733140 0.040657
C183  C     C_1   0.500000 0.266860 0.000000 0.040657
C184  C     C_1   0.500000 0.000000 0.266860 0.040657
C185  C     C_1   0.733140 0.000000 0.500000 0.040657
C186  C     C_1   1.000000 0.266860 0.500000 0.040657
C187  C     C_1   0.266860 1.000000 0.500000 0.040657
C188  C     C_1   0.000000 0.733140 0.500000 0.040657
C189  C     C_1   0.000000 0.500000 0.266860 0.040657
C190  C     C_1   0.266860 0.500000 0.000000 0.040657
C191  C     C_1   1.000000 0.500000 0.733140 0.040657
C192  C     C_1   0.733140 0.500000 1.000000 0.040657
H1    H     H_    0.048791 0.188905 0.536022 0.192599
H2    H     H_    0.048791 0.463978 0.188905 0.192599
H3    H     H_    0.048791 0.811095 0.463978 0.192599
H4    H     H_    0.048791 0.536022 0.811095 0.192599
H5    H     H_    0.951209 0.811095 0.536022 0.192599
H6    H     H_    0.951209 0.536022 0.188905 0.192599
H7    H     H_    0.951209 0.188905 0.463978 0.192599
H8    H     H_    0.951209 0.463978 0.811095 0.192599
H9    H     H_    0.188905 0.463978 0.951209 0.192599
H10   H     H_    0.463978 0.811095 0.951209 0.192599
H11   H     H_    0.811095 0.536022 0.951209 0.192599
H12   H     H_    0.536022 0.188905 0.951209 0.192599
H13   H     H_    0.811095 0.463978 0.048791 0.192599
H14   H     H_    0.536022 0.811095 0.048791 0.192599
H15   H     H_    0.188905 0.536022 0.048791 0.192599
H16   H     H_    0.463978 0.188905 0.048791 0.192599
H17   H     H_    0.463978 0.048791 0.811095 0.192599
H18   H     H_    0.811095 0.048791 0.536022 0.192599
H19   H     H_    0.536022 0.048791 0.188905 0.192599
H20   H     H_    0.188905 0.048791 0.463978 0.192599
H21   H     H_    0.463978 0.951209 0.188905 0.192599
H22   H     H_    0.811095 0.951209 0.463978 0.192599
H23   H     H_    0.536022 0.951209 0.811095 0.192599
H24   H     H_    0.188905 0.951209 0.536022 0.192599
H25   H     H_    0.548791 0.688905 0.036022 0.192599
H26   H     H_    0.548791 0.963978 0.688905 0.192599
H27   H     H_    0.548791 0.311095 0.963978 0.192599
H28   H     H_    0.548791 0.036022 0.311095 0.192599
H29   H     H_    0.451209 0.311095 0.036022 0.192599
H30   H     H_    0.451209 0.036022 0.688905 0.192599
H31   H     H_    0.451209 0.688905 0.963978 0.192599
H32   H     H_    0.451209 0.963978 0.311095 0.192599
H33   H     H_    0.688905 0.963978 0.451209 0.192599
H34   H     H_    0.963978 0.311095 0.451209 0.192599
H35   H     H_    0.311095 0.036022 0.451209 0.192599
H36   H     H_    0.036022 0.688905 0.451209 0.192599
H37   H     H_    0.311095 0.963978 0.548791 0.192599
H38   H     H_    0.036022 0.311095 0.548791 0.192599
H39   H     H_    0.688905 0.036022 0.548791 0.192599
H40   H     H_    0.963978 0.688905 0.548791 0.192599
H41   H     H_    0.963978 0.548791 0.311095 0.192599
H42   H     H_    0.311095 0.548791 0.036022 0.192599
H43   H     H_    0.036021 0.548791 0.688905 0.192599
H44   H     H_    0.688905 0.548791 0.963978 0.192599
H45   H     H_    0.963978 0.451209 0.688905 0.192599
H46   H     H_    0.311095 0.451209 0.963978 0.192599
H47   H     H_    0.036022 0.451209 0.311095 0.192599
H48   H     H_    0.688905 0.451209 0.036022 0.192599
O1    O     O_R   0.968750 0.500050 0.555400 -0.580046
O2    O     O_R   0.968750 0.444600 0.500050 -0.580045
O3    O     O_R   0.968750 0.499950 0.444600 -0.580045
O4    O     O_R   0.968750 0.555400 0.499950 -0.580046
O5    O     O_R   0.031250 0.499950 0.555400 -0.580046
O6    O     O_R   0.031250 0.555400 0.500050 -0.580046
O7    O     O_R   0.031250 0.500050 0.444600 -0.580045
O8    O     O_R   0.031250 0.444600 0.499950 -0.580045
O9    O     O_R   0.500050 0.444600 0.031250 -0.580045
O10   O     O_R   0.444600 0.499950 0.031250 -0.580045
O11   O     O_R   0.499950 0.555400 0.031250 -0.580046
O12   O     O_R   0.555400 0.500050 0.031250 -0.580046
O13   O     O_R   0.499950 0.444600 0.968750 -0.580045
O14   O     O_R   0.555400 0.499950 0.968750 -0.580046
O15   O     O_R   0.500050 0.555400 0.968750 -0.580046
O16   O     O_R   0.444600 0.500050 0.968750 -0.580045
O17   O     O_R   0.444600 0.968750 0.499950 -0.580045
O18   O     O_R   0.499950 0.968750 0.555400 -0.580046
O19   O     O_R   0.555400 0.968750 0.500050 -0.580046
O20   O     O_R   0.500050 0.968750 0.444600 -0.580045
O21   O     O_R   0.444600 0.031250 0.500050 -0.580045
O22   O     O_R   0.499950 0.031250 0.444600 -0.580045
O23   O     O_R   0.555400 0.031250 0.499950 -0.580046
O24   O     O_R   0.500050 0.031250 0.555400 -0.580046
O25   O     O_R   0.468750 0.000050 0.055400 -0.580046
O26   O     O_R   0.468750 0.944600 0.000050 -0.580045
O27   O     O_R   0.468750 0.999950 0.944600 -0.580045
O28   O     O_R   0.468750 0.055400 0.999950 -0.580046
O29   O     O_R   0.531250 0.999950 0.055400 -0.580046
O30   O     O_R   0.531250 0.055400 0.000050 -0.580046
O31   O     O_R   0.531250 0.000050 0.944600 -0.580045
O32   O     O_R   0.531250 0.944600 0.999950 -0.580045
O33   O     O_R   0.000050 0.944600 0.531250 -0.580045
O34   O     O_R   0.944600 0.999950 0.531250 -0.580045
O35   O     O_R   0.999950 0.055400 0.531250 -0.580046
O36   O     O_R   0.055400 0.000050 0.531250 -0.580046
O37   O     O_R   0.999950 0.944600 0.468750 -0.580045
O38   O     O_R   0.055400 0.999950 0.468750 -0.580046
O39   O     O_R   0.000050 0.055400 0.468750 -0.580046
O40   O     O_R   0.944600 0.000050 0.468750 -0.580045
O41   O     O_R   0.944600 0.468750 0.999950 -0.580045
O42   O     O_R   0.999950 0.468750 0.055400 -0.580046
O43   O     O_R   0.055400 0.468750 0.000050 -0.580046
O44   O     O_R   0.000050 0.468750 0.944600 -0.580045
O45   O     O_R   0.944600 0.531250 0.000050 -0.580045
O46   O     O_R   0.999950 0.531250 0.944600 -0.580045
O47   O     O_R   0.055400 0.531250 0.999950 -0.580046
O48   O     O_R   0.000050 0.531250 0.055400 -0.580046
Zn1   Zn    Zn3+2 0.958250 0.500000 0.500000 1.169048
Zn2   Zn    Zn3+2 0.041750 0.500000 0.500000 1.169048
Zn3   Zn    Zn3+2 0.500000 0.500000 0.041750 1.169048
Zn4   Zn    Zn3+2 0.500000 0.500000 0.958250 1.169048
Zn5   Zn    Zn3+2 0.500000 0.958250 0.500000 1.169048
Zn6   Zn    Zn3+2 0.500000 0.041750 0.500000 1.169048
Zn7   Zn    Zn3+2 0.458250 0.000000 0.000000 1.169048
Zn8   Zn    Zn3+2 0.541750 0.000000 0.000000 1.169048
Zn9   Zn    Zn3+2 0.000000 0.000000 0.541750 1.169048
Zn10  Zn    Zn3+2 0.000000 0.000000 0.458250 1.169048
Zn11  Zn    Zn3+2 0.000000 0.458250 0.000000 1.169048
Zn12  Zn    Zn3+2 1.000000 0.541750 0.000000 1.169048
Cl1   Cl    Cl    0.063809 0.111008 0.545499 -0.512860
Cl2   Cl    Cl    0.063809 0.454501 0.111007 -0.512860
Cl3   Cl    Cl    0.063809 0.888992 0.454501 -0.512860
Cl4   Cl    Cl    0.063810 0.545499 0.888992 -0.512861
Cl5   Cl    Cl    0.936191 0.888992 0.545499 -0.512860
Cl6   Cl    Cl    0.936191 0.545499 0.111008 -0.512860
Cl7   Cl    Cl    0.936191 0.111008 0.454500 -0.512860
Cl8   Cl    Cl    0.936190 0.454501 0.888992 -0.512860
Cl9   Cl    Cl    0.111008 0.454500 0.936191 -0.512860
Cl10  Cl    Cl    0.454500 0.888992 0.936191 -0.512860
Cl11  Cl    Cl    0.888992 0.545499 0.936191 -0.512860
Cl12  Cl    Cl    0.545499 0.111008 0.936191 -0.512860
Cl13  Cl    Cl    0.888992 0.454501 0.063809 -0.512860
Cl14  Cl    Cl    0.545499 0.888992 0.063809 -0.512860
Cl15  Cl    Cl    0.111008 0.545499 0.063809 -0.512860
Cl16  Cl    Cl    0.454501 0.111007 0.063809 -0.512859
Cl17  Cl    Cl    0.454501 0.063809 0.888992 -0.512860
Cl18  Cl    Cl    0.888992 0.063809 0.545499 -0.512860
Cl19  Cl    Cl    0.545499 0.063810 0.111007 -0.512860
Cl20  Cl    Cl    0.111008 0.063809 0.454500 -0.512860
Cl21  Cl    Cl    0.454501 0.936190 0.111008 -0.512861
Cl22  Cl    Cl    0.888992 0.936191 0.454501 -0.512860
Cl23  Cl    Cl    0.545499 0.936191 0.888992 -0.512860
Cl24  Cl    Cl    0.111007 0.936191 0.545499 -0.512860
Cl25  Cl    Cl    0.563809 0.611008 0.045499 -0.512860
Cl26  Cl    Cl    0.563809 0.954501 0.611008 -0.512860
Cl27  Cl    Cl    0.563809 0.388992 0.954501 -0.512860
Cl28  Cl    Cl    0.563809 0.045499 0.388992 -0.512861
Cl29  Cl    Cl    0.436191 0.388992 0.045499 -0.512860
Cl30  Cl    Cl    0.436191 0.045499 0.611008 -0.512860
Cl31  Cl    Cl    0.436191 0.611008 0.954501 -0.512860
Cl32  Cl    Cl    0.436190 0.954501 0.388992 -0.512860
Cl33  Cl    Cl    0.611008 0.954500 0.436191 -0.512860
Cl34  Cl    Cl    0.954500 0.388992 0.436191 -0.512860
Cl35  Cl    Cl    0.388992 0.045499 0.436191 -0.512860
Cl36  Cl    Cl    0.045499 0.611008 0.436191 -0.512860
Cl37  Cl    Cl    0.388992 0.954500 0.563809 -0.512860
Cl38  Cl    Cl    0.045499 0.388992 0.563809 -0.512860
Cl39  Cl    Cl    0.611007 0.045499 0.563809 -0.512860
Cl40  Cl    Cl    0.954500 0.611007 0.563809 -0.512859
Cl41  Cl    Cl    0.954501 0.563809 0.388992 -0.512860
Cl42  Cl    Cl    0.388992 0.563809 0.045499 -0.512860
Cl43  Cl    Cl    0.045499 0.563810 0.611008 -0.512860
Cl44  Cl    Cl    0.611008 0.563809 0.954501 -0.512860
Cl45  Cl    Cl    0.954501 0.436190 0.611008 -0.512861
Cl46  Cl    Cl    0.388992 0.436191 0.954501 -0.512860
Cl47  Cl    Cl    0.045499 0.436191 0.388992 -0.512860
Cl48  Cl    Cl    0.611008 0.436191 0.045499 -0.512860

loop_
_geom_bond_atom_site_label_1
_geom_bond_atom_site_label_2
_ccdc_geom_bond_type
C106  Cl34  S    
C40   H16   S    
C95   C129  A    
O30   Zn8   S    
O11   Zn3   S    
C120  C144  A    
C39   C87   A    
C64   C164  A    
O36   Zn9   S    
C119  Cl47  S    
C79   C121  A    
O39   Zn10  S    
C66   H42   S    
C7    C133  S    
C64   C112  A    
C91   C131  A    
C53   H29   S    
C177  C182  T    
C89   C129  A    
C21   O41   A    
C45   H21   S    
C86   Cl14  S    
C43   H19   S    
C114  Cl42  S    
C58   H34   S    
C20   C132  S    
C27   C75   A    
C22   C122  S    
C24   O46   A    
C111  Cl39  S    
C53   C159  A    
O47   Zn12  S    
C6    O10   A    
C2    C138  S    
C110  C138  A    
O2    Zn1   S    
C47   C153  A    
C49   H25   S    
O26   Zn7   S    
C11   O19   A    
C118  Cl46  S    
C20   O36   A    
C180  C187  T    
C32   C80   A    
O48   Zn12  S    
C12   O22   A    
C110  Cl38  S    
C68   C116  A    
C73   C121  A    
C119  C141  A    
C103  Cl31  S    
C18   C130  S    
C75   Cl3   S    
C26   H2    S    
C97   Cl25  S    
C76   Cl4   S    
C111  C137  A    
C56   H32   S    
C67   C167  A    
C63   C161  A    
C87   Cl15  S    
C48   C96   A    
C65   C113  A    
C164  C188  S    
C14   C126  S    
C17   O33   A    
C167  C191  S    
C92   C132  A    
O44   Zn11  S    
C168  C192  S    
C71   C119  A    
O12   Zn3   S    
C40   C88   A    
C1    O5    A    
C3    O7    A    
O38   Zn10  S    
O7    Zn2   S    
O23   Zn6   S    
C63   C111  A    
O1    Zn1   S    
C31   C145  A    
O43   Zn11  S    
O4    Zn1   S    
C57   C161  A    
C33   C149  A    
C58   C106  A    
C52   C160  A    
C93   Cl21  S    
C105  Cl33  S    
O35   Zn9   S    
C84   C128  A    
C41   C89   A    
C86   C126  A    
C156  C180  S    
C112  C140  A    
C3    C141  S    
C97   C133  A    
C45   C93   A    
C50   C158  A    
C94   C130  A    
C38   C86   A    
C42   C154  A    
C20   O38   A    
C4    C140  S    
C98   Cl26  S    
O9    Zn3   S    
C40   C152  A    
C5    O13   A    
C26   C146  A    
C2    O8    A    
C116  C144  A    
C92   Cl20  S    
C62   H38   S    
C57   H33   S    
C72   C168  A    
C49   C157  A    
O42   Zn11  S    
C41   C153  A    
C101  C135  A    
C153  C177  S    
C50   C98   A    
C44   C156  A    
C22   O42   A    
O34   Zn9   S    
C175  C192  T    
C36   C152  A    
C51   H27   S    
C94   Cl22  S    
C49   C97   A    
C52   C100  A    
C59   C107  A    
C7    O11   A    
C60   H36   S    
C13   O29   A    
C16   C128  S    
C165  C189  S    
C46   C94   A    
C72   C120  A    
O27   Zn7   S    
C2    O2    A    
C22   O48   A    
C68   C168  A    
C30   H6    S    
O45   Zn12  S    
C73   Cl1   S    
C8    O12   A    
C63   H39   S    
C179  C184  T    
C5    C135  S    
C19   C121  S    
C104  C136  A    
C81   C125  A    
C37   H13   S    
C83   C127  A    
C44   C92   A    
C16   O30   A    
C113  Cl41  S    
C39   C149  A    
C116  Cl44  S    
O18   Zn5   S    
O6    Zn2   S    
C70   C118  A    
C28   H4    S    
C113  C141  A    
C25   C73   A    
C107  C139  A    
O40   Zn10  S    
O33   Zn9   S    
C59   C163  A    
C83   Cl11  S    
O37   Zn10  S    
C29   C77   A    
C12   C136  S    
C70   H46   S    
C4    O4    A    
C17   O37   A    
C100  C136  A    
C18   O34   A    
C19   O39   A    
O3    Zn1   S    
C9    O17   A    
C33   H9    S    
C107  Cl35  S    
C87   C125  A    
C31   H7    S    
C34   C150  A    
C170  C189  T    
C157  C181  S    
C171  C188  T    
C65   H41   S    
C169  C186  T    
C15   O27   A    
C85   Cl13  S    
C14   O32   A    
C65   C165  A    
C173  C190  T    
O25   Zn7   S    
C89   Cl17  S    
C82   C126  A    
C161  C185  S    
C26   C74   A    
C91   Cl19  S    
C77   Cl5   S    
C53   C101  A    
C47   H23   S    
C61   H37   S    
O22   Zn6   S    
C6    C142  S    
C59   H35   S    
C60   C108  A    
C81   Cl9   S    
C48   C156  A    
C115  Cl43  S    
C35   C151  A    
C43   C155  A    
C112  Cl40  S    
C155  C179  S    
C46   C154  A    
C145  C169  S    
C28   C148  A    
C151  C175  S    
C5    O9    A    
C56   C104  A    
C166  C190  S    
C84   Cl12  S    
C64   H40   S    
C35   C83   A    
C120  Cl48  S    
C71   H47   S    
C69   C167  A    
C117  Cl45  S    
C77   C123  A    
C15   C129  S    
C13   C131  S    
C99   C135  A    
C4    O6    A    
O32   Zn8   S    
C18   O40   A    
C74   C122  A    
C23   O43   A    
C154  C178  S    
O13   Zn4   S    
C27   H3    S    
C28   C76   A    
C25   H1    S    
C55   H31   S    
C80   C124  A    
C66   C114  A    
C7    O15   A    
C54   C102  A    
C13   O25   A    
C29   C147  A    
C32   C148  A    
O5    Zn2   S    
C108  Cl36  S    
O17   Zn5   S    
C11   C137  S    
C32   H8    S    
C9    C139  S    
C62   C162  A    
C74   Cl2   S    
C106  C138  A    
C76   C124  A    
C90   C130  A    
C55   C157  A    
O19   Zn5   S    
C88   C128  A    
O24   Zn6   S    
C93   C131  A    
C21   O45   A    
C23   O47   A    
C176  C183  T    
C57   C105  A    
C48   H24   S    
C24   C124  S    
C61   C109  A    
O41   Zn11  S    
C101  Cl29  S    
C99   Cl27  S    
C67   H43   S    
C75   C123  A    
C114  C142  A    
C37   C85   A    
C117  C143  A    
C34   H10   S    
C70   C166  A    
C54   H30   S    
C55   C103  A    
C88   Cl16  S    
C163  C187  S    
C51   C159  A    
C67   C115  A    
O29   Zn8   S    
C68   H44   S    
C60   C164  A    
C178  C185  T    
C17   C123  S    
C19   O35   A    
C24   O44   A    
C46   H22   S    
C39   H15   S    
C42   C90   A    
C72   H48   S    
C45   C155  A    
C11   O23   A    
C21   C127  S    
C23   C125  S    
C41   H17   S    
O21   Zn6   S    
O46   Zn12  S    
C37   C151  A    
C15   O31   A    
C104  Cl32  S    
C174  C181  T    
C147  C171  S    
C30   C146  A    
C172  C191  T    
C51   C99   A    
C115  C143  A    
C52   H28   S    
C66   C166  A    
C6    O16   A    
C90   Cl18  S    
C108  C140  A    
C95   Cl23  S    
C78   Cl6   S    
C105  C137  A    
C50   H26   S    
C43   C91   A    
O10   Zn3   S    
C9    O21   A    
C44   H20   S    
C30   C78   A    
C102  C134  A    
O15   Zn4   S    
C1    C143  S    
C36   H12   S    
C54   C158  A    
C82   Cl10  S    
C162  C186  S    
C62   C110  A    
C80   Cl8   S    
C10   O18   A    
C102  Cl30  S    
C8    C144  S    
C3    O3    A    
C158  C182  S    
C16   O28   A    
C1    O1    A    
C160  C184  S    
C150  C174  S    
C29   H5    S    
C146  C170  S    
C71   C165  A    
C109  Cl37  S    
C85   C127  A    
O16   Zn4   S    
C38   H14   S    
C61   C163  A    
C10   C134  S    
C118  C142  A    
C31   C79   A    
C34   C82   A    
C98   C134  A    
O8    Zn2   S    
C109  C139  A    
O28   Zn7   S    
C42   H18   S    
C103  C133  A    
C56   C160  A    
C96   C132  A    
C35   H11   S    
C33   C81   A    
C36   C84   A    
C100  Cl28  S    
C69   C117  A    
C148  C172  S    
C10   O24   A    
C149  C173  S    
C78   C122  A    
C79   Cl7   S    
O31   Zn8   S    
C152  C176  S    
C96   Cl24  S    
C8    O14   A    
O20   Zn5   S    
C27   C147  A    
C47   C95   A    
C25   C145  A    
C12   O20   A    
C159  C183  S    
C69   H45   S    
C38   C150  A    
C14   O26   A    
O14   Zn4   S    
C58   C162  A    
