data_mof_unit_31921.cif
_audit_creation_date              2012-12-10T18:05:52-0500
_audit_creation_method            fapswitch 2.2
_symmetry_space_group_name_H-M    P1
_symmetry_Int_Tables_number       1
_space_group_crystal_system       triclinic
_cell_length_a                    12.585274
_cell_length_b                    13.13835
_cell_length_c                    15.0052
_cell_angle_alpha                 90.517476
_cell_angle_beta                  102.616591
_cell_angle_gamma                 82.337337
_cell_volume                      2399.05745806

loop_
_atom_site_label
_atom_site_type_symbol
_atom_type_description
_atom_site_fract_x
_atom_site_fract_y
_atom_site_fract_z
_atom_type_partial_charge
C1    C     C_R   0.438752 0.691186 0.485868 0.856000
C2    C     C_R   0.600033 0.501405 0.111530 0.037915
C3    C     C_R   0.304756 0.484533 0.009915 -0.219150
C4    C     C_R   0.305041 0.485876 0.917452 -0.218368
C5    C     C_R   0.403021 0.492223 0.889350 0.149240
C6    C     C_R   0.502127 0.496798 0.954017 -0.007749
C7    C     C_R   0.601309 0.503176 0.925959 -0.010105
C8    C     C_R   0.699972 0.506660 0.991121 0.528986
C9    C     C_R   0.698162 0.507441 0.083827 -0.321930
C10   C     C_R   0.403389 0.494142 0.797377 -0.249887
C11   C     C_R   0.501318 0.500332 0.769384 -0.097072
C12   C     C_R   0.500509 0.500410 0.673144 0.892543
C13   C     C_R   0.599668 0.505130 0.833131 -0.217466
C14   C     C_R   0.702399 0.064255 0.436187 -0.198344
C15   C     C_R   0.596781 0.200157 0.501614 -0.049117
C16   C     C_R   0.299599 0.838157 0.498475 -0.189871
C17   C     C_R   0.270961 0.942930 0.506701 -0.146604
C18   C     C_R   0.344700 0.010225 0.497938 -0.191246
C19   C     C_R   0.447016 0.973468 0.476157 0.085480
C20   C     C_R   0.467562 0.869514 0.453757 0.083078
C21   C     C_R   0.529689 0.036318 0.475847 0.077777
C22   C     C_R   0.622424 0.000178 0.439247 0.173356
C23   C     C_R   0.561120 0.308750 0.509343 0.864646
C24   C     C_R   0.632815 0.901449 0.404894 -0.249988
C25   C     C_R   0.556364 0.836717 0.412002 -0.196844
C26   C     C_R   0.523456 0.133809 0.512651 -0.256026
C27   C     C_R   0.688538 0.165019 0.465826 -0.204613
C28   C     C_R   0.399412 0.800740 0.475093 -0.111959
C29   C     C_R   0.087480 0.346731 0.373310 -0.312881
C30   C     C_R   0.799866 0.630044 0.608116 0.027683
C31   C     C_R   0.904635 0.658556 0.630154 -0.242855
C32   C     C_R   0.986044 0.609437 0.589140 -0.206525
C33   C     C_R   0.962729 0.530862 0.525651 0.017055
C34   C     C_R   0.499693 0.499156 0.326916 0.870294
C35   C     C_R   0.854606 0.504459 0.505862 0.238093
C36   C     C_R   0.041782 0.477691 0.481143 -0.012715
C37   C     C_R   0.011049 0.399844 0.417955 0.200342
C38   C     C_R   0.904519 0.375336 0.400164 -0.306735
C39   C     C_R   0.827791 0.426675 0.443829 -0.225520
C40   C     C_R   0.150884 0.498105 0.496665 -0.055864
C41   C     C_R   0.193863 0.370664 0.391771 0.005944
C42   C     C_R   0.598530 0.501988 0.203401 -0.229570
C43   C     C_R   0.499983 0.496904 0.230936 -0.071588
C44   C     C_R   0.402382 0.490110 0.166878 -0.259308
C45   C     C_R   0.402407 0.489734 0.074591 0.139215
C46   C     C_R   0.501644 0.495621 0.046699 0.061482
H1    H     H_    0.674340 0.506472 0.253301 0.168678
H2    H     H_    0.701076 0.873580 0.373955 0.151904
H3    H     H_    0.772949 0.037791 0.407607 0.135872
H4    H     H_    0.459155 0.161951 0.547402 0.149888
H5    H     H_    0.245335 0.786245 0.513262 0.151699
H6    H     H_    0.318360 0.090629 0.506251 0.135104
H7    H     H_    0.193364 0.971777 0.523805 0.142632
H8    H     H_    0.566815 0.761105 0.383396 0.174195
H9    H     H_    0.254438 0.330218 0.358285 0.136243
H10   H     H_    0.880303 0.315830 0.352388 0.152346
H11   H     H_    0.065233 0.287230 0.324982 0.142540
H12   H     H_    0.326240 0.486254 0.188582 0.162356
H13   H     H_    0.182088 0.555203 0.543452 0.122684
H14   H     H_    0.736093 0.668128 0.639497 0.145072
H15   H     H_    0.065795 0.634629 0.608417 0.134558
H16   H     H_    0.922677 0.718690 0.678717 0.154663
H17   H     H_    0.747906 0.403553 0.427754 0.211672
H18   H     H_    0.228330 0.479949 0.030827 0.147455
H19   H     H_    0.228793 0.482203 0.867963 0.146951
H20   H     H_    0.327092 0.490957 0.747701 0.159039
H21   H     H_    0.674967 0.509372 0.810321 0.205304
H22   H     H_    0.773410 0.513285 0.133954 0.167904
H23   H     H_    0.745971 0.216317 0.456595 0.149573
N1    N     N_R   0.222190 0.444670 0.452360 -0.102254
N2    N     N_R   0.776970 0.554790 0.547140 -0.134193
O1    O     O_R   0.366740 0.627160 0.477250 -0.615469
O2    O     O_R   0.544830 0.662520 0.507680 -0.618058
O3    O     O_R   0.410940 0.482340 0.616930 -0.624462
O4    O     O_R   0.589030 0.517700 0.647360 -0.623816
O5    O     O_R   0.455170 0.337480 0.492320 -0.615108
O6    O     O_R   0.633260 0.372840 0.522750 -0.635245
O7    O     O_R   0.410970 0.482300 0.352640 -0.619596
O8    O     O_R   0.589060 0.517660 0.383070 -0.650876
Zn1   Zn    Zn3+2 0.381090 0.476390 0.479680 0.939174
Zn2   Zn    Zn3+2 0.618910 0.523610 0.520320 0.928583
O9    O     O_3   0.796389 0.516848 0.964091 -0.606594
C47   C     C_3   0.864165 0.421286 0.976674 -0.342236
H24   H     H_    0.938717 0.428084 0.950267 0.197061
H25   H     H_    0.822151 0.359960 0.937686 0.161589
H26   H     H_    0.891590 0.399065 0.050319 0.163939

loop_
_geom_bond_atom_site_label_1
_geom_bond_atom_site_label_2
_ccdc_geom_bond_type
C16   C28   A    
C21   C26   A    
C12   O3    A    
C19   C20   A    
C16   H5    S    
C23   O5    A    
C30   N2    A    
C18   H6    S    
C7    C8    A    
C45   C46   A    
C2    C46   A    
C40   N1    A    
C8    O9    S    
C5    C6    A    
C36   C37   A    
C19   C21   A    
C32   H15   S    
C26   H4    S    
C4    H19   S    
O7    Zn1   S    
C14   H3    S    
C16   C17   A    
C20   C25   A    
C33   C36   A    
C18   C19   A    
C41   H9    S    
C31   C32   A    
C44   H12   S    
C8    C9    A    
C30   H14   S    
C1    C28   S    
C24   C25   A    
C14   C27   A    
C27   H23   S    
C15   C23   S    
C35   N2    A    
C40   H13   S    
O3    Zn1   S    
C21   C22   A    
C31   H16   S    
O2    Zn2   S    
C10   H20   S    
C38   C39   A    
C1    O1    A    
N1    Zn1   S    
C24   H2    S    
C36   C40   A    
C25   H8    S    
O8    Zn2   S    
O4    Zn2   S    
C15   C26   A    
C20   C28   A    
C3    H18   S    
C3    C45   A    
C35   C39   A    
C43   C44   A    
C37   C38   A    
C34   O8    A    
C15   C27   A    
C47   H24   S    
O6    Zn2   S    
C17   C18   A    
C23   O6    A    
C47   H25   S    
C29   H11   S    
C22   C24   A    
C42   C43   A    
C3    C4    A    
C17   H7    S    
C44   C45   A    
C13   H21   S    
C6    C46   A    
C29   C41   A    
C34   C43   S    
O5    Zn1   S    
C4    C5    A    
C11   C12   S    
C6    C7    A    
C39   H17   S    
C1    O2    A    
C32   C33   A    
C14   C22   A    
C9    H22   S    
C5    C10   A    
O1    Zn1   S    
C34   O7    A    
C11   C13   A    
C30   C31   A    
C2    C42   A    
C33   C35   A    
C42   H1    S    
C10   C11   A    
C7    C13   A    
C47   H26   S    
C38   H10   S    
O9    C47   S    
C12   O4    A    
C29   C37   A    
C2    C9    A    
C41   N1    A    
N2    Zn2   S    
