data_mof_unit_11757.cif
_audit_creation_date              2013-03-05T15:58:55-0500
_audit_creation_method            fapswitch 2.2
_symmetry_space_group_name_H-M    P1
_symmetry_Int_Tables_number       1
_space_group_crystal_system       triclinic
_cell_length_a                    10.650904
_cell_length_b                    12.595454
_cell_length_c                    13.134971
_cell_angle_alpha                 82.261981
_cell_angle_beta                  91.016507
_cell_angle_gamma                 102.509812
_cell_volume                      1704.47790919

loop_
_atom_site_label
_atom_site_type_symbol
_atom_site_description
_atom_site_fract_x
_atom_site_fract_y
_atom_site_fract_z
_atom_type_partial_charge
O1    O     O_R   0.468120 0.366740 0.627160 -0.623640
O2    O     O_R   0.510770 0.544830 0.662520 -0.608641
C1    C     C_R   0.480596 0.438799 0.691128 0.891321
O3    O     O_R   0.663880 0.410950 0.482330 -0.628065
O4    O     O_R   0.706530 0.589040 0.517700 -0.626171
C2    C     C_R   0.741700 0.499793 0.501837 0.893173
Zn1   Zn    Zn3+2 0.471520 0.381090 0.476390 0.964179
Zn2   Zn    Zn3+2 0.528480 0.618910 0.523610 0.939596
O5    O     O_R   0.489230 0.455170 0.337480 -0.594973
O6    O     O_R   0.531880 0.633260 0.372840 -0.647020
O7    O     O_R   0.293470 0.410960 0.482300 -0.601791
O8    O     O_R   0.336120 0.589050 0.517670 -0.664342
C3    C     C_R   0.515926 0.561253 0.308781 0.929045
C4    C     C_R   0.257965 0.499484 0.498867 0.909328
C5    C     C_3   0.899062 0.385871 0.479447 -0.345463
H1    H     H_    0.864588 0.371557 0.400940 0.205980
H2    H     H_    0.842750 0.316993 0.533217 0.214027
C6    C     C_3   0.040537 0.382211 0.486559 -0.359623
H3    H     H_    0.055585 0.323019 0.554269 0.202469
H4    H     H_    0.069680 0.351132 0.417270 0.204123
H5    H     H_    0.894507 0.581160 0.342860 0.238972
C7    C     C_3   0.946190 0.589622 0.416613 -0.502737
C8    C     C_3   0.938950 0.527299 0.606681 0.188942
C9    C     C_3   0.878281 0.499621 0.502197 -0.022405
H6    H     H_    0.928894 0.611692 0.616499 0.108179
C10   C     C_3   0.120803 0.498362 0.497468 -0.010637
C11   C     C_3   0.088718 0.583562 0.407565 0.312197
C12   C     C_3   0.084048 0.528962 0.602560 -0.544427
H7    H     H_    0.111607 0.471778 0.667001 0.214896
H8    H     H_    0.138813 0.612703 0.612916 0.166212
H9    H     H_    0.941173 0.672331 0.435182 0.152210
H10   H     H_    0.148786 0.665874 0.416246 0.081524
C13   C     C_R   0.418582 0.704377 0.062669 -0.126982
H11   H     H_    0.448379 0.748525 0.214504 0.150496
H12   H     H_    0.326457 0.701486 0.872931 0.153292
H13   H     H_    0.378856 0.775248 0.035702 0.140871
C14   C     C_R   0.508859 0.597759 0.199818 -0.044508
C15   C     C_R   0.501869 0.300288 0.837912 -0.122319
C16   C     C_R   0.515836 0.272132 0.942611 -0.119786
C17   C     C_R   0.504113 0.345816 0.009949 -0.164961
C18   C     C_R   0.471811 0.447653 0.973332 0.102028
C19   C     C_R   0.438017 0.467617 0.869521 0.077851
C20   C     C_R   0.472188 0.530534 0.036003 0.093511
C21   C     C_R   0.420842 0.623519 0.999348 0.162236
C22   C     C_R   0.370304 0.633243 0.900944 -0.209487
C23   C     C_R   0.378275 0.556045 0.836754 -0.189695
C24   C     C_R   0.524005 0.524108 0.133963 -0.227612
C25   C     C_R   0.460817 0.690695 0.163579 -0.102957
C26   C     C_R   0.467161 0.399514 0.800668 -0.101906
H14   H     H_    0.571621 0.459100 0.163237 0.149603
H15   H     H_    0.522454 0.246224 0.785890 0.156592
H16   H     H_    0.517911 0.319778 0.090211 0.134985
H17   H     H_    0.541387 0.195005 0.971330 0.145359
H18   H     H_    0.336267 0.565906 0.761394 0.162330
C27   C     C_R   0.321336 0.088303 0.345826 -0.305053
H19   H     H_    0.300180 0.255202 0.329809 0.157154
H20   H     H_    0.291446 0.881324 0.314362 0.178588
H21   H     H_    0.253005 0.066491 0.285957 0.153739
N1    N     N_R   0.433240 0.222190 0.444680 -0.106906
C28   C     C_R   0.652187 0.799306 0.630562 0.018247
C29   C     C_R   0.683580 0.903806 0.659348 -0.240796
C30   C     C_R   0.625929 0.985462 0.609918 -0.197465
C31   C     C_R   0.536252 0.962598 0.530801 0.014679
C32   C     C_R   0.507996 0.854720 0.504171 0.232832
C33   C     C_R   0.473636 0.041849 0.477390 -0.009707
C34   C     C_R   0.384311 0.011576 0.399040 0.190616
C35   C     C_R   0.358957 0.905201 0.374249 -0.292815
C36   C     C_R   0.420377 0.828175 0.425932 -0.222378
C37   C     C_R   0.495851 0.150706 0.498139 -0.058587
C38   C     C_R   0.347507 0.194396 0.370238 0.007279
N2    N     N_R   0.566070 0.776970 0.554790 -0.135734
H22   H     H_    0.562103 0.181613 0.555511 0.130003
H23   H     H_    0.696313 0.735279 0.668808 0.159660
H24   H     H_    0.653386 0.065019 0.635327 0.149327
H25   H     H_    0.752157 0.921453 0.719892 0.163703
H26   H     H_    0.397597 0.748269 0.402822 0.220313
S1    S     S_3+6 0.121542 0.556196 0.279690 -0.016176
O9    O     O_2   0.150736 0.663158 0.209445 -0.291233
O10   O     O_2   0.234890 0.503393 0.279192 -0.358410
O11   O     O_3   0.993259 0.473666 0.233615 -0.551894
H27   H     H_    0.018137 0.402488 0.232248 0.364638
N3    N     N_R   0.874648 0.451807 0.694753 0.212682
O12   O     O_R   0.808758 0.487935 0.759766 -0.401527
O13   O     O_R   0.887976 0.350685 0.712378 -0.420156

loop_
_geom_bond_atom_site_label_1
_geom_bond_atom_site_label_2
_geom_bond_distance
_ccdc_geom_bond_type
C5    C6    1.518330 S    
C31   C33   1.420057 A    
C8    N3    1.470110 S    
C18   C19   1.407668 A    
C6    C10   1.549837 S    
C1    C26   1.456163 S    
C15   C26   1.402516 A    
S1    O9    1.502331 D    
C29   H25   1.082573 S    
Zn1   O7    2.016445 S    
C10   C11   1.570400 S    
O4    C2    1.302163 A    
C32   C36   1.400763 A    
C12   H7    1.113538 S    
C15   C16   1.386859 A    
O7    C4    1.297889 A    
C5    H1    1.112934 S    
C28   H23   1.081824 S    
C13   H13   1.083734 S    
Zn1   O5    1.926863 S    
C6    H3    1.113842 S    
C19   C23   1.413823 A    
C32   N2    1.362405 A    
O5    C3    1.308387 A    
C8    C9    1.556383 S    
C14   C24   1.385889 A    
C3    C14   1.448948 S    
C34   C35   1.389887 A    
H5    C7    1.111893 S    
C18   C20   1.413117 A    
H20   C35   1.084524 S    
O3    Zn1   2.003389 S    
Zn1   N1    2.051910 S    
C24   H14   1.078747 S    
S1    O10   1.499705 D    
C7    H9    1.113836 S    
C35   C36   1.382702 A    
O3    C2    1.293336 A    
C16   C17   1.390840 A    
C15   H15   1.083508 S    
N1    C38   1.354418 A    
C28   N2    1.357286 A    
C17   H16   1.078354 S    
C28   C29   1.387833 A    
O1    C1    1.302505 A    
C37   H22   1.076335 S    
C20   C21   1.420859 A    
C30   C31   1.414693 A    
Zn2   O8    2.003389 S    
C2    C9    1.455094 S    
C23   H18   1.081976 S    
C8    C12   1.542840 S    
C4    C10   1.457718 S    
C14   C25   1.399803 A    
N1    C37   1.349697 A    
C17   C18   1.419202 A    
O8    C4    1.299038 A    
N3    O12   1.301166 A    
N3    O13   1.301456 A    
C7    C11   1.543847 S    
C7    C9    1.549960 S    
H11   C25   1.082450 S    
H12   C22   1.083958 S    
C27   C34   1.398092 A    
C21   C22   1.391633 A    
S1    O11   1.684782 S    
C5    H2    1.111661 S    
C5    C9    1.563982 S    
Zn2   N2    2.039584 S    
C11   H10   1.113139 S    
O1    Zn1   1.964467 S    
C13   C21   1.403207 A    
C10   C12   1.560463 S    
O2    Zn2   1.926863 S    
O11   H27   0.990809 S    
C11   S1    1.814151 S    
O6    C3    1.301184 A    
O4    Zn2   2.016446 S    
C36   H26   1.066685 S    
H19   C38   1.082081 S    
C12   H8    1.113801 S    
O2    C1    1.308161 A    
C16   H17   1.082709 S    
C33   C37   1.402848 A    
C6    H4    1.111979 S    
C8    H6    1.115677 S    
C29   C30   1.391410 A    
C27   C38   1.384570 A    
C19   C26   1.408644 A    
C31   C32   1.416437 A    
C22   C23   1.386574 A    
Zn2   O6    1.964464 S    
C33   C34   1.422473 A    
C27   H21   1.083878 S    
C13   C25   1.392761 A    
C30   H24   1.077344 S    
C20   C24   1.390270 A    
