data_mof_unit_56889.cif
_audit_creation_date              2013-03-05T16:06:02-0500
_audit_creation_method            fapswitch 2.2
_symmetry_space_group_name_H-M    P1
_symmetry_Int_Tables_number       1
_space_group_crystal_system       triclinic
_cell_length_a                    10.487735
_cell_length_b                    15.171077
_cell_length_c                    14.958289
_cell_angle_alpha                 81.849951
_cell_angle_beta                  92.460287
_cell_angle_gamma                 101.778488
_cell_volume                      2306.13161796

loop_
_atom_site_label
_atom_site_type_symbol
_atom_site_description
_atom_site_fract_x
_atom_site_fract_y
_atom_site_fract_z
_atom_type_partial_charge
O1    O     O_R   0.462600 0.383110 0.605620 -0.589863
O2    O     O_R   0.537400 0.616890 0.394380 -0.579900
O3    O     O_R   0.510210 0.531900 0.639510 -0.625902
O4    O     O_R   0.489790 0.468100 0.360490 -0.602361
C1    C     C_R   0.480899 0.442760 0.663343 0.910123
C2    C     C_R   0.529377 0.556872 0.337344 0.858605
O5    O     O_R   0.662240 0.425610 0.483080 -0.605679
O6    O     O_R   0.337760 0.574390 0.516920 -0.617675
O7    O     O_R   0.709860 0.574400 0.516970 -0.591662
O8    O     O_R   0.290140 0.425600 0.483030 -0.612075
C3    C     C_R   0.741568 0.499212 0.500665 0.876794
C4    C     C_R   0.258418 0.500758 0.499319 0.878235
Zn1   Zn    Zn3+2 0.468210 0.400660 0.477370 0.996822
Zn2   Zn    Zn3+2 0.531790 0.599340 0.522630 0.988972
C5    C     C_3   0.937997 0.432683 0.454568 -0.120995
C6    C     C_3   0.061826 0.567102 0.545254 -0.112470
C7    C     C_3   0.023396 0.420050 0.540334 -0.156786
C8    C     C_3   0.976495 0.579709 0.459468 -0.141002
H1    H     H_    0.053394 0.357148 0.572948 0.190124
H2    H     H_    0.946888 0.642556 0.426533 0.187537
H3    H     H_    0.883848 0.378698 0.416595 0.185946
H4    H     H_    0.115769 0.621095 0.583284 0.165740
C9    C     C_3   0.123076 0.502033 0.499621 0.002766
C10   C     C_3   0.876814 0.497796 0.500212 0.001292
C11   C     C_3   0.040512 0.514836 0.413967 -0.185479
C12   C     C_3   0.959354 0.484926 0.585851 -0.160038
H5    H     H_    0.078510 0.527786 0.344182 0.147270
H6    H     H_    0.921140 0.471923 0.655561 0.194736
C13   C     C_R   0.484444 0.407529 0.759908 -0.201705
C14   C     C_R   0.587385 0.586313 0.246499 -0.219178
C15   C     C_R   0.446780 0.284088 0.883534 -0.261535
C16   C     C_R   0.729347 0.689044 0.135308 -0.251644
C17   C     C_R   0.418762 0.319444 0.795123 0.292530
C18   C     C_R   0.669835 0.671940 0.219929 0.313325
C19   C     C_R   0.566566 0.460895 0.816040 -0.220420
C20   C     C_R   0.574319 0.519706 0.189064 -0.191649
C21   C     C_R   0.590861 0.427636 0.906018 0.124939
C22   C     C_R   0.646571 0.532821 0.110222 0.121309
C23   C     C_R   0.528580 0.337966 0.940762 0.005696
C24   C     C_R   0.717338 0.620646 0.079039 -0.001551
C25   C     C_R   0.662613 0.485524 0.964885 -0.079919
C26   C     C_R   0.638072 0.461722 0.057434 -0.086377
C27   C     C_R   0.599935 0.368246 0.092460 0.257239
C28   C     C_R   0.748746 0.569077 0.935367 0.263943
C29   C     C_R   0.545883 0.305558 0.032917 -0.134401
C30   C     C_R   0.776183 0.637069 0.993292 -0.131065
H7    H     H_    0.506178 0.456167 0.206086 0.187909
H8    H     H_    0.607232 0.530396 0.789408 0.194715
H9    H     H_    0.396722 0.216108 0.908666 0.188430
H10   H     H_    0.788634 0.755712 0.115466 0.180440
N1    N     N_R   0.574200 0.731700 0.552740 -0.115495
N2    N     N_R   0.425800 0.268300 0.447260 -0.106739
C31   C     C_R   0.677996 0.830704 0.655302 -0.294319
C32   C     C_R   0.313102 0.166584 0.350040 -0.236315
C33   C     C_R   0.659666 0.748228 0.621833 0.036390
C34   C     C_R   0.336024 0.250564 0.380793 0.068125
C35   C     C_R   0.512838 0.796644 0.507727 0.088842
C36   C     C_R   0.486211 0.203160 0.493011 0.088655
C37   C     C_R   0.545972 0.886273 0.529970 -0.026391
C38   C     C_R   0.450171 0.112908 0.473170 -0.044388
C39   C     C_R   0.615870 0.898477 0.611839 0.142227
C40   C     C_R   0.376225 0.099278 0.393239 0.165823
C41   C     C_R   0.498557 0.960914 0.480746 0.069360
C42   C     C_R   0.497614 0.038413 0.522769 0.065284
C43   C     C_R   0.540780 0.037762 0.613324 -0.191494
C44   C     C_R   0.453302 0.961229 0.390709 -0.188746
C45   C     C_R   0.610369 0.973766 0.653878 -0.192035
C46   C     C_R   0.379026 0.023006 0.352365 -0.165013
H11   H     H_    0.651076 0.979483 0.721158 0.143211
H12   H     H_    0.332367 0.014771 0.287510 0.154555
H13   H     H_    0.290110 0.304182 0.347118 0.125180
H14   H     H_    0.705072 0.694380 0.655269 0.186414
H15   H     H_    0.735822 0.840146 0.716267 0.171807
H16   H     H_    0.252128 0.155903 0.290630 0.142439
H17   H     H_    0.518901 0.085198 0.654290 0.168912
H18   H     H_    0.474992 0.914447 0.348958 0.171684
C47   C     C_R   0.610708 0.230351 0.542611 0.155744
C48   C     C_R   0.612349 0.248409 0.632159 -0.135191
C49   C     C_R   0.726675 0.255062 0.684312 -0.178828
C50   C     C_R   0.839691 0.239847 0.648656 -0.102176
C51   C     C_R   0.839456 0.221073 0.559835 -0.156808
C52   C     C_R   0.726555 0.218373 0.506390 -0.135118
H19   H     H_    0.522524 0.246035 0.665009 0.174919
H20   H     H_    0.725681 0.267117 0.753877 0.160028
H21   H     H_    0.927166 0.241856 0.690062 0.175406
H22   H     H_    0.926841 0.208510 0.532330 0.151346
H23   H     H_    0.727247 0.201629 0.438391 0.160883
C53   C     C_R   0.388568 0.768935 0.457627 0.149609
C54   C     C_R   0.272424 0.780725 0.493709 -0.170393
C55   C     C_R   0.159820 0.778638 0.440048 -0.127900
C56   C     C_R   0.159861 0.760465 0.351080 -0.107527
C57   C     C_R   0.272794 0.745030 0.315550 -0.214149
C58   C     C_R   0.386978 0.750916 0.367889 -0.109198
H24   H     H_    0.271394 0.797209 0.561778 0.135722
H25   H     H_    0.072445 0.791278 0.467501 0.160225
H26   H     H_    0.072605 0.758981 0.309486 0.159616
H27   H     H_    0.273825 0.733393 0.245871 0.137102
H28   H     H_    0.476379 0.752692 0.334679 0.188164
C59   C     C_R   0.509055 0.207137 0.066062 0.191384
C60   C     C_R   0.604022 0.153230 0.074629 -0.103635
C61   C     C_R   0.568453 0.059336 0.100314 -0.113399
C62   C     C_R   0.437927 0.018809 0.116564 -0.117561
C63   C     C_R   0.343025 0.072315 0.108555 -0.175318
C64   C     C_R   0.378525 0.166397 0.084671 -0.121733
H29   H     H_    0.705023 0.183812 0.060435 0.134009
H30   H     H_    0.641846 0.017873 0.106752 0.157688
H31   H     H_    0.410372 0.946046 0.135871 0.135280
H32   H     H_    0.242027 0.040885 0.121398 0.136906
H33   H     H_    0.304290 0.207239 0.078369 0.131329
C65   C     C_R   0.864069 0.725009 0.963713 0.189871
C66   C     C_R   0.999108 0.734734 0.977879 -0.099880
C67   C     C_R   0.081839 0.818134 0.950510 -0.145999
C68   C     C_R   0.030135 0.891981 0.908952 -0.085089
C69   C     C_R   0.895582 0.882588 0.894756 -0.143028
C70   C     C_R   0.812535 0.799368 0.922149 -0.130157
H34   H     H_    0.039942 0.677908 0.010090 0.131737
H35   H     H_    0.186004 0.825547 0.961529 0.133190
H36   H     H_    0.094314 0.956463 0.887802 0.153797
H37   H     H_    0.855641 0.939764 0.862544 0.130680
H38   H     H_    0.708423 0.792694 0.910976 0.124807
N3    N     N_R   0.699735 0.741196 0.277928 0.186132
O9    O     O_R   0.694154 0.824630 0.245586 -0.451946
O10   O     O_R   0.763475 0.726260 0.353208 -0.412879
N4    N     N_R   0.317999 0.267408 0.744514 0.199807
O11   O     O_R   0.235965 0.307490 0.694817 -0.428413
O12   O     O_R   0.295669 0.178986 0.758385 -0.439341
N5    N     N_R   0.628454 0.337054 0.185396 0.198845
O13   O     O_R   0.735994 0.374096 0.223764 -0.408118
O14   O     O_R   0.547526 0.272527 0.232419 -0.423533
N6    N     N_R   0.820792 0.579197 0.853279 0.192018
O15   O     O_R   0.862916 0.510403 0.831061 -0.417883
O16   O     O_R   0.843513 0.656025 0.799904 -0.443122

loop_
_geom_bond_atom_site_label_1
_geom_bond_atom_site_label_2
_geom_bond_distance
_ccdc_geom_bond_type
C44   C46   1.386159 A    
C61   C62   1.397728 A    
C25   C26   1.401442 A    
C66   C67   1.398846 A    
C69   C70   1.398397 A    
C55   H25   1.082364 S    
C47   C48   1.403470 A    
O5    C3    1.301321 A    
C4    C9    1.423715 S    
C60   H29   1.083116 S    
C7    C9    1.523094 S    
O1    C1    1.318220 A    
C7    C12   1.543566 S    
C19   C21   1.400523 A    
C10   C12   1.526887 S    
C22   C26   1.411074 A    
C64   H33   1.083066 S    
C5    C11   1.540304 S    
C36   C38   1.414208 A    
C52   H23   1.083424 S    
C13   C17   1.411931 A    
C3    C10   1.423285 S    
C54   H24   1.083342 S    
C20   H7    1.081456 S    
C38   C40   1.413778 A    
O4    Zn1   1.893920 S    
C65   C66   1.403651 A    
C57   C58   1.396666 A    
C36   C47   1.486334 S    
C56   H26   1.082460 S    
C32   H16   1.083819 S    
C31   C39   1.397144 A    
C48   H19   1.072894 S    
C59   C60   1.403255 A    
C43   C45   1.388355 A    
C17   N4    1.439873 S    
O6    Zn2   1.992815 S    
C15   C17   1.397441 A    
C63   H32   1.082386 S    
N1    C35   1.368146 A    
N1    C33   1.355229 A    
C51   H22   1.082325 S    
C23   C29   1.413382 A    
C68   H36   1.082516 S    
C9    C11   1.527075 S    
C59   C64   1.404299 A    
C41   C44   1.408337 A    
C49   H20   1.082598 S    
O2    C2    1.321680 A    
C8    C11   1.543225 S    
C15   H9    1.080072 S    
C19   H8    1.079016 S    
C67   C68   1.399030 A    
C28   C30   1.417172 A    
C57   H27   1.082383 S    
C51   C52   1.396797 A    
C1    C13   1.469049 S    
C31   C33   1.387215 A    
C6    C12   1.540251 S    
N2    C36   1.368585 A    
C32   C34   1.387187 A    
C37   C39   1.415335 A    
C14   C18   1.420481 A    
O4    C2    1.325854 A    
C29   C59   1.481761 S    
C27   N5    1.442743 S    
C56   C57   1.393807 A    
C48   C49   1.396072 A    
C32   C40   1.396647 A    
C41   C42   1.411521 A    
C45   H11   1.084146 S    
C16   C18   1.402740 A    
N6    O16   1.300712 A    
O7    Zn2   1.987265 S    
N5    O14   1.300104 A    
C50   H21   1.082284 S    
Zn1   N2    2.075456 S    
O7    C3    1.308405 A    
C39   C45   1.391781 A    
Zn2   N1    2.075456 S    
C5    H3    1.109170 S    
O6    C4    1.301796 A    
C34   H13   1.081765 S    
C44   H18   1.072052 S    
C62   H31   1.082615 S    
C27   C29   1.412745 A    
C16   H10   1.082431 S    
N3    O9    1.301483 A    
C66   H34   1.083528 S    
O3    Zn2   1.893920 S    
O8    C4    1.307966 A    
C46   H12   1.079280 S    
C5    C10   1.530135 S    
C2    C14   1.484644 S    
C18   N3    1.433716 S    
C30   C65   1.480159 S    
C11   H5    1.110263 S    
C25   C28   1.423319 A    
C8    C10   1.522582 S    
O1    Zn1   1.900813 S    
C26   C27   1.421729 A    
C24   C30   1.415152 A    
N5    O13   1.301672 A    
N4    O12   1.301693 A    
C68   C69   1.399116 A    
C61   H30   1.082389 S    
C5    C7    1.544834 S    
C53   C58   1.406089 A    
C6    H4    1.109030 S    
C37   C41   1.426108 A    
C31   H15   1.083523 S    
C33   H14   1.080197 S    
C50   C51   1.397517 A    
O3    C1    1.324174 A    
O8    Zn1   1.987263 S    
C40   C46   1.389120 A    
C6    C9    1.529919 S    
C13   C19   1.395805 A    
C12   H6    1.110005 S    
C43   H17   1.072649 S    
C35   C53   1.489552 S    
C14   C20   1.399108 A    
C38   C42   1.426689 A    
C42   C43   1.408988 A    
C20   C22   1.397587 A    
N6    O15   1.301572 A    
C21   C23   1.418919 A    
C22   C24   1.411911 A    
C55   C56   1.396841 A    
C67   H35   1.083008 S    
C69   H37   1.082851 S    
C47   C52   1.406164 A    
C65   C70   1.404460 A    
C60   C61   1.398600 A    
C7    H1    1.106812 S    
C15   C23   1.409236 A    
C8    H2    1.105793 S    
C16   C24   1.409346 A    
C21   C25   1.416162 A    
C62   C63   1.398553 A    
O2    Zn2   1.900810 S    
N3    O10   1.300423 A    
C35   C37   1.416286 A    
C49   C50   1.394101 A    
O5    Zn1   1.992816 S    
C53   C54   1.407056 A    
C6    C8    1.544615 S    
C70   H38   1.083699 S    
C63   C64   1.397633 A    
C54   C55   1.396610 A    
C28   N6    1.442598 S    
C58   H28   1.073546 S    
N2    C34   1.356274 A    
N4    O11   1.301180 A    
