data_mof_unit_21798.cif
_audit_creation_date              2012-12-11T16:25:27-0500
_audit_creation_method            fapswitch 2.2
_symmetry_space_group_name_H-M    P1
_symmetry_Int_Tables_number       1
_space_group_crystal_system       triclinic
_cell_length_a                    20.234197
_cell_length_b                    7.26909
_cell_length_c                    13.368424
_cell_angle_alpha                 89.82621
_cell_angle_beta                  103.252599
_cell_angle_gamma                 90.254529
_cell_volume                      1913.89656988

loop_
_atom_site_label
_atom_site_type_symbol
_atom_type_description
_atom_site_fract_x
_atom_site_fract_y
_atom_site_fract_z
_atom_type_partial_charge
O1    O     O_R   0.449520 0.506760 0.599710 -0.544762
O2    O     O_R   0.550480 0.006760 0.400290 -0.515665
O3    O     O_R   0.587930 0.180200 0.595790 -0.527699
O4    O     O_R   0.412070 0.680200 0.404210 -0.544828
C1    C     C_R   0.614929 0.344120 0.616062 0.800451
C2    C     C_R   0.384981 0.844324 0.384258 0.798628
O5    O     O_R   0.452350 0.177380 0.611700 -0.525301
O6    O     O_R   0.547650 0.677380 0.388300 -0.550618
O7    O     O_R   0.413930 0.001760 0.416320 -0.523725
O8    O     O_R   0.586070 0.501760 0.583680 -0.541751
C3    C     C_R   0.436461 0.345345 0.638291 0.710275
C4    C     C_R   0.563332 0.846452 0.361572 0.712449
O9    O     O_3   0.487550 0.337460 0.435880 -0.380939
O10   O     O_3   0.512450 0.837460 0.564120 -0.383208
V1    V     V_3+5 0.502310 0.064670 0.511900 1.491220
V2    V     V_3+5 0.497690 0.564670 0.488100 1.428482
C5    C     C_R   0.610665 0.951769 0.111169 0.456495
C6    C     C_R   0.390420 0.420127 0.892753 0.451968
H1    H     H_    0.518203 0.952071 0.164329 0.113200
H2    H     H_    0.482162 0.435990 0.837758 0.115138
H3    H     H_    0.697378 0.008450 0.989888 0.178574
H4    H     H_    0.305490 0.437244 0.019228 0.179989
C7    C     C_R   0.602637 0.860030 0.282565 -0.082606
C8    C     C_R   0.397168 0.354176 0.717521 -0.091406
C9    C     C_R   0.928370 0.794775 0.314231 -0.175518
C10   C     C_R   0.070240 0.335193 0.681307 -0.177185
C11   C     C_R   0.891755 0.763164 0.388600 -0.124721
C12   C     C_R   0.106370 0.318088 0.605189 -0.123201
C13   C     C_R   0.821651 0.786255 0.365567 -0.171969
C14   C     C_R   0.177056 0.323070 0.630184 -0.168727
C15   C     C_R   0.786059 0.844238 0.266528 0.089624
C16   C     C_R   0.213764 0.345302 0.733287 0.092262
C17   C     C_R   0.824298 0.880551 0.191228 0.068716
C18   C     C_R   0.176230 0.365995 0.810748 0.068980
C19   C     C_R   0.713918 0.865849 0.239616 -0.011840
C20   C     C_R   0.286273 0.353219 0.761516 -0.011471
C21   C     C_R   0.681712 0.926136 0.138743 0.034426
C22   C     C_R   0.319380 0.394396 0.864982 0.041884
C23   C     C_R   0.720765 0.962144 0.066925 -0.164633
C24   C     C_R   0.281201 0.410709 0.939545 -0.159850
C25   C     C_R   0.790603 0.938914 0.092380 -0.222044
C26   C     C_R   0.211057 0.394853 0.913251 -0.220340
C27   C     C_R   0.672673 0.832903 0.310154 -0.226954
C28   C     C_R   0.327075 0.325327 0.690045 -0.241359
C29   C     C_R   0.572016 0.922378 0.184160 -0.268230
C30   C     C_R   0.428385 0.405729 0.817717 -0.277621
C31   C     C_R   0.895604 0.854263 0.215926 -0.074311
C32   C     C_R   0.104318 0.358973 0.783863 -0.070987
H5    H     H_    0.693389 0.792889 0.388637 0.119406
H6    H     H_    0.305898 0.285862 0.611561 0.142068
H7    H     H_    0.982486 0.769945 0.333155 0.102709
H8    H     H_    0.015394 0.330215 0.659939 0.098741
H9    H     H_    0.797137 0.756557 0.427235 0.116114
H10   H     H_    0.201217 0.312484 0.566581 0.120752
H11   H     H_    0.917808 0.717408 0.464518 0.125290
H12   H     H_    0.079348 0.300989 0.525890 0.124657
H13   H     H_    0.818033 0.967894 0.033441 0.135005
H14   H     H_    0.184210 0.409983 0.974085 0.131367
H15   H     H_    0.093633 0.903522 0.470351 0.136363
H16   H     H_    0.903755 0.181648 0.540678 0.138441
C33   C     C_R   0.234685 0.860517 0.035753 -0.146655
C34   C     C_R   0.766400 0.429220 0.960306 -0.148414
C35   C     C_R   0.291803 0.861628 0.994130 -0.109060
C36   C     C_R   0.709665 0.457185 0.000727 -0.105503
C37   C     C_R   0.356278 0.854764 0.058357 -0.088069
C38   C     C_R   0.645061 0.449238 0.937004 -0.100835
C39   C     C_R   0.364136 0.848354 0.164640 -0.140336
C40   C     C_R   0.636748 0.416406 0.832159 -0.138125
C41   C     C_R   0.307112 0.851290 0.209426 0.045900
C42   C     C_R   0.693403 0.387189 0.788685 0.048204
C43   C     C_R   0.241137 0.856070 0.143504 0.063127
C44   C     C_R   0.759442 0.392191 0.854375 0.064066
C45   C     C_R   0.315286 0.853795 0.317880 -0.179907
C46   C     C_R   0.684779 0.349744 0.682151 -0.183336
C47   C     C_R   0.257026 0.868589 0.361293 -0.015245
C48   C     C_R   0.742578 0.308727 0.641254 -0.019341
C49   C     C_R   0.190956 0.867255 0.293778 0.021521
C50   C     C_R   0.808573 0.311115 0.708960 0.021076
C51   C     C_R   0.183159 0.859359 0.185683 -0.148065
C52   C     C_R   0.816931 0.356425 0.814287 -0.148699
C53   C     C_R   0.262204 0.885124 0.469961 0.432718
C54   C     C_R   0.737150 0.266020 0.534747 0.440222
C55   C     C_R   0.202249 0.899732 0.506681 -0.203299
C56   C     C_R   0.795951 0.216462 0.501430 -0.196036
C57   C     C_R   0.138835 0.892718 0.440334 -0.193592
C58   C     C_R   0.859270 0.218810 0.568173 -0.197615
C59   C     C_R   0.133022 0.877009 0.335503 -0.141500
C60   C     C_R   0.865806 0.266969 0.670167 -0.146126
H17   H     H_    0.185553 0.864932 0.982546 0.110233
H18   H     H_    0.815593 0.434523 0.013328 0.113162
H19   H     H_    0.285978 0.866457 0.911596 0.118203
H20   H     H_    0.715857 0.483976 0.082001 0.122402
H21   H     H_    0.400482 0.854858 0.025654 0.132957
H22   H     H_    0.601148 0.469470 0.968976 0.114844
H23   H     H_    0.415397 0.843612 0.211188 0.076176
H24   H     H_    0.585459 0.412358 0.785805 0.075581
H25   H     H_    0.204074 0.920465 0.587313 0.132400
H26   H     H_    0.792893 0.174024 0.423038 0.137025
H27   H     H_    0.082295 0.875649 0.287134 0.098678
H28   H     H_    0.916403 0.265968 0.718926 0.105804
O11   O     O_R   0.913760 0.203480 0.916370 -0.535824
O12   O     O_R   0.086240 0.703480 0.083630 -0.534882
O13   O     O_R   0.047590 0.535230 0.888250 -0.539744
O14   O     O_R   0.952410 0.035230 0.111750 -0.540852
C61   C     C_R   0.063906 0.368464 0.861991 0.673119
C62   C     C_R   0.935827 0.867625 0.137643 0.673869
O15   O     O_R   0.912020 0.532880 0.904260 -0.536638
O16   O     O_R   0.087980 0.032880 0.095740 -0.536816
O17   O     O_R   0.949590 0.708460 0.099750 -0.535472
O18   O     O_R   0.050410 0.208460 0.900250 -0.536481
C63   C     C_R   0.885883 0.364671 0.883205 0.680297
C64   C     C_R   0.114277 0.865251 0.116375 0.683154
O19   O     O_3   0.012370 0.375360 0.064120 -0.376177
O20   O     O_3   0.987630 0.875360 0.935880 -0.376361
V3    V     V_3+5 0.997700 0.648160 0.988110 1.418826
V4    V     V_3+5 0.002300 0.148160 0.011890 1.415952
O21   O     O_3   0.325607 0.907898 0.536695 -0.560654
C65   C     C_3   0.330465 0.819076 0.632229 -0.225887
H29   H     H_    0.303767 0.684002 0.623971 0.131875
H30   H     H_    0.311217 0.909723 0.685854 0.132589
H31   H     H_    0.384815 0.793295 0.667304 0.177785
O22   O     O_3   0.673882 0.257561 0.466588 -0.555710
C66   C     C_3   0.674269 0.341446 0.371188 -0.225036
H32   H     H_    0.689140 0.240597 0.318276 0.144993
H33   H     H_    0.707838 0.464729 0.379312 0.113792
H34   H     H_    0.621943 0.386782 0.335215 0.174948
O23   O     O_3   0.579838 0.026453 0.016839 -0.571605
C67   C     C_3   0.548608 0.884279 0.951092 -0.316512
H35   H     H_    0.587606 0.799805 0.926575 0.154956
H36   H     H_    0.516366 0.947176 0.881059 0.171120
H37   H     H_    0.515106 0.795869 0.986647 0.165056
O24   O     O_3   0.421296 0.480521 0.990475 -0.574229
C68   C     C_3   0.460570 0.336770 0.044370 -0.278724
H38   H     H_    0.429694 0.210004 0.045646 0.144411
H39   H     H_    0.480322 0.380655 0.125155 0.165694
H40   H     H_    0.504914 0.307430 0.011386 0.190420

loop_
_geom_bond_atom_site_label_1
_geom_bond_atom_site_label_2
_ccdc_geom_bond_type
C38   C40   A    
C61   O18   A    
C35   C37   A    
C7    C29   A    
C11   C13   A    
O12   C64   A    
O1    C3    A    
O2    C4    A    
C67   H35   S    
C26   H14   S    
C2    O7    A    
O14   C62   A    
O20   V3    S    
C12   H12   S    
C66   H32   S    
C23   C25   A    
O5    C3    A    
C14   H10   S    
C4    C7    S    
C40   H24   S    
C46   C48   A    
C51   C64   S    
C16   C20   A    
C19   C21   A    
C56   C58   A    
C58   C60   A    
C66   H33   S    
C50   C60   A    
C53   O21   S    
C3    C8    S    
C44   C52   A    
C7    C27   A    
C41   C43   A    
C1    C46   S    
C33   C35   A    
C65   H29   S    
C34   C36   A    
O12   V3    S    
O14   V4    S    
C6    O24   S    
O24   C68   S    
C37   C39   A    
C18   C26   A    
C42   C46   A    
C68   H40   S    
C15   C17   A    
C41   C45   A    
C19   C27   A    
C9    C31   A    
C10   C32   A    
C38   H22   S    
O19   V4    S    
C33   C43   A    
C57   C59   A    
O6    V2    S    
C22   C24   A    
C39   H23   S    
C45   C47   A    
C6    C30   A    
C43   C51   A    
C53   C55   A    
C33   H17   S    
C59   H27   S    
C49   C51   A    
C27   H5    S    
C48   C50   A    
O4    C2    A    
C48   C54   A    
H16   C58   S    
C47   C53   A    
C66   H34   S    
O5    V1    S    
O16   C64   A    
C39   C41   A    
C65   H31   S    
C36   C38   A    
O4    V2    S    
O13   V3    S    
C9    H7    S    
C10   H8    S    
C32   C61   S    
H3    C23   S    
O6    C4    A    
C31   C62   S    
H4    C24   S    
C50   C52   A    
C34   C44   A    
O13   C61   A    
O1    V2    S    
C5    C21   A    
O2    V1    S    
C47   C49   A    
O15   V3    S    
C60   H28   S    
C40   C42   A    
C55   C57   A    
C54   C56   A    
C68   H38   S    
C17   C31   A    
C15   C19   A    
C20   C28   A    
C9    C11   A    
C36   H20   S    
O23   C67   S    
C67   H37   S    
O18   V4    S    
O3    V1    S    
C2    C45   S    
C28   H6    S    
O15   C63   A    
C5    O23   S    
C5    C29   A    
O3    C1    A    
C67   H36   S    
H1    C29   S    
O11   C63   A    
C10   C12   A    
C56   H26   S    
O16   V4    S    
C12   C14   A    
C6    C22   A    
C17   C25   A    
C1    O8    A    
C13   C15   A    
O8    V2    S    
O21   C65   S    
C20   C22   A    
C14   C16   A    
C13   H9    S    
C8    C28   A    
C34   H18   S    
C52   C63   S    
C24   C26   A    
C37   H21   S    
C11   H11   S    
O7    V1    S    
C65   H30   S    
O17   V3    S    
C25   H13   S    
C18   C32   A    
C49   C59   A    
C21   C23   A    
C55   H25   S    
O9    V2    S    
C35   H19   S    
C68   H39   S    
O11   V4    S    
O10   V1    S    
C42   C44   A    
O22   C66   S    
H15   C57   S    
C54   O22   S    
H2    C30   S    
C16   C18   A    
C8    C30   A    
C62   O17   A    
