data_mof_unit_36773.cif
_audit_creation_date              2012-10-26T20:32:57-0400
_audit_creation_method            fapswitch 2.2
_symmetry_space_group_name_H-M    P1
_symmetry_Int_Tables_number       1
_space_group_crystal_system       triclinic
_cell_length_a                    27.819996
_cell_length_b                    10.857119
_cell_length_c                    9.530477
_cell_angle_alpha                 90.652284
_cell_angle_beta                  90.03148
_cell_angle_gamma                 90.383778
_cell_volume                      2878.38131517

loop_
_atom_site_label
_atom_site_type_symbol
_atom_type_description
_atom_site_fract_x
_atom_site_fract_y
_atom_site_fract_z
_atom_type_partial_charge
C1    C     C_R   0.500382 0.262227 0.498428 0.567402
C2    C     C_R   0.974041 0.382450 0.463844 0.020508
C3    C     C_R   0.974904 0.601003 0.537516 0.019961
C4    C     C_R   0.407452 0.499790 0.499963 0.559729
C5    C     C_R   0.949214 0.492022 0.500386 0.038185
C6    C     C_R   0.946738 0.278933 0.418264 -0.139151
C7    C     C_R   0.896828 0.281172 0.415937 -0.109045
C8    C     C_R   0.872077 0.386753 0.457900 0.024359
C9    C     C_R   0.898107 0.492613 0.499778 -0.027159
C10   C     C_R   0.872914 0.599072 0.541043 0.024695
C11   C     C_R   0.822447 0.597541 0.540270 0.399206
C12   C     C_R   0.278934 0.505884 0.627224 -0.046804
C13   C     C_R   0.821622 0.389250 0.458183 0.399981
C14   C     C_R   0.721293 0.496428 0.626623 -0.054028
C15   C     C_R   0.671181 0.497396 0.626974 -0.141749
C16   C     C_R   0.499636 0.737611 0.500454 0.557122
C17   C     C_R   0.670991 0.493487 0.372454 -0.137184
C18   C     C_R   0.721106 0.492137 0.372370 -0.053695
C19   C     C_R   0.746406 0.494054 0.499392 0.242135
C20   C     C_R   0.025072 0.380142 0.472525 -0.005475
C21   C     C_R   0.050870 0.490415 0.501638 0.029031
C22   C     C_R   0.025951 0.601859 0.530673 0.023043
C23   C     C_R   0.253682 0.494778 0.500608 0.240138
C24   C     C_R   0.051184 0.270147 0.455239 -0.120742
C25   C     C_R   0.102902 0.709964 0.548633 -0.091906
C26   C     C_R   0.948416 0.705498 0.581314 -0.139479
C27   C     C_R   0.898489 0.704333 0.582745 -0.109515
C28   C     C_R   0.592562 0.499135 0.500010 0.548009
C29   C     C_R   0.053115 0.711073 0.550813 -0.131824
C30   C     C_R   0.483353 0.065672 0.613257 -0.021730
C31   C     C_R   0.497495 0.128869 0.493018 0.006905
C32   C     C_R   0.505935 0.060205 0.367625 0.080703
C33   C     C_R   0.504803 0.932188 0.371794 -0.117963
C34   C     C_R   0.102061 0.489493 0.501755 -0.050382
C35   C     C_R   0.496770 0.870585 0.498311 -0.026033
C36   C     C_R   0.483257 0.938843 0.616355 0.051140
C37   C     C_3   0.501882 0.937318 0.763308 -0.023200
C38   C     C_3   0.501224 0.077124 0.760583 -0.217201
C39   C     C_R   0.540992 0.527180 0.074206 0.174037
C40   C     C_R   0.178476 0.383490 0.477709 0.416541
C41   C     C_R   0.461031 0.460185 0.073758 0.027726
C42   C     C_R   0.461013 0.460296 0.924980 0.017999
C43   C     C_R   0.541130 0.526253 0.926732 0.164866
C44   C     C_3   0.569758 0.642539 0.922233 -0.268332
C45   C     C_R   0.127600 0.378461 0.478221 0.027137
C46   C     C_3   0.569123 0.644325 0.081385 -0.265248
C47   C     C_R   0.178027 0.599673 0.524810 0.404025
C48   C     C_R   0.278770 0.485879 0.373672 -0.045255
C49   C     C_R   0.328896 0.488071 0.373198 -0.128557
C50   C     C_R   0.329050 0.507627 0.627140 -0.128309
C51   C     C_R   0.101197 0.267773 0.457593 0.115414
C52   C     C_R   0.127739 0.600299 0.525598 0.025371
C53   C     C_R   0.354511 0.498714 0.500042 0.010721
C54   C     C_R   0.645526 0.496889 0.499842 0.007360
Cu1   Cu    Cu3+1 0.500000 0.499980 0.640670 0.973395
Cu2   Cu    Cu3+1 0.500000 0.500020 0.359330 0.991995
H1    H     H_    0.347789 0.516098 0.726451 0.135112
H2    H     H_    0.259651 0.512729 0.725645 0.135848
H3    H     H_    0.538940 0.900492 0.769362 0.120638
H4    H     H_    0.474047 0.119493 0.831259 0.189956
H5    H     H_    0.537695 0.119388 0.767373 0.145620
H6    H     H_    0.429267 0.429127 0.128469 0.123286
H7    H     H_    0.429212 0.429461 0.869372 0.120265
H8    H     H_    0.606233 0.628409 0.878019 0.122095
H9    H     H_    0.549437 0.718857 0.875361 0.169517
H10   H     H_    0.605278 0.631740 0.128288 0.124815
H11   H     H_    0.548151 0.721981 0.126346 0.165464
H12   H     H_    0.259356 0.477479 0.275479 0.136481
H13   H     H_    0.652630 0.498169 0.726673 0.124191
H14   H     H_    0.740676 0.497081 0.725198 0.131741
H15   H     H_    0.877679 0.199283 0.380650 0.170296
H16   H     H_    0.962808 0.195064 0.380068 0.115377
H17   H     H_    0.033505 0.182180 0.443525 0.127940
H18   H     H_    0.347517 0.480919 0.273722 0.128785
H19   H     H_    0.121932 0.796318 0.565078 0.193564
H20   H     H_    0.965131 0.789458 0.618423 0.114006
H21   H     H_    0.652280 0.491520 0.272877 0.128690
H22   H     H_    0.879978 0.786845 0.616999 0.169842
H23   H     H_    0.740343 0.490051 0.273635 0.132120
H24   H     H_    0.037047 0.800225 0.565540 0.120443
H25   H     H_    0.513074 0.881198 0.276716 0.166729
I1    I     I_    0.526991 0.132720 0.169212 -0.372426
I2    I     I_    0.450588 0.859709 0.905594 -0.349027
I3    I     I_    0.130408 0.087314 0.431186 -0.263648
N1    N     N_R   0.202146 0.492595 0.500994 -0.407925
N2    N     N_R   0.797945 0.493594 0.499231 -0.399000
N3    N     N_R   0.500300 0.500930 0.147930 -0.223294
N4    N     N_R   0.500310 0.500890 0.852020 -0.226856
O1    O     O_R   0.500000 0.319640 0.618810 -0.509043
O2    O     O_R   0.569730 0.499960 0.618810 -0.510258
O3    O     O_R   0.569740 0.500000 0.381220 -0.502191
O4    O     O_2   0.204539 0.281329 0.454374 -0.429804
O5    O     O_2   0.796393 0.287970 0.418931 -0.486536
O6    O     O_2   0.202797 0.705520 0.546802 -0.461209
O7    O     O_2   0.798021 0.699346 0.579156 -0.490116
O8    O     O_R   0.500010 0.319680 0.381230 -0.462996
O9    O     O_R   0.430260 0.500000 0.618780 -0.506648
O10   O     O_R   0.430270 0.500040 0.381190 -0.510419
O11   O     O_R   0.499990 0.680320 0.618770 -0.482783
O12   O     O_R   0.500000 0.680360 0.381190 -0.507516

loop_
_geom_bond_atom_site_label_1
_geom_bond_atom_site_label_2
_ccdc_geom_bond_type
C10   C27   A    
C8    C9    A    
Cu1   Cu2   S    
C8    C13   A    
C22   C29   A    
C4    O10   A    
C4    C53   S    
C41   C42   A    
C35   C36   A    
C39   N3    A    
C27   H22   S    
C7    C8    A    
C44   H8    S    
C6    H16   S    
C12   C23   A    
C26   C27   A    
C43   N4    A    
C47   N1    A    
C36   C37   S    
C46   H10   S    
Cu1   O2    S    
C16   C35   S    
C7    H15   S    
C30   C31   A    
C24   H17   S    
C45   C51   A    
C11   N2    A    
C1    C31   S    
C30   C38   S    
C18   C19   A    
Cu1   N4    S    
Cu2   O3    S    
C20   C24   A    
C18   H23   S    
C13   N2    A    
C26   H20   S    
Cu2   O10   S    
C9    C10   A    
C38   H5    S    
C12   H2    S    
C19   N2    S    
C24   C51   A    
C21   C22   A    
C14   H14   S    
C44   H9    S    
C2    C6    A    
C41   H6    S    
C15   H13   S    
C44   C46   S    
C25   C29   A    
C40   C45   A    
C41   N3    A    
C50   C53   A    
C2    C20   A    
C15   C54   A    
C28   C54   S    
C16   O12   A    
Cu2   N3    S    
C39   C43   A    
C21   C34   A    
C48   H12   S    
C13   O5    S    
C25   H19   S    
C40   N1    A    
C47   C52   A    
C43   C44   S    
C5    C9    A    
C37   C38   S    
C31   C32   A    
Cu1   O9    S    
C17   H21   S    
C17   C18   A    
C34   C45   A    
C40   O4    S    
C17   C54   A    
C37   H3    S    
C39   C46   S    
C38   H4    S    
C48   C49   A    
C2    C5    A    
C42   N4    A    
Cu2   O12   S    
C11   O7    S    
Cu2   O8    S    
C1    O1    A    
C23   C48   A    
C14   C15   A    
C50   H1    S    
C14   C19   A    
C3    C26   A    
C3    C5    A    
C12   C50   A    
C16   O11   A    
C6    C7    A    
C32   I1    S    
C34   C52   A    
C30   C36   A    
C32   C33   A    
C25   C52   A    
C46   H11   S    
Cu1   O1    S    
C29   H24   S    
C1    O8    A    
C49   C53   A    
C42   H7    S    
C33   C35   A    
C47   O6    S    
C28   O3    A    
C10   C11   A    
C20   C21   A    
C23   N1    S    
Cu1   O11   S    
C49   H18   S    
C37   I2    S    
C3    C22   A    
C28   O2    A    
C4    O9    A    
C33   H25   S    
C51   I3    S    
