data_mof_unit_39659.cif
_audit_creation_date              2012-12-10T16:44:13-0500
_audit_creation_method            fapswitch 2.2
_symmetry_space_group_name_H-M    P1
_symmetry_Int_Tables_number       1
_space_group_crystal_system       triclinic
_cell_length_a                    7.452849
_cell_length_b                    8.720229
_cell_length_c                    13.376072
_cell_angle_alpha                 94.52891
_cell_angle_beta                  77.723202
_cell_angle_gamma                 103.037178
_cell_volume                      827.104504875

loop_
_atom_site_label
_atom_site_type_symbol
_atom_type_description
_atom_site_fract_x
_atom_site_fract_y
_atom_site_fract_z
_atom_type_partial_charge
C1    C     C_R   0.541908 0.799210 0.508382 0.873831
C2    C     C_R   0.408215 0.515535 0.978948 -0.020500
C3    C     C_R   0.457659 0.556772 0.874320 -0.020871
C4    C     C_R   0.551375 0.556278 0.038648 0.164521
C5    C     C_R   0.721536 0.664446 0.000955 0.083396
C6    C     C_R   0.753584 0.723037 0.903490 -0.158585
C7    C     C_R   0.625165 0.668776 0.840623 -0.086494
C8    C     C_R   0.535025 0.488510 0.132785 -0.280350
C9    C     C_R   0.825028 0.660519 0.160739 0.627885
C10   C     C_R   0.335411 0.489027 0.806760 -0.326025
C11   C     C_2   0.558207 0.964707 0.526008 -0.033149
C12   C     C_R   0.399362 0.495017 0.694508 0.853365
C13   C     C_2   0.436108 0.032947 0.494527 -0.387663
C14   C     C_R   0.454730 0.200148 0.498927 0.880585
C15   C     C_R   0.601363 0.513263 0.306015 0.832240
C16   C     C_R   0.857370 0.714429 0.061786 -0.244724
C17   C     C_R   0.662004 0.547736 0.196935 -0.139079
C18   C     C_R   0.153963 0.403582 0.846879 0.470374
C19   C     C_R   0.093991 0.385927 0.951433 0.598745
C20   C     C_R   0.216481 0.441140 0.018286 -0.046695
Cu1   Cu    Cu3+1 0.321300 0.483160 0.488710 0.993043
Cu2   Cu    Cu3+1 0.678700 0.516840 0.511290 1.024433
H1    H     H_    0.323745 0.963781 0.459238 0.173406
H2    H     H_    0.007483 0.612149 0.583242 0.209478
H3    H     H_    0.880581 0.808930 0.874765 0.151083
H4    H     H_    0.985523 0.799666 0.034040 0.163816
H5    H     H_    0.422982 0.390092 0.158856 0.165094
H6    H     H_    0.656277 0.720723 0.766518 0.156169
N1    N     N_2   0.947230 0.542220 0.528320 -0.135114
N2    N     N_2   0.052770 0.457780 0.471680 -0.045118
O1    O     O_R   0.383920 0.714220 0.492660 -0.618272
O2    O     O_R   0.685730 0.742660 0.511730 -0.560259
O3    O     O_R   0.275440 0.478800 0.636790 -0.535546
O4    O     O_R   0.577250 0.507240 0.655860 -0.593258
O5    O     O_R   0.314270 0.257340 0.488270 -0.581678
O6    O     O_R   0.616080 0.285780 0.507340 -0.567149
O7    O     O_R   0.422750 0.492760 0.344140 -0.610881
O8    O     O_R   0.724560 0.521200 0.363210 -0.508537
F1    F     F_    0.948379 0.723587 0.222090 -0.670332
N3    N     N_3   0.979282 0.367286 0.394268 -0.385033
H7    H     H_    0.057729 0.416308 0.325910 0.231677
H8    H     H_    0.008683 0.256026 0.395456 0.204609
F2    F     F_    0.032183 0.337805 0.785065 -0.616346
N4    N     N_3   0.131328 0.441245 0.124802 -0.531126
H9    H     H_    0.128552 0.333448 0.154694 0.225555
H10   H     H_    0.198156 0.537707 0.164522 0.263394
F3    F     F_    0.912849 0.314261 0.988852 -0.618977
N5    N     N_3   0.697604 0.045339 0.582974 -0.552231
H11   H     H_    0.808466 0.116403 0.534793 0.269129
H12   H     H_    0.636296 0.111747 0.643860 0.258166

loop_
_geom_bond_atom_site_label_1
_geom_bond_atom_site_label_2
_ccdc_geom_bond_type
C2    C4    A    
C15   O8    A    
N1    N2    D    
Cu1   O5    S    
Cu2   N1    S    
C13   C14   S    
C11   C13   D    
Cu1   N2    S    
C19   C20   A    
C1    C11   S    
C9    F1    S    
C4    C8    A    
N5    H12   S    
C2    C3    A    
N2    N3    S    
C3    C10   A    
Cu1   Cu2   S    
C16   H4    S    
Cu1   O1    S    
C11   N5    S    
C6    C7    A    
Cu2   O2    S    
Cu2   O6    S    
C10   C18   A    
C10   C12   S    
N3    H8    S    
N3    H7    S    
C20   N4    S    
C9    C16   A    
N4    H10   S    
C3    C7    A    
C14   O6    A    
C5    C6    A    
Cu2   O4    S    
C19   F3    S    
C6    H3    S    
Cu1   O3    S    
C12   O4    A    
Cu2   O8    S    
C1    O1    A    
Cu1   O7    S    
N4    H9    S    
C13   H1    S    
C18   C19   A    
C9    C17   A    
C14   O5    A    
C15   C17   S    
C8    H5    S    
H2    N1    S    
N5    H11   S    
C5    C16   A    
C12   O3    A    
C18   F2    S    
C2    C20   A    
C1    O2    A    
C15   O7    A    
C7    H6    S    
C8    C17   A    
C4    C5    A    
