data_mof_unit_45197.cif
_audit_creation_date              2012-12-10T20:35:51-0500
_audit_creation_method            fapswitch 2.2
_symmetry_space_group_name_H-M    P1
_symmetry_Int_Tables_number       1
_space_group_crystal_system       triclinic
_cell_length_a                    15.745993
_cell_length_b                    10.660533
_cell_length_c                    9.860528
_cell_angle_alpha                 89.908685
_cell_angle_beta                  90.222814
_cell_angle_gamma                 90.08558
_cell_volume                      1655.17846647

loop_
_atom_site_label
_atom_site_type_symbol
_atom_type_description
_atom_site_fract_x
_atom_site_fract_y
_atom_site_fract_z
_atom_type_partial_charge
C1    C     C_R   0.505519 0.260278 0.500281 0.875256
C2    C     C_3   0.950276 0.395334 0.601342 0.104173
C3    C     C_3   0.917345 0.501435 0.505555 0.121340
C4    C     C_3   0.950654 0.630808 0.556151 0.274171
C5    C     C_3   0.049580 0.633554 0.550149 0.265312
C6    C     C_1   0.825785 0.500687 0.503090 0.007350
C7    C     C_1   0.174437 0.501434 0.500796 0.029003
C8    C     C_1   0.249633 0.500592 0.499617 -0.168342
C9    C     C_R   0.501373 0.064019 0.621684 0.021092
C10   C     C_R   0.521772 0.129077 0.503640 -0.210846
C11   C     C_R   0.556726 0.063472 0.392020 0.427383
C12   C     C_R   0.338349 0.499927 0.499836 0.922173
C13   C     C_R   0.550036 0.933550 0.390721 -0.211801
C14   C     C_R   0.514137 0.871494 0.502039 -0.194765
C15   C     C_R   0.498145 0.936483 0.621054 0.013493
C16   C     C_3   0.423141 0.933449 0.714553 0.299657
C17   C     C_3   0.427088 0.076143 0.715237 -0.513431
C18   C     C_R   0.455048 0.411402 0.071108 0.257956
C19   C     C_R   0.550164 0.580293 0.072171 -0.119300
C20   C     C_R   0.550162 0.580315 0.928151 -0.121872
C21   C     C_R   0.454970 0.411508 0.928519 0.217165
C22   C     C_3   0.361286 0.391348 0.922408 -0.506560
C23   C     C_R   0.501781 0.740047 0.499998 0.949275
C24   C     C_3   0.361430 0.390894 0.076359 -0.515147
C25   C     C_R   0.661708 0.500001 0.500228 0.881109
C26   C     C_3   0.048826 0.391353 0.593461 0.334399
C27   C     C_3   0.048666 0.480155 0.357582 -0.459084
C28   C     C_3   0.950586 0.477441 0.359600 -0.451563
C29   C     C_1   0.750525 0.500262 0.501245 -0.171557
C30   C     C_3   0.083097 0.502579 0.503599 0.053195
H1    H     H_    0.925313 0.303215 0.564194 0.095239
H2    H     H_    0.571214 0.882084 0.302402 0.182893
H3    H     H_    0.437730 0.889586 0.814288 0.141116
H4    H     H_    0.371648 0.123130 0.666851 0.205868
H5    H     H_    0.446097 0.115102 0.815367 0.187617
H6    H     H_    0.589337 0.646847 0.126695 0.151903
H7    H     H_    0.062464 0.305730 0.532594 0.092538
H8    H     H_    0.589326 0.646887 0.873900 0.150641
H9    H     H_    0.326729 0.472658 0.878119 0.226589
H10   H     H_    0.344393 0.298927 0.877816 0.210686
H11   H     H_    0.326816 0.471784 0.120706 0.223118
H12   H     H_    0.344982 0.298042 0.120553 0.211242
H13   H     H_    0.070875 0.554746 0.286973 0.259184
H14   H     H_    0.072865 0.389893 0.316310 0.165519
H15   H     H_    0.927811 0.384629 0.322607 0.171280
H16   H     H_    0.925542 0.549758 0.288443 0.255191
H17   H     H_    0.074620 0.657105 0.652176 0.024401
H18   H     H_    0.930644 0.643240 0.663831 0.082089
N1    N     N_R   0.499430 0.499140 0.142800 -0.111885
N2    N     N_R   0.499430 0.499180 0.857150 -0.109360
O1    O     O_R   0.500010 0.316790 0.614690 -0.608101
O2    O     O_R   0.500000 0.316760 0.385350 -0.606698
O3    O     O_R   0.377150 0.500020 0.614720 -0.607096
O4    O     O_R   0.377140 0.499990 0.385380 -0.618231
O5    O     O_R   0.500000 0.683240 0.614650 -0.608091
O6    O     O_R   0.499990 0.683210 0.385310 -0.630563
O7    O     O_R   0.622860 0.500010 0.614620 -0.618428
O8    O     O_R   0.622850 0.499980 0.385280 -0.619362
Zn1   Zn    Zn3+2 0.500010 0.500020 0.653130 0.964743
Zn2   Zn    Zn3+2 0.499990 0.499980 0.346870 0.959442
O9    O     O_3   0.090617 0.363471 0.718770 -0.568752
C31   C     C_3   0.102305 0.466463 0.806365 -0.183800
H19   H     H_    0.044457 0.524279 0.818391 0.184750
H20   H     H_    0.157578 0.523676 0.774215 0.136041
H21   H     H_    0.118094 0.429512 0.908599 0.181255
O10   O     O_3   0.922569 0.413431 0.735357 -0.752725
H22   H     H_    0.864005 0.379327 0.741418 0.343613
O11   O     O_3   0.915127 0.727947 0.477344 -0.719824
H23   H     H_    0.918110 0.805507 0.532791 0.327456
O12   O     O_3   0.593912 0.121506 0.282155 -0.754096
H24   H     H_    0.620723 0.200291 0.314001 0.339994
O13   O     O_3   0.348736 0.884923 0.654314 -0.740141
H25   H     H_    0.340583 0.925453 0.564400 0.343001
O14   O     O_3   0.078220 0.727035 0.459813 -0.709195
H26   H     H_    0.076081 0.808316 0.508769 0.339706

loop_
_geom_bond_atom_site_label_1
_geom_bond_atom_site_label_2
_ccdc_geom_bond_type
O5    Zn1   S    
C18   C21   A    
C24   H12   S    
C13   H2    S    
C19   C20   A    
C16   O13   S    
C3    C6    S    
O3    Zn1   S    
C11   O12   S    
C7    C8    T    
O4    Zn2   S    
C5    H17   S    
C28   H16   S    
N1    Zn2   S    
C18   C24   S    
N2    Zn1   S    
C3    C28   S    
C26   O9    S    
C19   H6    S    
O7    Zn1   S    
O8    Zn2   S    
C15   C16   S    
C5    O14   S    
C31   H20   S    
O2    Zn2   S    
O11   H23   S    
C27   H14   S    
C16   C17   S    
C20   N2    A    
O12   H24   S    
C9    C10   A    
C12   O3    A    
O10   H22   S    
C7    C30   S    
C13   C14   A    
C27   C30   S    
C24   H11   S    
C25   O7    A    
C21   N2    A    
C25   C29   S    
C28   H15   S    
O14   H26   S    
C23   O6    A    
C4    O11   S    
O13   H25   S    
O6    Zn2   S    
C2    H1    S    
C14   C23   S    
C31   H19   S    
C16   H3    S    
C20   H8    S    
C19   N1    A    
C8    C12   S    
C22   H10   S    
C2    C26   S    
C1    O1    A    
C9    C17   S    
C26   C30   S    
C22   C24   S    
O1    Zn1   S    
C17   H4    S    
C3    C4    S    
C5    C30   S    
C4    H18   S    
C31   H21   S    
C1    C10   S    
C4    C5    S    
C2    O10   S    
C26   H7    S    
C23   O5    A    
C2    C3    S    
C9    C15   A    
C11   C13   A    
C22   H9    S    
O9    C31   S    
C1    O2    A    
C10   C11   A    
C27   H13   S    
C6    C29   T    
C25   O8    A    
C27   C28   S    
C14   C15   A    
C17   H5    S    
C21   C22   S    
C12   O4    A    
C18   N1    A    
