data_mof_unit_53578.cif
_audit_creation_date              2013-03-05T15:52:44-0500
_audit_creation_method            fapswitch 2.2
_symmetry_space_group_name_H-M    P1
_symmetry_Int_Tables_number       1
_space_group_crystal_system       triclinic
_cell_length_a                    10.731553
_cell_length_b                    10.764045
_cell_length_c                    17.001104
_cell_angle_alpha                 99.401456
_cell_angle_beta                  99.781789
_cell_angle_gamma                 61.422517
_cell_volume                      1691.88893413

loop_
_atom_site_label
_atom_site_type_symbol
_atom_site_description
_atom_site_fract_x
_atom_site_fract_y
_atom_site_fract_z
_atom_type_partial_charge
O1    O     O_R   0.749250 0.499990 0.439200 -0.525859
O2    O     O_R   0.477870 0.725740 0.440280 -0.492152
C1    C     C_R   0.354993 0.774557 0.401112 0.560787
O3    O     O_R   0.260770 0.742210 0.412610 -0.506977
O4    O     O_R   0.297990 0.466320 0.394220 -0.499645
C2    C     C_R   0.369365 0.346617 0.357222 0.548241
O5    O     O_R   0.487720 0.253870 0.385870 -0.501431
O6    O     O_R   0.721940 0.304340 0.422320 -0.448883
C3    C     C_R   0.777335 0.376465 0.405329 0.568960
O7    O     O_R   0.750770 0.502570 0.614050 -0.485699
O8    O     O_R   0.479280 0.728140 0.602370 -0.485913
C4    C     C_R   0.381133 0.715149 0.631643 0.553498
O9    O     O_R   0.262290 0.744790 0.587460 -0.484989
O10   O     O_R   0.299400 0.468710 0.556310 -0.489507
C5    C     C_R   0.370523 0.347186 0.583247 0.534570
O11   O     O_R   0.489240 0.256450 0.560730 -0.504842
O12   O     O_R   0.723350 0.306730 0.584410 -0.506385
C6    C     C_R   0.773357 0.380908 0.629607 0.539634
Cr1   Cr    Cr6+3 0.608020 0.610770 0.522990 1.058832
Cr2   Cr    Cr6+3 0.289390 0.599570 0.488050 1.054908
Cr3   Cr    Cr6+3 0.602610 0.289690 0.489020 1.057074
O13   O     O_3   0.500010 0.500010 0.500020 -0.291470
C7    C     C_1   0.342854 0.336654 0.273828 -0.036985
C8    C     C_1   0.332013 0.326316 0.202925 -0.036604
C9    C     C_2   0.853394 0.327998 0.334604 -0.055536
C10   C     C_2   0.838852 0.324253 0.161815 -0.110352
C11   C     C_2   0.882152 0.208345 0.200331 -0.154520
C12   C     C_2   0.853959 0.218967 0.282669 0.056412
H1    H     H_    0.940683 0.101855 0.171459 0.157514
H2    H     H_    0.778454 0.430902 0.189907 0.101818
H3    H     H_    0.889580 0.397911 0.318051 0.077136
C13   C     C_2   0.331651 0.846496 0.330845 -0.109341
C14   C     C_2   0.343413 0.826359 0.158923 -0.111528
C15   C     C_2   0.427825 0.861946 0.215218 -0.165108
C16   C     C_2   0.443425 0.832890 0.298116 -0.158948
H4    H     H_    0.482117 0.917719 0.201526 0.163810
H5    H     H_    0.549485 0.792950 0.330522 0.162561
H6    H     H_    0.292146 0.767904 0.173075 0.112621
H7    H     H_    0.225261 0.891109 0.298654 0.106101
C17   C     C_2   0.350661 0.332794 0.662195 -0.072707
C18   C     C_2   0.332014 0.362565 0.835243 0.173826
C19   C     C_2   0.456610 0.298349 0.802686 0.157367
C20   C     C_2   0.458487 0.318271 0.720046 -0.091948
H8    H     H_    0.556124 0.312255 0.705440 0.151801
H9    H     H_    0.252126 0.336576 0.673054 0.130453
C21   C     C_1   0.817429 0.342035 0.708715 -0.012319
C22   C     C_1   0.844009 0.313851 0.776483 0.010712
C23   C     C_1   0.358137 0.766056 0.713557 0.009420
C24   C     C_1   0.325117 0.813455 0.780244 0.036429
O14   O     O_R   0.170650 0.915100 0.051290 -0.511892
O15   O     O_R   0.941960 0.184500 0.049060 -0.481774
C25   C     C_R   0.895680 0.306931 0.087236 0.567745
O16   O     O_R   0.922640 0.402670 0.071640 -0.511857
O17   O     O_R   0.196880 0.368740 0.083740 -0.502616
C26   C     C_R   0.319220 0.299475 0.119668 0.548884
O18   O     O_R   0.411120 0.181190 0.091480 -0.505822
O19   O     O_R   0.364220 0.944920 0.062310 -0.500657
C27   C     C_R   0.294017 0.891719 0.084149 0.547699
O20   O     O_R   0.158740 0.906940 0.874970 -0.451386
O21   O     O_R   0.930920 0.176940 0.885610 -0.442953
C28   C     C_R   0.885311 0.297233 0.858718 0.589194
O22   O     O_R   0.910730 0.394510 0.895320 -0.489669
O23   O     O_R   0.185840 0.361180 0.920280 -0.463832
C29   C     C_R   0.307479 0.296136 0.895255 0.564918
O24   O     O_R   0.399210 0.173040 0.915160 -0.468879
O25   O     O_R   0.353170 0.937370 0.898860 -0.506682
C30   C     C_R   0.279934 0.881956 0.857004 0.566891
Cr4   Cr    Cr6+3 0.053780 0.052210 0.965970 1.129435
Cr5   Cr    Cr6+3 0.060060 0.372530 0.992430 1.084211
Cr6   Cr    Cr6+3 0.372600 0.061970 0.991430 1.074547
O26   O     O_3   0.162150 0.162240 0.983280 -0.296063
N1    N     N_R   0.214656 0.490563 0.805318 0.043147
O27   O     O_R   0.238193 0.590088 0.787747 -0.348668
O28   O     O_R   0.084487 0.507939 0.795109 -0.303553
N2    N     N_3   0.826184 0.112624 0.305577 -0.572163
H10   H     H_    0.914743 0.013746 0.295548 0.221202
H11   H     H_    0.738884 0.111784 0.267708 0.245715
N3    N     N_R   0.588576 0.204353 0.845415 0.072301
O29   O     O_R   0.618088 0.235676 0.921188 -0.330659
O30   O     O_R   0.688126 0.100256 0.806203 -0.311602

loop_
_geom_bond_atom_site_label_1
_geom_bond_atom_site_label_2
_geom_bond_distance
_ccdc_geom_bond_type
C9    H3    1.087302 S    
C26   O18   1.258309 A    
C14   C27   1.448603 S    
C11   H1    1.086987 S    
C18   C19   1.346960 D    
N2    H10   1.045534 S    
O16   Cr5   2.041550 S    
C3    C9    1.450980 S    
O4    Cr2   1.945853 S    
C9    C12   1.346658 D    
O8    Cr1   1.932049 S    
C10   C11   1.345431 D    
O11   Cr3   2.038998 S    
C16   H5    1.086283 S    
O4    C2    1.263839 A    
N3    O30   1.301545 A    
O24   Cr6   2.037450 S    
C15   C16   1.458040 S    
C13   H7    1.087511 S    
Cr5   O26   1.979544 S    
O20   C30   1.276992 A    
O17   C26   1.261938 A    
C17   C20   1.349524 D    
O23   Cr5   1.922868 S    
O6    C3    1.269932 A    
C7    C8    1.183169 T    
Cr6   O26   1.973638 S    
O19   Cr6   1.920644 S    
C4    C23   1.427821 S    
O25   C30   1.264766 A    
Cr3   O13   1.979756 S    
C1    C13   1.450672 S    
C6    C21   1.409253 S    
C14   C15   1.341991 D    
C17   H9    1.084715 S    
O1    Cr1   2.048886 S    
O15   C25   1.268292 A    
O14   C27   1.266506 A    
C13   C16   1.342387 D    
O10   Cr2   1.920760 S    
Cr1   O13   1.983335 S    
O1    C3    1.271134 A    
N1    O28   1.301828 A    
N3    O29   1.301971 A    
O5    Cr3   2.059945 S    
O12   Cr3   1.938749 S    
O22   Cr5   2.053219 S    
O21   C28   1.279160 A    
C8    C26   1.394335 S    
C20   H8    1.087191 S    
C10   C25   1.446052 S    
O20   Cr4   2.055268 S    
O7    Cr1   2.043579 S    
O12   C6    1.259107 A    
N2    H11   1.045727 S    
C18   N1    1.447235 S    
C23   C24   1.202440 T    
Cr2   O13   1.973914 S    
C10   H2    1.086400 S    
O18   Cr6   2.065537 S    
C19   C20   1.460304 S    
C1    O3    1.268107 A    
C25   O16   1.271456 A    
C21   C22   1.191853 T    
C24   C30   1.428431 S    
O9    Cr2   2.062377 S    
O2    Cr1   1.925393 S    
N1    O27   1.299910 A    
O6    Cr3   1.922430 S    
C22   C28   1.406560 S    
O8    C4    1.310865 A    
C19   N3    1.441098 S    
C2    O5    1.258038 A    
C14   H6    1.087244 S    
C29   O24   1.274626 A    
O2    C1    1.269433 A    
O19   C27   1.269114 A    
O25   Cr6   1.945653 S    
O17   Cr5   1.938114 S    
O7    C6    1.277256 A    
Cr4   O26   1.982279 S    
C2    C7    1.394652 S    
C15   H4    1.086473 S    
O15   Cr4   1.935786 S    
C28   O22   1.249298 A    
C5    C17   1.437941 S    
O23   C29   1.261834 A    
O3    Cr2   2.038395 S    
C4    O9    1.286894 A    
O21   Cr4   1.923835 S    
C11   C12   1.456932 S    
O10   C5    1.274817 A    
C18   C29   1.459904 S    
C12   N2    1.436076 S    
O14   Cr4   2.040978 S    
C5    O11   1.255678 A    
