data_mof_unit_57979.cif
_audit_creation_date              2013-03-05T15:53:24-0500
_audit_creation_method            fapswitch 2.2
_symmetry_space_group_name_H-M    P1
_symmetry_Int_Tables_number       1
_space_group_crystal_system       triclinic
_cell_length_a                    10.621898
_cell_length_b                    10.634409
_cell_length_c                    16.887227
_cell_angle_alpha                 98.600009
_cell_angle_beta                  98.77818
_cell_angle_gamma                 62.193263
_cell_volume                      1660.79561698

loop_
_atom_site_label
_atom_site_type_symbol
_atom_site_description
_atom_site_fract_x
_atom_site_fract_y
_atom_site_fract_z
_atom_type_partial_charge
O1    O     O_R   0.751220 0.499230 0.435170 -0.458020
O2    O     O_R   0.477220 0.727600 0.436870 -0.509593
C1    C     C_R   0.354679 0.775127 0.398970 0.599019
O3    O     O_R   0.258650 0.745120 0.411470 -0.473246
O4    O     O_R   0.297070 0.467240 0.395960 -0.435132
C2    C     C_R   0.374106 0.349422 0.357920 0.614781
O5    O     O_R   0.488830 0.252610 0.387790 -0.507580
O6    O     O_R   0.724400 0.302390 0.420980 -0.491341
C3    C     C_R   0.773930 0.379269 0.400675 0.647696
O7    O     O_R   0.752100 0.501210 0.612190 -0.417148
O8    O     O_R   0.478040 0.729440 0.600970 -0.498953
C4    C     C_R   0.378558 0.717650 0.631916 0.518812
O9    O     O_R   0.259530 0.747110 0.588490 -0.461055
O10   O     O_R   0.297880 0.469080 0.560050 -0.486519
C5    C     C_R   0.368942 0.346192 0.585997 0.613338
O11   O     O_R   0.489720 0.254590 0.564810 -0.481671
O12   O     O_R   0.725220 0.304230 0.585080 -0.473695
C6    C     C_R   0.718128 0.410267 0.635623 0.532110
Cr1   Cr    Cr6+3 0.608340 0.611040 0.520430 1.110266
Cr2   Cr    Cr6+3 0.287650 0.601120 0.489350 1.149203
Cr3   Cr    Cr6+3 0.604040 0.287870 0.490280 1.089880
O13   O     O_3   0.500010 0.500010 0.500020 -0.362409
C7    C     C_1   0.349135 0.340136 0.274041 -0.002567
C8    C     C_1   0.336197 0.329659 0.202775 -0.032912
C9    C     C_3   0.742854 0.284086 0.198622 -0.178248
C10   C     C_3   0.679092 0.428663 0.251525 -0.194538
H1    H     H_    0.565041 0.493661 0.262701 0.097327
H2    H     H_    0.680816 0.232566 0.161737 0.154183
C11   C     C_3   0.802954 0.360281 0.317979 0.017454
C12   C     C_3   0.864019 0.217845 0.266345 -0.137227
C13   C     C_3   0.958340 0.268973 0.231979 -0.120658
C14   C     C_3   0.893753 0.411200 0.283186 0.229730
C15   C     C_3   0.774972 0.476032 0.217101 0.200126
C16   C     C_3   0.836643 0.334539 0.165397 0.013412
H3    H     H_    0.894803 0.114490 0.289859 0.180386
H4    H     H_    0.072449 0.212086 0.220502 0.118701
C17   C     C_3   0.384723 0.762728 0.200289 -0.095637
C18   C     C_3   0.268128 0.775003 0.249115 -0.156190
H5    H     H_    0.232309 0.691824 0.247987 0.164424
H6    H     H_    0.435306 0.671386 0.155356 0.179327
C19   C     C_3   0.336754 0.830865 0.323462 0.025997
C20   C     C_3   0.454448 0.817733 0.275764 -0.109492
C21   C     C_3   0.359241 0.974293 0.255253 -0.111122
C22   C     C_3   0.243596 0.982451 0.303637 0.183738
C23   C     C_3   0.171835 0.930040 0.229326 -0.134107
C24   C     C_3   0.289800 0.917670 0.181123 0.010854
H7    H     H_    0.567811 0.772005 0.300783 0.191016
H8    H     H_    0.396143 0.056104 0.255754 0.146983
H9    H     H_    0.058794 0.968722 0.204624 0.140168
C25   C     C_3   0.463057 0.277981 0.781226 -0.147555
C26   C     C_3   0.389851 0.415858 0.737260 -0.198283
H10   H     H_    0.440490 0.484793 0.733000 0.089014
H11   H     H_    0.567966 0.239596 0.817860 0.118881
C27   C     C_3   0.343197 0.334099 0.664860 0.067666
C28   C     C_3   0.414238 0.199169 0.709000 0.266855
C29   C     C_3   0.271842 0.241924 0.742368 -0.091232
C30   C     C_3   0.203958 0.379662 0.699821 0.182510
C31   C     C_3   0.246321 0.462559 0.772645 -0.125366
C32   C     C_3   0.319820 0.323669 0.814641 -0.022168
H12   H     H_    0.222795 0.171043 0.746129 0.132193
H13   H     H_    0.177543 0.570150 0.800786 0.146636
C33   C     C_1   0.768108 0.367574 0.715553 -0.026685
C34   C     C_1   0.812875 0.329635 0.782217 -0.044771
C35   C     C_1   0.356439 0.768031 0.714402 -0.057536
C36   C     C_1   0.324853 0.813658 0.781898 -0.051543
O14   O     O_R   0.171830 0.913880 0.057510 -0.509228
O15   O     O_R   0.940690 0.186050 0.054730 -0.536248
C37   C     C_R   0.885054 0.313302 0.087360 0.564147
O16   O     O_R   0.920470 0.405720 0.075010 -0.443385
O17   O     O_R   0.196690 0.370460 0.084120 -0.479718
C38   C     C_R   0.320479 0.300515 0.119450 0.524335
O18   O     O_R   0.412990 0.180750 0.091610 -0.522936
O19   O     O_R   0.366620 0.943130 0.065760 -0.449827
C39   C     C_R   0.257231 0.959215 0.099422 0.558668
O20   O     O_R   0.160510 0.906330 0.879210 -0.513310
O21   O     O_R   0.930190 0.179050 0.889450 -0.504683
C40   C     C_R   0.878657 0.302035 0.862191 0.545071
O22   O     O_R   0.909140 0.398170 0.896710 -0.497261
O23   O     O_R   0.186190 0.363460 0.918830 -0.495552
C41   C     C_R   0.308991 0.295037 0.892987 0.544227
O24   O     O_R   0.401670 0.173200 0.913310 -0.531206
O25   O     O_R   0.356120 0.936130 0.900470 -0.492956
C42   C     C_R   0.281784 0.880814 0.859657 0.561001
Cr4   Cr    Cr6+3 0.054020 0.052700 0.970850 1.011052
Cr5   Cr    Cr6+3 0.059230 0.375120 0.993390 1.078562
Cr6   Cr    Cr6+3 0.374950 0.061200 0.992340 1.051143
O26   O     O_3   0.162740 0.163010 0.985530 -0.292934
N1    N     N_R   0.173792 0.094119 0.366331 0.065598
O27   O     O_R   0.213374 0.193774 0.387956 -0.296810
O28   O     O_R   0.090010 0.081138 0.409694 -0.307319
O29   O     O_3   0.496753 0.063192 0.670196 -0.523570
C43   C     C_3   0.587125 0.966259 0.727190 0.014927
H14   H     H_    0.587167 0.861978 0.707677 0.179683
H15   H     H_    0.550116 0.997036 0.788735 0.140083
C44   C     C_3   0.740423 0.945052 0.729174 -0.251070
H16   H     H_    0.782180 0.892812 0.670226 0.211541
H17   H     H_    0.742105 0.049895 0.739021 0.168738
C45   C     C_3   0.838033 0.852802 0.795814 -0.433152
H18   H     H_    0.803579 0.908060 0.855630 0.142172
H19   H     H_    0.949507 0.833201 0.792890 0.184060
H20   H     H_    0.835472 0.748451 0.788706 0.184333
N2    N     N_R   0.067588 0.433676 0.651084 0.093928
O30   O     O_R   0.976342 0.567764 0.661275 -0.344489
O31   O     O_R   0.046738 0.354100 0.589373 -0.243217
N3    N     N_R   0.978591 0.479557 0.326631 0.113600
O32   O     O_R   0.041180 0.526076 0.286587 -0.307959
O33   O     O_R   0.995819 0.491328 0.404790 -0.237212
N4    N     N_R   0.729827 0.612705 0.185079 0.074865
O34   O     O_R   0.776457 0.701908 0.221173 -0.290514
O35   O     O_R   0.659863 0.636860 0.114251 -0.345661

loop_
_geom_bond_atom_site_label_1
_geom_bond_atom_site_label_2
_geom_bond_distance
_ccdc_geom_bond_type
C28   C29   1.534226 S    
O11   Cr3   2.045602 S    
C19   C20   1.530349 S    
C44   H16   1.111660 S    
Cr4   O26   1.964872 S    
O23   Cr5   1.932587 S    
O21   Cr4   1.943373 S    
C44   C45   1.526076 S    
O4    Cr2   1.941133 S    
C23   C24   1.541255 S    
C29   C30   1.533924 S    
C9    H2    1.109906 S    
C30   N2    1.451458 S    
N3    O33   1.299818 A    
O8    Cr1   1.946099 S    
C10   H1    1.109283 S    
C17   C18   1.536011 S    
C12   H3    1.108267 S    
C25   C32   1.536120 S    
C17   H6    1.106824 S    
C12   C13   1.554424 S    
C4    C35   1.428939 S    
O20   Cr4   2.066014 S    
C36   C42   1.428873 S    
C5    O11   1.262011 A    
O14   C39   1.290835 A    
N4    O34   1.300011 A    
O19   C39   1.299827 A    
C17   C20   1.551869 S    
C18   C23   1.537290 S    
C28   O29   1.413528 S    
C37   O16   1.257428 A    
C7    C8    1.184638 T    
O17   C38   1.272375 A    
C21   H8    1.107050 S    
O24   Cr6   2.046146 S    
C3    C11   1.440503 S    
C9    C16   1.534426 S    
C31   H13   1.110026 S    
O15   Cr4   1.947712 S    
Cr3   O13   1.989031 S    
C15   N4    1.463060 S    
C15   C16   1.522372 S    
Cr5   O26   1.988881 S    
C18   H5    1.110993 S    
O1    Cr1   2.064329 S    
C25   H11   1.109876 S    
O15   C37   1.270596 A    
C5    C27   1.435312 S    
O10   Cr2   1.930902 S    
Cr1   O13   1.965149 S    
O1    C3    1.248400 A    
O21   C40   1.287353 A    
C18   C19   1.536945 S    
C16   C37   1.435805 S    
O29   C43   1.414886 S    
Cr6   O26   1.986831 S    
O6    C3    1.266083 A    
C25   C26   1.546420 S    
C31   C32   1.537035 S    
C40   O22   1.250125 A    
C43   C44   1.531803 S    
O12   Cr3   1.935626 S    
C29   H12   1.111049 S    
C21   C22   1.539394 S    
C11   C12   1.528519 S    
C10   C15   1.541362 S    
C13   C14   1.525748 S    
C23   H9    1.105691 S    
O7    Cr1   2.062080 S    
C33   C34   1.204038 T    
C43   H15   1.115700 S    
O12   C6    1.287748 A    
C13   C16   1.539904 S    
C26   C31   1.552704 S    
N1    O27   1.298594 A    
N2    O31   1.300719 A    
O22   Cr5   2.056188 S    
Cr2   O13   1.986880 S    
O25   C42   1.261161 A    
C45   H19   1.110130 S    
C14   N3    1.458976 S    
C19   C22   1.503980 S    
C20   C21   1.552201 S    
C1    O3    1.255534 A    
C24   C39   1.453436 S    
O16   Cr5   2.053414 S    
C22   C23   1.536772 S    
C34   C40   1.427425 S    
C9    C12   1.551260 S    
C27   C28   1.523803 S    
C1    C19   1.435319 S    
O9    Cr2   2.060366 S    
O2    Cr1   1.944222 S    
O10   C5    1.272623 A    
C6    C33   1.431640 S    
N1    O28   1.300400 A    
C41   O24   1.267083 A    
O6    Cr3   1.929436 S    
C32   C41   1.433873 S    
O18   Cr6   2.055480 S    
O8    C4    1.310397 A    
C44   H17   1.110527 S    
C2    O5    1.263541 A    
C11   C14   1.524460 S    
C45   H20   1.110827 S    
N3    O32   1.299268 A    
C25   C28   1.538085 S    
C29   C32   1.552803 S    
C26   C27   1.547741 S    
C35   C36   1.202757 T    
O2    C1    1.260157 A    
C9    C10   1.556623 S    
C26   H10   1.107870 S    
O25   Cr6   1.937091 S    
C14   C15   1.517039 S    
O5    Cr3   2.054579 S    
O20   C42   1.272369 A    
C30   C31   1.539160 S    
O4    C2    1.270926 A    
O7    C6    1.306048 A    
C2    C7    1.398024 S    
C43   H14   1.108456 S    
N4    O35   1.300515 A    
C20   H7    1.106695 S    
N2    O30   1.300157 A    
C21   C24   1.543009 S    
O19   Cr6   1.929856 S    
O14   Cr4   2.061695 S    
O23   C41   1.270660 A    
O3    Cr2   2.051392 S    
C38   O18   1.266108 A    
C4    O9    1.284749 A    
C10   C11   1.555617 S    
C45   H18   1.110961 S    
C13   H4    1.106859 S    
C17   C24   1.531737 S    
C22   N1    1.457038 S    
O17   Cr5   1.937594 S    
C8    C38   1.396455 S    
C27   C30   1.510993 S    
