data_mof_unit_44690.cif
_audit_creation_date              2013-03-05T16:06:00-0500
_audit_creation_method            fapswitch 2.2
_symmetry_space_group_name_H-M    P1
_symmetry_Int_Tables_number       1
_space_group_crystal_system       triclinic
_cell_length_a                    10.97169
_cell_length_b                    9.695196
_cell_length_c                    23.607674
_cell_angle_alpha                 91.412523
_cell_angle_beta                  94.720083
_cell_angle_gamma                 90.159671
_cell_volume                      2501.9054336

loop_
_atom_site_label
_atom_site_type_symbol
_atom_site_description
_atom_site_fract_x
_atom_site_fract_y
_atom_site_fract_z
_atom_type_partial_charge
O1    O     O_R   0.319640 0.618740 0.500000 -0.553296
O2    O     O_R   0.680360 0.381260 0.500000 -0.554162
O3    O     O_R   0.680360 0.618740 0.500000 -0.550507
O4    O     O_R   0.319640 0.381260 0.500000 -0.556881
C1    C     C_R   0.263145 0.499446 0.501833 0.841134
C2    C     C_R   0.737685 0.500145 0.500306 0.835722
O5    O     O_R   0.499960 0.618810 0.417880 -0.573382
O6    O     O_R   0.500040 0.381190 0.582120 -0.597364
O7    O     O_R   0.500040 0.618810 0.582120 -0.573426
O8    O     O_R   0.499960 0.381190 0.417880 -0.594026
C3    C     C_R   0.496548 0.497973 0.391228 0.792745
C4    C     C_R   0.500130 0.500826 0.608650 0.797208
Cu1   Cu    Cu3+1 0.500000 0.640660 0.500000 1.003804
Cu2   Cu    Cu3+1 0.500000 0.359340 0.500000 0.982275
C5    C     C_R   0.592583 0.485511 0.885021 0.537062
C6    C     C_R   0.375852 0.477831 0.113627 0.539191
N1    N     N_R   0.485395 0.500138 0.851600 -0.452106
N2    N     N_R   0.482696 0.497937 0.147242 -0.451475
C7    C     C_R   0.377210 0.522453 0.875676 0.551473
C8    C     C_R   0.589260 0.529001 0.123543 0.551579
C9    C     C_R   0.371113 0.511380 0.935133 -0.027079
C10   C     C_R   0.595642 0.518665 0.063948 -0.026815
C11   C     C_R   0.483016 0.506148 0.969564 -0.052826
C12   C     C_R   0.484065 0.506235 0.029414 -0.053513
C13   C     C_R   0.594296 0.499340 0.944228 -0.042697
C14   C     C_R   0.373275 0.492409 0.054636 -0.042767
C15   C     C_R   0.259058 0.503929 0.961528 0.140568
C16   C     C_R   0.707885 0.518053 0.037542 0.142085
C17   C     C_R   0.262369 0.490310 0.020635 -0.149626
C18   C     C_R   0.705143 0.504115 0.978233 -0.150152
O9    O     O_2   0.697524 0.456966 0.861087 -0.548848
O10   O     O_2   0.272379 0.442513 0.137026 -0.549802
O11   O     O_2   0.277164 0.556326 0.842024 -0.535450
O12   O     O_2   0.687576 0.570294 0.157798 -0.539387
H1    H     H_    0.177115 0.480679 0.040405 0.182044
H2    H     H_    0.790709 0.499817 0.958355 0.182432
C19   C     C_R   0.569119 0.405130 0.239934 0.215983
C20   C     C_R   0.408995 0.407881 0.755039 0.206031
C21   C     C_R   0.580114 0.417377 0.300117 0.026951
C22   C     C_R   0.404956 0.419939 0.695131 0.054824
C23   C     C_R   0.490451 0.491363 0.328357 -0.061907
C24   C     C_R   0.495536 0.499978 0.671026 -0.054417
C25   C     C_R   0.392212 0.552700 0.295763 0.086689
C26   C     C_R   0.584693 0.571204 0.707267 0.066759
C27   C     C_R   0.397052 0.562600 0.237193 -0.148589
C28   C     C_R   0.571481 0.579797 0.765396 -0.141524
H3    H     H_    0.328015 0.622184 0.213291 0.185653
H4    H     H_    0.633942 0.644731 0.792268 0.182533
C29   C     C_R   0.483465 0.488605 0.208450 0.266267
C30   C     C_R   0.487289 0.496490 0.790275 0.268416
C31   C     C_R   0.062686 0.373446 0.494726 0.231436
C32   C     C_R   0.940664 0.622891 0.514422 0.231960
C33   C     C_R   0.935518 0.374375 0.493073 0.226491
C34   C     C_R   0.068375 0.620238 0.518481 0.229482
C35   C     C_R   0.872487 0.499848 0.501405 -0.383453
C36   C     C_R   0.130028 0.497283 0.505655 -0.383472
C37   C     C_R   0.432227 0.072058 0.458424 0.261949
C38   C     C_R   0.566728 0.928960 0.541772 0.264563
C39   C     C_R   0.570226 0.076884 0.540817 0.270809
C40   C     C_R   0.428507 0.924239 0.459838 0.274468
N3    N     N_R   0.500000 0.852070 0.500000 -0.186740
N4    N     N_R   0.500000 0.147930 0.500000 -0.190881
C41   C     C_3   0.135002 0.502103 0.928564 -0.727362
H5    H     H_    0.130147 0.416943 0.896118 0.252510
H6    H     H_    0.059752 0.485038 0.956390 0.194061
H7    H     H_    0.117647 0.602745 0.908069 0.265715
C42   C     C_3   0.831866 0.523535 0.070563 -0.731058
H8    H     H_    0.839845 0.438882 0.101471 0.251370
H9    H     H_    0.907698 0.510708 0.042487 0.194082
H10   H     H_    0.845478 0.625162 0.092888 0.265562
C43   C     C_3   0.642529 0.297661 0.210002 -0.784655
H11   H     H_    0.639221 0.197986 0.232039 0.228942
H12   H     H_    0.604887 0.276277 0.165600 0.224237
H13   H     H_    0.739118 0.331771 0.209712 0.253968
C44   C     C_3   0.337113 0.294733 0.780569 -0.775616
H14   H     H_    0.346904 0.196248 0.756364 0.229201
H15   H     H_    0.371195 0.274070 0.825061 0.224611
H16   H     H_    0.238899 0.322545 0.779430 0.255678
C45   C     C_3   0.684659 0.349275 0.334389 -0.683200
H17   H     H_    0.723162 0.420909 0.368786 0.230471
H18   H     H_    0.650651 0.253826 0.352902 0.261542
H19   H     H_    0.761831 0.321964 0.308845 0.238541
C46   C     C_3   0.306197 0.346239 0.656843 -0.695918
H20   H     H_    0.268869 0.416071 0.623180 0.229894
H21   H     H_    0.344443 0.252687 0.636989 0.257154
H22   H     H_    0.226984 0.314786 0.679818 0.234900
C47   C     C_3   0.274837 0.595246 0.319956 -0.827596
H23   H     H_    0.271215 0.565753 0.364790 0.208909
H24   H     H_    0.260500 0.707589 0.315341 0.238273
H25   H     H_    0.197098 0.541006 0.295708 0.254702
C48   C     C_3   0.701796 0.626975 0.687549 -0.804582
H26   H     H_    0.780616 0.582577 0.713414 0.255468
H27   H     H_    0.714443 0.597684 0.642823 0.216344
H28   H     H_    0.705414 0.740599 0.693939 0.241395
N5    N     N_R   0.121486 0.243979 0.484801 0.173289
O13   O     O_R   0.172625 0.177984 0.527785 -0.281750
O14   O     O_R   0.097718 0.178023 0.436469 -0.325116
N6    N     N_R   0.882355 0.751200 0.526517 0.161048
O15   O     O_R   0.838215 0.825555 0.484558 -0.264168
O16   O     O_R   0.902029 0.808705 0.576841 -0.330356
N7    N     N_R   0.872623 0.244659 0.483594 0.183614
O17   O     O_R   0.816888 0.215691 0.434036 -0.332576
O18   O     O_R   0.897582 0.144623 0.518314 -0.257488
N8    N     N_R   0.134638 0.742791 0.538042 0.185184
O19   O     O_R   0.202242 0.742935 0.586003 -0.324509
O20   O     O_R   0.118958 0.857268 0.510815 -0.239498
C49   C     C_3   0.369730 0.144194 0.407594 -0.662257
H29   H     H_    0.326581 0.240943 0.419902 0.274628
H30   H     H_    0.437400 0.161586 0.376071 0.205532
H31   H     H_    0.293311 0.087240 0.384380 0.212268
C50   C     C_3   0.625909 0.857558 0.592696 -0.684974
H32   H     H_    0.671065 0.763389 0.579294 0.279348
H33   H     H_    0.699330 0.914404 0.617986 0.211363
H34   H     H_    0.555137 0.837621 0.622453 0.228551
C51   C     C_3   0.653302 0.152040 0.586107 -0.691708
H35   H     H_    0.671846 0.259766 0.578833 0.262238
H36   H     H_    0.615563 0.144043 0.628150 0.193072
H37   H     H_    0.746339 0.108013 0.588109 0.250339
C52   C     C_3   0.340658 0.851327 0.416780 -0.727353
H38   H     H_    0.329334 0.742760 0.423080 0.268788
H39   H     H_    0.246937 0.892293 0.419473 0.252360
H40   H     H_    0.371250 0.865156 0.373619 0.198570

loop_
_geom_bond_atom_site_label_1
_geom_bond_atom_site_label_2
_geom_bond_distance
_ccdc_geom_bond_type
C47   H23   1.106970 S    
C41   H6    1.111030 S    
N7    O17   1.298731 A    
C15   C17   1.402346 A    
C49   H30   1.109001 S    
C1    C36   1.470823 S    
N5    O13   1.301626 A    
C2    C35   1.477110 S    
O3    C2    1.312012 A    
N8    O20   1.301004 A    
C37   N4    1.377904 A    
C21   C23   1.419526 A    
O5    C3    1.315040 A    
O1    C1    1.314014 A    
C34   N8    1.437515 S    
C7    C9    1.417403 A    
C12   C14   1.404352 A    
C5    C13   1.399439 A    
C51   H35   1.084026 S    
Cu2   N4    2.049662 S    
C19   C29   1.417574 A    
C40   C52   1.503834 S    
C31   C36   1.415055 A    
C27   H3    1.083518 S    
C32   N6    1.433624 S    
O7    Cu1   1.955351 S    
C4    C24   1.477776 S    
C43   H13   1.109879 S    
C50   H32   1.092331 S    
C26   C28   1.392214 A    
C51   H36   1.110793 S    
C11   C12   1.412008 A    
O3    Cu1   1.990821 S    
C32   C35   1.419911 A    
C8    O12   1.347553 S    
C38   N3    1.380604 A    
C22   C24   1.422745 A    
C9    C15   1.425772 A    
C41   H7    1.109773 S    
N7    O18   1.300475 A    
C10   C16   1.425282 A    
Cu1   Cu2   2.727453 S    
C23   C25   1.413179 A    
C22   C46   1.518003 S    
O2    C2    1.311090 A    
C24   C26   1.412487 A    
N8    O19   1.301487 A    
O7    C4    1.317549 A    
C32   C34   1.396938 A    
C34   C36   1.410923 A    
C20   C44   1.514817 S    
C52   H39   1.109480 S    
C6    C14   1.401236 A    
C28   H4    1.083862 S    
C42   H8    1.110447 S    
C16   C42   1.511267 S    
C7    O11   1.347307 S    
C33   N7    1.436570 S    
C48   H26   1.110909 S    
C43   H12   1.109013 S    
C37   C40   1.434886 A    
C38   C39   1.435344 A    
C41   H5    1.110453 S    
C38   C50   1.503733 S    
C40   N3    1.384625 A    
C42   H9    1.110990 S    
C21   C45   1.511313 S    
C44   H14   1.110653 S    
C48   H27   1.106471 S    
C25   C27   1.393736 A    
C46   H20   1.110029 S    
C27   C29   1.399872 A    
O6    C4    1.304496 A    
C51   H37   1.105393 S    
C50   H33   1.100571 S    
C44   H15   1.108761 S    
C26   C48   1.505595 S    
C15   C41   1.511097 S    
C6    N2    1.371118 A    
C46   H21   1.109932 S    
C8    C10   1.415491 A    
N6    O16   1.301281 A    
C19   C43   1.515168 S    
O8    Cu2   1.955350 S    
C49   H31   1.102320 S    
C10   C12   1.416996 A    
O1    Cu1   1.989644 S    
C49   H29   1.095475 S    
C45   H18   1.109707 S    
C52   H40   1.109781 S    
C13   C18   1.401022 A    
C5    N1    1.370924 A    
C17   H1    1.083980 S    
C39   N4    1.382064 A    
O6    Cu2   1.944968 S    
C37   C49   1.519181 S    
C33   C35   1.418470 A    
O4    C1    1.305737 A    
N1    C30   1.449151 S    
C45   H19   1.108184 S    
C52   H38   1.074939 S    
N5    O14   1.301124 A    
C5    O9    1.350055 S    
C20   C30   1.418075 A    
C6    O10   1.349675 S    
C28   C30   1.399691 A    
C18   H2    1.084002 S    
C42   H10   1.109724 S    
C25   C47   1.505712 S    
C9    C11   1.417327 A    
C43   H11   1.110637 S    
C19   C21   1.417969 A    
C48   H28   1.108353 S    
C20   C22   1.419059 A    
C16   C18   1.401172 A    
N1    C7    1.373015 A    
C3    C23   1.480040 S    
C50   H34   1.108796 S    
N2    C8    1.372857 A    
C11   C13   1.404089 A    
O4    Cu2   1.990822 S    
O2    Cu2   1.989643 S    
C44   H16   1.109860 S    
O8    C3    1.307941 A    
C45   H17   1.110991 S    
O5    Cu1   1.944968 S    
C46   H22   1.107605 S    
Cu1   N3    2.049661 S    
C14   C17   1.401319 A    
C39   C51   1.517375 S    
N6    O15   1.301379 A    
C47   H25   1.110862 S    
C47   H24   1.107661 S    
C31   C33   1.392648 A    
N2    C29   1.449364 S    
C31   N5    1.435808 S    
