data_mof_unit_22216.cif
_audit_creation_date              2012-12-11T17:44:05-0500
_audit_creation_method            fapswitch 2.2
_symmetry_space_group_name_H-M    P1
_symmetry_Int_Tables_number       1
_space_group_crystal_system       triclinic
_cell_length_a                    20.184703
_cell_length_b                    22.726405
_cell_length_c                    6.955865
_cell_angle_alpha                 90.033335
_cell_angle_beta                  88.017048
_cell_angle_gamma                 90.012749
_cell_volume                      3188.92290368

loop_
_atom_site_label
_atom_site_type_symbol
_atom_type_description
_atom_site_fract_x
_atom_site_fract_y
_atom_site_fract_z
_atom_type_partial_charge
O1    O     O_R   0.751270 0.447300 0.600030 -0.543170
O2    O     O_R   0.248730 0.947300 0.399970 -0.542957
O3    O     O_R   0.613530 0.440160 0.952150 -0.547793
O4    O     O_R   0.386470 0.940160 0.047850 -0.548620
O5    O     O_R   0.613050 0.552700 0.122560 -0.538819
O6    O     O_R   0.386950 0.052700 0.877440 -0.539704
C1    C     C_R   0.591433 0.425515 0.784814 0.751777
C2    C     C_R   0.408366 0.925338 0.215211 0.743091
O7    O     O_R   0.750780 0.440350 0.929820 -0.544316
O8    O     O_R   0.249220 0.940350 0.070180 -0.543912
O9    O     O_R   0.751280 0.552900 0.100070 -0.508341
O10   O     O_R   0.248720 0.052900 0.899930 -0.508293
C3    C     C_R   0.773385 0.425857 0.758766 0.717070
C4    C     C_R   0.226493 0.926000 0.241151 0.718901
O11   O     O_R   0.613040 0.447100 0.622520 -0.524486
O12   O     O_R   0.386960 0.947100 0.377480 -0.522373
O13   O     O_3   0.682160 0.536920 0.777780 -0.364183
O14   O     O_3   0.317840 0.036920 0.222220 -0.364820
V1    V     V_3+5 0.682160 0.493150 0.052630 1.444268
V2    V     V_3+5 0.317840 0.993150 0.947370 1.441272
O15   O     O_R   0.750790 0.559840 0.429870 -0.544796
O16   O     O_R   0.249210 0.059840 0.570130 -0.544776
C5    C     C_R   0.772313 0.575697 0.258319 0.741818
C6    C     C_R   0.227596 0.075629 0.741738 0.742028
O17   O     O_R   0.613540 0.559650 0.452200 -0.535651
O18   O     O_R   0.386460 0.059650 0.547800 -0.536664
C7    C     C_R   0.591566 0.574374 0.285425 0.719563
C8    C     C_R   0.408527 0.074356 0.714574 0.718336
V3    V     V_3+5 0.682160 0.506850 0.552630 1.450595
V4    V     V_3+5 0.317840 0.006850 0.447370 1.447598
O19   O     O_3   0.682150 0.463080 0.277610 -0.376190
O20   O     O_3   0.317850 0.963080 0.722390 -0.375121
C9    C     C_R   0.577947 0.862781 0.299790 -0.248496
C10   C     C_R   0.421453 0.362970 0.703618 -0.258091
H1    H     H_    0.668755 0.779665 0.336583 0.112799
H2    H     H_    0.330760 0.279569 0.666617 0.112700
H3    H     H_    0.626042 0.879056 0.339918 0.128508
H4    H     H_    0.373059 0.378971 0.665547 0.121188
C11   C     C_R   0.463736 0.882995 0.225146 -0.136748
C12   C     C_R   0.536023 0.383173 0.774744 -0.130288
C13   C     C_R   0.472246 0.594692 0.267649 -0.215495
C14   C     C_R   0.527950 0.094982 0.732465 -0.217834
C15   C     C_R   0.417675 0.631880 0.255578 0.447183
C16   C     C_R   0.582708 0.132027 0.746783 0.452723
C17   C     C_R   0.427856 0.692989 0.238126 -0.275606
C18   C     C_R   0.572588 0.193551 0.749468 -0.281009
C19   C     C_R   0.491789 0.717929 0.250106 0.049362
C20   C     C_R   0.508379 0.218158 0.743501 0.053575
C21   C     C_R   0.546441 0.679047 0.277302 0.064963
C22   C     C_R   0.453571 0.179137 0.721371 0.066336
C23   C     C_R   0.502809 0.780340 0.243935 0.108970
C24   C     C_R   0.497274 0.280531 0.750693 0.109139
C25   C     C_R   0.567029 0.802095 0.281830 0.088174
C26   C     C_R   0.432770 0.302218 0.717072 0.092224
C27   C     C_R   0.619561 0.763184 0.309171 -0.193831
C28   C     C_R   0.380179 0.263184 0.691375 -0.194301
C29   C     C_R   0.609713 0.702710 0.304063 -0.190624
C30   C     C_R   0.390124 0.202700 0.696709 -0.191745
C31   C     C_R   0.452216 0.822197 0.207469 -0.296099
C32   C     C_R   0.547892 0.322334 0.787423 -0.299928
C33   C     C_R   0.526439 0.903037 0.277079 0.401786
C34   C     C_R   0.472828 0.403494 0.729002 0.401884
C35   C     C_R   0.536396 0.617164 0.279313 -0.156166
C36   C     C_R   0.463708 0.117290 0.720464 -0.160380
H5    H     H_    0.402894 0.809111 0.170886 0.115325
H6    H     H_    0.597342 0.309151 0.822527 0.113683
H7    H     H_    0.464276 0.547528 0.271505 0.143930
H8    H     H_    0.535821 0.047798 0.729430 0.147031
H9    H     H_    0.384899 0.719994 0.218948 0.107882
H10   H     H_    0.615418 0.221604 0.747847 0.101336
H11   H     H_    0.651859 0.674522 0.327762 0.095850
H12   H     H_    0.347863 0.174422 0.675314 0.095991
C37   C     C_R   0.171869 0.882382 0.256238 -0.075096
C38   C     C_R   0.827583 0.381776 0.743500 -0.073605
C39   C     C_R   0.165828 0.837621 0.118063 -0.342293
C40   C     C_R   0.833518 0.337281 0.882541 -0.344405
C41   C     C_R   0.113691 0.795436 0.133337 0.433396
C42   C     C_R   0.885208 0.294604 0.867215 0.432988
C43   C     C_R   0.067288 0.799783 0.290166 0.348459
C44   C     C_R   0.931323 0.298320 0.709468 0.349823
C45   C     C_R   0.074325 0.844230 0.427225 -0.275663
C46   C     C_R   0.924257 0.342386 0.571277 -0.275315
C47   C     C_R   0.125898 0.884883 0.411382 -0.209434
C48   C     C_R   0.873125 0.383465 0.587209 -0.209856
C49   C     C_R   0.902929 0.689311 0.390151 0.426807
C50   C     C_R   0.096389 0.188682 0.609964 0.426989
C51   C     C_R   0.855200 0.644235 0.405233 -0.356156
C52   C     C_R   0.144388 0.143831 0.594897 -0.355594
C53   C     C_R   0.930680 0.704573 0.206138 0.249082
C54   C     C_R   0.068467 0.203824 0.793907 0.247707
N1    N     N_2   0.015206 0.758166 0.322276 -0.237713
N2    N     N_2   0.983256 0.256512 0.677898 -0.237537
N3    N     N_2   0.984655 0.744923 0.175247 -0.235466
N4    N     N_2   0.014388 0.244084 0.824585 -0.235504
C55   C     C_R   0.824835 0.622042 0.240978 -0.228240
C56   C     C_R   0.174841 0.121794 0.759156 -0.229036
H13   H     H_    0.839443 0.628987 0.546551 0.228596
H14   H     H_    0.160274 0.128638 0.453587 0.229090
H15   H     H_    0.039429 0.847369 0.548197 0.148725
H16   H     H_    0.958849 0.344940 0.449445 0.149564
H17   H     H_    0.129502 0.918719 0.520293 0.144226
H18   H     H_    0.869557 0.417009 0.477461 0.144313
C57   C     C_R   0.843622 0.646776 0.060541 0.400520
C58   C     C_R   0.155812 0.146440 0.939649 0.400171
C59   C     C_R   0.900223 0.682426 0.043911 -0.332985
C60   C     C_R   0.099017 0.181856 0.956176 -0.331478
H19   H     H_    0.918074 0.696023 0.903208 0.226347
H20   H     H_    0.081040 0.195397 0.096855 0.227207
H21   H     H_    0.203402 0.834850 0.003811 0.120653
H22   H     H_    0.796204 0.335239 0.997641 0.119669
O21   O     O_3   0.535074 0.961006 0.330660 -0.557590
C61   C     C_3   0.563631 0.992432 0.174261 0.081583
H23   H     H_    0.531080 0.990947 0.048182 0.114201
H24   H     H_    0.613466 0.974553 0.132418 0.124534
C62   C     C_3   0.571711 0.056306 0.234278 -0.673484
H25   H     H_    0.603922 0.059097 0.360172 0.240894
H26   H     H_    0.594994 0.081797 0.114572 0.191514
H27   H     H_    0.522547 0.075804 0.272733 0.221637
O22   O     O_3   0.464074 0.462311 0.685033 -0.559213
C63   C     C_3   0.423005 0.489075 0.827963 0.086081
H28   H     H_    0.444672 0.484540 0.972398 0.119387
H29   H     H_    0.372316 0.469753 0.831201 0.121114
C64   C     C_3   0.417022 0.554214 0.781643 -0.682815
H30   H     H_    0.397988 0.559794 0.635016 0.229652
H31   H     H_    0.381938 0.575616 0.885932 0.214038
H32   H     H_    0.466236 0.575862 0.788694 0.220218
O23   O     O_3   0.919801 0.718987 0.555041 -0.545940
C65   C     C_3   0.885003 0.773183 0.561435 0.106351
H33   H     H_    0.830496 0.765711 0.570524 0.104662
H34   H     H_    0.896911 0.800361 0.431587 0.131223
C66   C     C_3   0.904393 0.808717 0.736735 -0.716840
H35   H     H_    0.958545 0.805657 0.757434 0.241615
H36   H     H_    0.890757 0.855615 0.717177 0.176635
H37   H     H_    0.877728 0.792394 0.868012 0.199072
O24   O     O_3   0.079441 0.218289 0.445117 -0.544955
C67   C     C_3   0.113656 0.272795 0.439621 0.107397
H38   H     H_    0.168259 0.265850 0.432647 0.103444
H39   H     H_    0.100858 0.299995 0.568854 0.131391
C68   C     C_3   0.094701 0.307954 0.263250 -0.717022
H40   H     H_    0.040693 0.304456 0.240631 0.242762
H41   H     H_    0.107825 0.354979 0.282865 0.175987
H42   H     H_    0.122068 0.291655 0.133063 0.198911
O25   O     O_3   0.804153 0.640780 0.902790 -0.540040
C69   C     C_3   0.756328 0.686497 0.912620 0.121966
H43   H     H_    0.780375 0.730540 0.919641 0.101232
H44   H     H_    0.722737 0.680882 0.041364 0.100043
C70   C     C_3   0.713903 0.685969 0.735839 -0.691305
H45   H     H_    0.744942 0.692042 0.603010 0.193804
H46   H     H_    0.686264 0.644136 0.726483 0.242075
H47   H     H_    0.677426 0.722515 0.745934 0.172073
O26   O     O_3   0.195124 0.140524 0.097743 -0.540130
C71   C     C_3   0.243227 0.186026 0.087718 0.123887
H48   H     H_    0.219507 0.230152 0.078480 0.100189
H49   H     H_    0.277188 0.179795 0.960115 0.100055
C72   C     C_3   0.285052 0.185951 0.265756 -0.693108
H50   H     H_    0.253702 0.193115 0.397388 0.193698
H51   H     H_    0.311932 0.143845 0.278332 0.242690
H52   H     H_    0.322144 0.222000 0.254685 0.172202
O27   O     O_3   0.109412 0.746348 0.013762 -0.537746
C73   C     C_3   0.137621 0.755348 0.827588 0.074694
H53   H     H_    0.192420 0.750624 0.830030 0.116924
H54   H     H_    0.124257 0.799229 0.769458 0.122619
C74   C     C_3   0.111462 0.708546 0.693556 -0.635750
H55   H     H_    0.056772 0.712460 0.685787 0.260172
H56   H     H_    0.134314 0.714178 0.547202 0.174351
H57   H     H_    0.123894 0.664049 0.747467 0.215708
O28   O     O_3   0.889784 0.245874 0.988282 -0.539523
C75   C     C_3   0.858669 0.253979 0.171202 0.065417
H58   H     H_    0.804089 0.248810 0.161518 0.114282
H59   H     H_    0.870746 0.297756 0.232648 0.126638
C76   C     C_3   0.883233 0.206992 0.307022 -0.631080
H60   H     H_    0.937800 0.210668 0.319300 0.258710
H61   H     H_    0.859081 0.212695 0.451726 0.174959
H62   H     H_    0.871043 0.162566 0.251786 0.213312
O29   O     O_3   0.355372 0.606215 0.247299 -0.561510
C77   C     C_3   0.308754 0.634893 0.371635 0.078013
H63   H     H_    0.287299 0.673442 0.297658 0.129695
H64   H     H_    0.330904 0.649483 0.508572 0.113710
C78   C     C_3   0.252622 0.592470 0.422904 -0.689463
H65   H     H_    0.272315 0.553393 0.497912 0.218139
H66   H     H_    0.215371 0.614580 0.519309 0.177732
H67   H     H_    0.228159 0.577924 0.290394 0.229400
O30   O     O_3   0.644936 0.105283 0.746032 -0.558009
C79   C     C_3   0.692744 0.138364 0.843580 0.075241
H68   H     H_    0.671725 0.158415 0.978734 0.110860
H69   H     H_    0.713700 0.173218 0.747177 0.130276
C80   C     C_3   0.749145 0.097972 0.897939 -0.684528
H70   H     H_    0.772247 0.077682 0.766690 0.226991
H71   H     H_    0.787371 0.123638 0.972784 0.192642
H72   H     H_    0.730053 0.062674 0.995410 0.215158

loop_
_geom_bond_atom_site_label_1
_geom_bond_atom_site_label_2
_ccdc_geom_bond_type
C76   H60   S    
C52   C56   A    
C21   C35   A    
C54   N4    S    
C72   H51   S    
C22   C36   A    
C74   H55   S    
O4    C2    A    
C66   H37   S    
V1    O19   S    
C65   H33   S    
C58   C60   A    
C12   C34   A    
O24   C67   S    
C13   H7    S    
C76   H61   S    
O9    V1    S    
C42   O28   S    
C38   C40   A    
C5    C55   S    
C12   C32   A    
C58   O26   S    
C70   H46   S    
C40   C42   A    
O3    C1    A    
C6    C56   S    
C17   H9    S    
C68   H42   S    
C42   C44   A    
C64   H31   S    
O12   V4    S    
O25   C69   S    
C10   C34   A    
C48   H18   S    
C79   H68   S    
O17   V3    S    
C17   C19   A    
C39   C41   A    
O7    C3    A    
C80   H72   S    
C24   C32   A    
C70   H45   S    
O5    C7    A    
C15   O29   S    
O7    V1    S    
C77   C78   S    
O6    C8    A    
O21   C61   S    
C16   C18   A    
C62   H26   S    
C51   C55   A    
O26   C71   S    
O3    V1    S    
O14   V4    S    
C2    C11   S    
C28   C30   A    
C47   H17   S    
C43   N1    S    
C63   C64   S    
C78   H67   S    
C75   H59   S    
C32   H6    S    
C19   C21   A    
C2    O12   A    
C72   H52   S    
C14   H8    S    
C13   C15   A    
C69   C70   S    
C14   C16   A    
C67   C68   S    
C74   H57   S    
O1    V3    S    
C61   H23   S    
C45   C47   A    
C24   C26   A    
O11   V3    S    
C18   C20   A    
C25   C27   A    
C9    C25   A    
C11   C33   A    
C76   H62   S    
C26   C28   A    
C39   H21   S    
C18   H10   S    
C49   C51   A    
H1    C27   S    
C22   C30   A    
C73   C74   S    
C64   H30   S    
C70   H47   S    
C54   C60   A    
C67   H39   S    
C50   C54   A    
O8    V2    S    
O28   C75   S    
C43   C45   A    
C49   C53   A    
C69   H43   S    
C64   H32   S    
C19   C23   A    
C1    O11   A    
C45   H15   S    
O15   V3    S    
C9    H3    S    
C65   H34   S    
C23   C25   A    
C73   H54   S    
C44   N2    S    
O30   C79   S    
C4    C37   S    
H2    C28   S    
N1    N3    D    
C55   C57   A    
C59   H19   S    
O27   C73   S    
C71   C72   S    
C1    C12   S    
C62   H27   S    
C11   C31   A    
O10   V2    S    
N2    N4    D    
C41   C43   A    
C57   C59   A    
C29   H11   S    
O22   C63   S    
C20   C22   A    
C15   C17   A    
C16   O30   S    
C34   O22   S    
C7    C35   S    
C41   O27   S    
C61   H24   S    
C8    C36   S    
C69   H44   S    
C75   H58   S    
C71   H49   S    
C10   C26   A    
C46   C48   A    
C27   C29   A    
O8    C4    A    
O16   C6    A    
C49   O23   S    
O1    C3    A    
C37   C39   A    
C66   H35   S    
C33   O21   S    
C65   C66   S    
C14   C36   A    
C63   H28   S    
C63   H29   S    
V2    O20   S    
C56   C58   A    
C77   H63   S    
O16   V4    S    
C74   H56   S    
C10   H4    S    
C46   H16   S    
C38   C48   A    
C67   H38   S    
C66   H36   S    
C57   O25   S    
C21   C29   A    
C68   H40   S    
O18   V4    S    
O5    V1    S    
O17   C7    A    
O6    V2    S    
O10   C6    A    
O18   C8    A    
C79   C80   S    
O2    V4    S    
C73   H53   S    
O15   C5    A    
C80   H70   S    
V3    O19   S    
O29   C77   S    
O13   V3    S    
C31   H5    S    
V4    O20   S    
C68   H41   S    
C30   H12   S    
C62   H25   S    
C60   H20   S    
C9    C33   A    
C50   C52   A    
O9    C5    A    
O13   V1    S    
C44   C46   A    
C79   H69   S    
O14   V2    S    
C53   N3    S    
O2    C4    A    
C80   H71   S    
C78   H65   S    
O4    V2    S    
C50   O24   S    
C20   C24   A    
C23   C31   A    
C3    C38   S    
C40   H22   S    
C53   C59   A    
C72   H50   S    
C13   C35   A    
C71   H48   S    
C75   C76   S    
C78   H66   S    
C37   C47   A    
C61   C62   S    
C52   H14   S    
O23   C65   S    
C77   H64   S    
C51   H13   S    
