data_mof_unit_32285.cif
_audit_creation_date              2012-12-11T15:37:12-0500
_audit_creation_method            fapswitch 2.2
_symmetry_space_group_name_H-M    P1
_symmetry_Int_Tables_number       1
_space_group_crystal_system       triclinic
_cell_length_a                    16.715678
_cell_length_b                    7.074844
_cell_length_c                    15.120588
_cell_angle_alpha                 90.000075
_cell_angle_beta                  94.827285
_cell_angle_gamma                 90.0
_cell_volume                      1781.83021553

loop_
_atom_site_label
_atom_site_type_symbol
_atom_type_description
_atom_site_fract_x
_atom_site_fract_y
_atom_site_fract_z
_atom_type_partial_charge
O1    O     O_R   0.578230 0.505720 0.424270 -0.533453
O2    O     O_R   0.421770 0.005720 0.575730 -0.533453
O3    O     O_R   0.412470 0.173950 0.404530 -0.499565
O4    O     O_R   0.587530 0.673950 0.595470 -0.499563
C1    C     C_R   0.384335 0.345458 0.382008 0.743198
C2    C     C_R   0.615665 0.845458 0.617991 0.743207
O5    O     O_R   0.577030 0.175880 0.413670 -0.543202
O6    O     O_R   0.422970 0.675880 0.586330 -0.543201
O7    O     O_R   0.587510 0.007580 0.584940 -0.557791
O8    O     O_R   0.412490 0.507580 0.415060 -0.557795
C3    C     C_R   0.604513 0.344542 0.394503 0.728846
C4    C     C_R   0.395487 0.844542 0.605496 0.728846
O9    O     O_3   0.503240 0.339850 0.556180 -0.368274
O10   O     O_3   0.496760 0.839850 0.443820 -0.368277
V1    V     V_3+5 0.499400 0.064230 0.489580 1.455294
V2    V     V_3+5 0.500600 0.564230 0.510420 1.455295
C5    C     C_1   0.332831 0.854776 0.667484 -0.189825
C6    C     C_1   0.667168 0.354776 0.332516 -0.189819
C7    C     C_1   0.280328 0.865610 0.718942 0.010662
C8    C     C_1   0.719672 0.365610 0.281058 0.010666
C9    C     C_1   0.218452 0.879236 0.779470 0.010515
C10   C     C_1   0.781548 0.379236 0.220530 0.010519
C11   C     C_1   0.166040 0.890027 0.831067 -0.176670
C12   C     C_1   0.833960 0.390027 0.168933 -0.176663
C13   C     C_3   0.744652 0.774461 0.846819 -0.409362
C14   C     C_3   0.255350 0.274479 0.153178 -0.409367
H1    H     H_    0.764363 0.625145 0.856906 0.193075
H2    H     H_    0.235644 0.125162 0.143087 0.193083
H3    H     H_    0.734520 0.822537 0.914958 0.171960
H4    H     H_    0.265481 0.322567 0.085042 0.171955
C15   C     C_3   0.665159 0.782139 0.782847 0.529219
C16   C     C_3   0.334843 0.282161 0.217151 0.529214
H5    H     H_    0.854293 0.629864 0.751391 0.196031
H6    H     H_    0.145712 0.129850 0.248601 0.196039
C17   C     C_3   0.836758 0.774309 0.728860 -0.456509
C18   C     C_3   0.163244 0.274294 0.271137 -0.456501
C19   C     C_3   0.780452 0.094372 0.781440 0.627346
C20   C     C_3   0.219541 0.594373 0.218569 0.627361
C21   C     C_3   0.814026 0.891207 0.810317 -0.089631
C22   C     C_3   0.185973 0.391207 0.189684 -0.089642
C23   C     C_3   0.687938 0.860466 0.687836 -0.113563
C24   C     C_3   0.312061 0.360467 0.312165 -0.113581
C25   C     C_3   0.766398 0.762900 0.653025 0.574182
C26   C     C_3   0.233604 0.262883 0.346971 0.574190
C27   C     C_3   0.713024 0.072992 0.704102 -0.352722
C28   C     C_3   0.286969 0.572991 0.295907 -0.352695
H7    H     H_    0.660462 0.160468 0.717856 0.204512
H8    H     H_    0.339528 0.660480 0.282156 0.204528
H9    H     H_    0.732637 0.134394 0.642200 0.220233
H10   H     H_    0.267353 0.634378 0.357810 0.220230
H11   H     H_    0.892927 0.827787 0.704469 0.129389
H12   H     H_    0.107074 0.327759 0.295530 0.129389
O11   O     O_R   0.087480 0.241090 0.084980 -0.548597
O12   O     O_R   0.912520 0.741090 0.915020 -0.548600
O13   O     O_R   0.922960 0.569060 0.086330 -0.540850
O14   O     O_R   0.077040 0.069060 0.913670 -0.540850
C29   C     C_R   0.896321 0.400243 0.106560 0.733746
C30   C     C_R   0.103679 0.900243 0.893440 0.733747
O15   O     O_R   0.087520 0.570920 0.095480 -0.521953
O16   O     O_R   0.912480 0.070920 0.904520 -0.521953
O17   O     O_R   0.078240 0.739160 0.924260 -0.524063
O18   O     O_R   0.921760 0.239160 0.075740 -0.524062
C31   C     C_R   0.115157 0.402069 0.118745 0.745966
C32   C     C_R   0.884842 0.902069 0.881256 0.745968
O19   O     O_3   0.996740 0.404980 0.943840 -0.376399
O20   O     O_3   0.003260 0.904980 0.056160 -0.376398
V3    V     V_3+5 0.000600 0.680640 0.010420 1.448881
V4    V     V_3+5 0.999400 0.180640 0.989580 1.448881
N1    N     N_2   0.794632 0.856043 0.574294 -0.548092
H13   H     H_    0.851471 0.813150 0.561032 0.271396
C33   C     C_3   0.743180 0.872576 0.492412 -0.481741
H14   H     H_    0.780439 0.894152 0.435735 0.178436
H15   H     H_    0.704672 0.999077 0.494769 0.202262
H16   H     H_    0.706619 0.743514 0.478679 0.230981
N2    N     N_2   0.205367 0.356007 0.425706 -0.548097
H17   H     H_    0.148530 0.313101 0.438966 0.271398
C34   C     C_3   0.256819 0.372537 0.507589 -0.481755
H18   H     H_    0.219560 0.394109 0.564266 0.178437
H19   H     H_    0.295327 0.499038 0.505233 0.202255
H20   H     H_    0.293380 0.243474 0.521319 0.230988
N3    N     N_2   0.608736 0.911290 0.822740 -0.479050
H21   H     H_    0.607698 0.899584 0.890683 0.277857
C35   C     C_3   0.528916 0.942649 0.779800 -0.536703
H22   H     H_    0.504788 0.812639 0.746735 0.197375
H23   H     H_    0.529723 0.060030 0.731579 0.205114
H24   H     H_    0.487328 0.985296 0.829826 0.178441
N4    N     N_2   0.391262 0.411335 0.177265 -0.479039
H25   H     H_    0.392300 0.399644 0.109318 0.277845
C36   C     C_3   0.471083 0.442687 0.220205 -0.536641
H26   H     H_    0.495217 0.312652 0.253253 0.197376
H27   H     H_    0.470272 0.560046 0.268444 0.205118
H28   H     H_    0.512668 0.485388 0.170178 0.178428
N5    N     N_2   0.629421 0.592431 0.775640 -0.498453
H29   H     H_    0.665843 0.492025 0.751344 0.318860
C37   C     C_3   0.591109 0.518396 0.851260 -0.489228
H30   H     H_    0.572212 0.369878 0.837889 0.227072
H31   H     H_    0.536264 0.599260 0.862963 0.193575
H32   H     H_    0.633131 0.521782 0.912145 0.221300
N6    N     N_2   0.370589 0.092460 0.224349 -0.498462
H33   H     H_    0.334174 0.992045 0.248647 0.318866
C38   C     C_3   0.408888 0.018442 0.148715 -0.489220
H34   H     H_    0.427808 0.869940 0.162090 0.227061
H35   H     H_    0.463718 0.099352 0.136983 0.193570
H36   H     H_    0.366840 0.021780 0.087841 0.221303
Cl1   Cl    Cl    0.751322 0.519486 0.622317 -0.737690
Cl2   Cl    Cl    0.248686 0.019467 0.377670 -0.737685
N7    N     N_2   0.841156 0.231911 0.757709 -0.479515
H37   H     H_    0.862240 0.324338 0.807006 0.295673
C39   C     C_3   0.899467 0.195164 0.694447 -0.515282
H38   H     H_    0.925767 0.331522 0.674915 0.208612
H39   H     H_    0.871352 0.130837 0.633233 0.236520
H40   H     H_    0.949417 0.107890 0.725244 0.162202
N8    N     N_2   0.158833 0.731897 0.242303 -0.479502
H41   H     H_    0.137744 0.824321 0.193007 0.295675
C40   C     C_3   0.100524 0.695134 0.305565 -0.515303
H42   H     H_    0.074222 0.831485 0.325102 0.208612
H43   H     H_    0.128642 0.630803 0.366778 0.236517
H44   H     H_    0.050575 0.607857 0.274768 0.162201
Cl3   Cl    Cl    0.736423 0.198846 0.875352 -0.760594
Cl4   Cl    Cl    0.263568 0.698870 0.124661 -0.760597

loop_
_geom_bond_atom_site_label_1
_geom_bond_atom_site_label_2
_ccdc_geom_bond_type
C13   C15   S    
C11   C30   S    
O20   V4    S    
N4    H25   S    
C3    C6    S    
C14   C16   S    
C38   H34   S    
N7    C39   S    
C37   H30   S    
O1    C3    A    
C1    C24   S    
O2    C4    A    
C2    O7    A    
N3    H21   S    
C37   H32   S    
C29   O18   A    
C34   H18   S    
O5    C3    A    
C21   C32   S    
N5    H29   S    
C22   C31   S    
C7    C9    S    
C19   N7    S    
C39   H39   S    
C24   C28   S    
H5    C17   S    
C40   H42   S    
C25   Cl1   S    
N1    C33   S    
O11   V4    S    
O15   V3    S    
C35   H22   S    
C12   C29   S    
O19   V3    S    
C2    C23   S    
C4    C5    S    
N7    H37   S    
C36   H27   S    
C17   C25   S    
C6    C8    T    
C18   H12   S    
C20   Cl4   S    
O19   V4    S    
C30   O17   A    
O5    V1    S    
O20   V3    S    
C25   N1    S    
C23   C25   S    
C24   C26   S    
N3    C35   S    
C27   H7    S    
C13   H3    S    
C28   H8    S    
C18   C22   S    
O4    C2    A    
C39   H40   S    
C33   H15   S    
C20   N8    S    
O12   V3    S    
C40   H43   S    
O14   V4    S    
C16   N4    S    
O4    V2    S    
C26   N2    S    
C17   C21   S    
N2    H17   S    
O17   V3    S    
N6    H33   S    
C19   Cl3   S    
C27   H9    S    
O6    C4    A    
C40   H44   S    
C34   H19   S    
O1    V2    S    
C36   H28   S    
O2    V1    S    
N2    C34   S    
C35   H23   S    
C8    C10   S    
C14   H4    S    
C38   H36   S    
O13   C29   A    
C17   H11   S    
C10   C12   T    
C18   C26   S    
C19   C27   S    
O3    V1    S    
N8    H41   S    
C34   H20   S    
C16   C24   S    
O6    V2    S    
C15   C23   S    
N6    C38   S    
C14   H2    S    
O3    C1    A    
C33   H16   S    
O13   V3    S    
C37   H31   S    
C26   Cl2   S    
C13   H1    S    
C28   H10   S    
O15   C31   A    
C15   N3    S    
C16   N6    S    
O18   V4    S    
O16   C32   A    
C9    C11   T    
O7    V1    S    
C1    O8    A    
C19   C21   S    
C15   N5    S    
C39   H38   S    
C13   C21   S    
C20   C22   S    
O11   C31   A    
C14   C22   S    
N5    C37   S    
O12   C32   A    
C5    C7    T    
O14   C30   A    
H6    C18   S    
N1    H13   S    
C20   C28   S    
C33   H14   S    
C35   H24   S    
O16   V4    S    
C38   H35   S    
O9    V2    S    
N4    C36   S    
C23   C27   S    
O10   V1    S    
O8    V2    S    
C36   H26   S    
N8    C40   S    
