data_mof_unit_16243.cif
_audit_creation_date              2012-10-26T19:52:28-0400
_audit_creation_method            fapswitch 2.2
_symmetry_space_group_name_H-M    P1
_symmetry_Int_Tables_number       1
_space_group_crystal_system       triclinic
_cell_length_a                    9.584976
_cell_length_b                    10.819097
_cell_length_c                    13.43238
_cell_angle_alpha                 90.991086
_cell_angle_beta                  73.154652
_cell_angle_gamma                 90.32749
_cell_volume                      1332.9777411

loop_
_atom_site_label
_atom_site_type_symbol
_atom_type_description
_atom_site_fract_x
_atom_site_fract_y
_atom_site_fract_z
_atom_type_partial_charge
C1    C     C_R   0.500966 0.737557 0.498290 0.545456
C2    C     C_R   0.374239 0.486990 0.813680 0.002383
C3    C     C_R   0.381664 0.935510 0.484409 0.021191
C4    C     C_R   0.421692 0.500384 0.699948 0.528965
C5    C     C_R   0.505626 0.870548 0.487938 0.009168
C6    C     C_R   0.636517 0.935820 0.476068 -0.156738
C7    C     C_R   0.636399 0.064667 0.475767 -0.162566
C8    C     C_R   0.505365 0.129097 0.487322 0.006680
C9    C     C_R   0.381568 0.062705 0.484109 0.014173
C10   C     C_3   0.228769 0.070360 0.553656 -0.262092
C11   C     C_3   0.228688 0.929999 0.553952 -0.265703
C12   C     C_R   0.436503 0.488124 0.978063 0.035595
C13   C     C_R   0.941607 0.401086 0.460409 0.128093
C14   C     C_R   0.910180 0.593101 0.547214 0.326481
C15   C     C_R   0.057891 0.592434 0.546288 0.055390
C16   C     C_R   0.500710 0.262421 0.497880 0.549008
C17   C     C_R   0.088783 0.401200 0.460311 0.141076
C18   C     C_3   0.137864 0.352284 0.351286 -0.277562
C19   C     C_3   0.979329 0.351583 0.351652 -0.278777
C20   C     C_R   0.577713 0.501838 0.300512 0.542543
C21   C     C_R   0.753417 0.640296 0.041441 -0.131518
C22   C     C_R   0.619979 0.520697 0.188556 -0.000341
C23   C     C_R   0.458332 0.533995 0.876459 0.025392
C24   C     C_R   0.253917 0.411082 0.857642 -0.129274
C25   C     C_R   0.222885 0.375379 0.960532 -0.141344
C26   C     C_R   0.314607 0.410379 0.019659 -0.120562
C27   C     C_R   0.536949 0.522942 0.033623 0.032680
C28   C     C_R   0.651769 0.606940 0.988693 0.045867
C29   C     C_R   0.660205 0.660910 0.893735 -0.130355
C30   C     C_R   0.561751 0.627533 0.840167 -0.118524
C31   C     C_R   0.525933 0.478779 0.133168 -0.128816
C32   C     C_R   0.737344 0.597570 0.141267 -0.136789
Cu1   Cu    Cu3+1 0.359330 0.500020 0.500010 0.930680
Cu2   Cu    Cu3+1 0.640670 0.499980 0.499990 0.948242
H1    H     H_    0.810720 0.630869 0.183796 0.126927
H2    H     H_    0.956021 0.418180 0.296409 0.153534
H3    H     H_    0.741687 0.730646 0.861521 0.123737
H4    H     H_    0.935295 0.256978 0.347625 0.121194
H5    H     H_    0.841592 0.703677 0.007250 0.109446
H6    H     H_    0.442078 0.414924 0.171752 0.100012
H7    H     H_    0.187024 0.375083 0.811133 0.130483
H8    H     H_    0.285611 0.375996 0.097698 0.095747
H9    H     H_    0.130161 0.316141 0.993593 0.117894
H10   H     H_    0.563198 0.678125 0.771550 0.116025
H11   H     H_    0.737123 0.888224 0.472132 0.169440
H12   H     H_    0.736985 0.113159 0.471777 0.133950
H13   H     H_    0.730778 0.661644 0.627254 0.365384
H14   H     H_    0.221763 0.113084 0.630869 0.140743
H15   H     H_    0.152978 0.109425 0.513488 0.137377
H16   H     H_    0.221351 0.890976 0.631374 0.135097
H17   H     H_    0.152848 0.888450 0.513834 0.150512
H18   H     H_    0.099766 0.667463 0.583538 0.135621
H19   H     H_    0.204755 0.420085 0.296386 0.147676
H20   H     H_    0.185676 0.258220 0.346346 0.124141
N1    N     N_R   0.852320 0.499070 0.499340 -0.235960
N2    N     N_R   0.148230 0.499110 0.499340 -0.266889
O1    O     O_R   0.381190 0.680360 0.500000 -0.509756
O2    O     O_R   0.618780 0.680320 0.499990 -0.499947
O3    O     O_R   0.323230 0.500000 0.650990 -0.505838
O4    O     O_R   0.560820 0.499960 0.650980 -0.517939
O5    O     O_R   0.381220 0.319680 0.500010 -0.497519
O6    O     O_R   0.618810 0.319640 0.500000 -0.503401
O7    O     O_R   0.439180 0.500040 0.349020 -0.500393
O8    O     O_R   0.676770 0.500000 0.349010 -0.506886
O9    O     O_3   0.829604 0.692302 0.596150 -0.738514

loop_
_geom_bond_atom_site_label_1
_geom_bond_atom_site_label_2
_ccdc_geom_bond_type
C16   O5    A    
C20   O8    A    
C2    C4    S    
C23   C30   A    
C6    C7    A    
C3    C9    A    
C6    H11   S    
C1    O1    A    
C9    C10   S    
C2    C24   A    
C21   H5    S    
C13   C17   A    
Cu1   Cu2   S    
Cu1   O7    S    
C30   H10   S    
C15   N2    A    
C25   H9    S    
C20   O7    A    
Cu2   O8    S    
C17   C18   S    
C7    C8    A    
Cu1   O3    S    
C11   H16   S    
C1    O2    A    
C24   C25   A    
Cu2   O4    S    
C24   H7    S    
C12   C23   A    
C4    O4    A    
C29   C30   A    
C22   C32   A    
Cu1   N2    S    
C1    C5    S    
C4    O3    A    
Cu1   O5    S    
C28   C29   A    
C19   H4    S    
C21   C28   A    
C20   C22   S    
C14   N1    A    
C17   N2    A    
C19   H2    S    
H13   O9    S    
C10   H14   S    
C5    C6    A    
C21   C32   A    
C3    C11   S    
C22   C31   A    
C18   H20   S    
C12   C27   A    
C27   C31   A    
C7    H12   S    
Cu2   N1    S    
C11   H17   S    
C31   H6    S    
C26   H8    S    
C2    C23   A    
C8    C16   S    
C18   C19   S    
C10   C11   S    
C29   H3    S    
C27   C28   A    
Cu2   O2    S    
C13   C19   S    
C14   C15   A    
C8    C9    A    
Cu1   O1    S    
C18   H19   S    
C3    C5    A    
C25   C26   A    
C15   H18   S    
C10   H15   S    
C16   O6    A    
Cu2   O6    S    
C32   H1    S    
C12   C26   A    
C14   O9    S    
C13   N1    A    
