data_mof_unit_59242.cif
_audit_creation_date              2012-12-10T16:50:08-0500
_audit_creation_method            fapswitch 2.2
_symmetry_space_group_name_H-M    P1
_symmetry_Int_Tables_number       1
_space_group_crystal_system       triclinic
_cell_length_a                    7.745566
_cell_length_b                    8.569349
_cell_length_c                    10.6491
_cell_angle_alpha                 89.378127
_cell_angle_beta                  87.53679
_cell_angle_gamma                 93.224723
_cell_volume                      704.994578872

loop_
_atom_site_label
_atom_site_type_symbol
_atom_type_description
_atom_site_fract_x
_atom_site_fract_y
_atom_site_fract_z
_atom_type_partial_charge
C1    C     C_R   0.545880 0.794694 0.497939 0.911820
C2    C     C_R   0.484316 0.658727 0.924447 0.077901
C3    C     C_R   0.518985 0.514832 0.870123 -0.070001
C4    C     C_R   0.546862 0.383237 0.940561 -0.232979
C5    C     C_R   0.533349 0.390651 0.068535 -0.187457
C6    C     C_R   0.485242 0.527914 0.126960 -0.098998
C7    C     C_2   0.570098 0.958012 0.496437 -0.389605
C8    C     C_2   0.430496 0.041996 0.506752 -0.412658
C9    C     C_R   0.504448 0.495926 0.739406 0.858888
C10   C     C_R   0.454463 0.205312 0.503729 0.970892
C11   C     C_R   0.497768 0.520705 0.260737 0.854308
C12   C     C_R   0.482406 0.794604 0.848471 -0.160591
C13   C     C_R   0.435921 0.934824 0.898315 -0.180724
C14   C     C_R   0.383491 0.941415 0.023544 -0.156687
C15   C     C_R   0.382357 0.808365 0.102427 0.131030
C16   C     C_R   0.449543 0.665434 0.055375 0.047508
H1    H     H_    0.577600 0.274566 0.896168 0.141419
H2    H     H_    0.986173 0.615747 0.593269 0.198299
H3    H     H_    0.518737 0.793577 0.749646 0.141096
H4    H     H_    0.336193 0.050501 0.057654 0.137080
H5    H     H_    0.559628 0.287392 0.122904 0.148608
H6    H     H_    0.702037 0.008567 0.486332 0.186895
H7    H     H_    0.013889 0.384605 0.406461 0.195183
N1    N     N_2   0.950330 0.457950 0.466250 -0.181234
N2    N     N_2   0.049670 0.542050 0.533750 -0.176241
O1    O     O_R   0.389250 0.738570 0.508280 -0.623123
O2    O     O_R   0.678390 0.711630 0.486650 -0.634553
O3    O     O_R   0.355400 0.513470 0.694050 -0.604465
O4    O     O_R   0.644540 0.486530 0.672420 -0.623003
O5    O     O_R   0.321610 0.288370 0.513350 -0.626841
O6    O     O_R   0.610750 0.261430 0.491720 -0.608068
O7    O     O_R   0.355460 0.513470 0.327580 -0.626444
O8    O     O_R   0.644600 0.486530 0.305950 -0.608040
Zn1   Zn    Zn3+2 0.306930 0.517990 0.514440 0.932570
Zn2   Zn    Zn3+2 0.693070 0.482010 0.485560 0.932538
H8    H     H_    0.432933 0.036951 0.837973 0.143334
C17   C     C_3   0.285444 0.823390 0.226173 -0.429273
C18   C     C_3   0.106907 0.737705 0.226613 -0.732860
H9    H     H_    0.042739 0.744225 0.321447 0.246535
H10   H     H_    0.025330 0.794155 0.157961 0.238424
H11   H     H_    0.115986 0.613189 0.201020 0.261460
H12   H     H_    0.365120 0.784219 0.299375 0.232247
H13   H     H_    0.265473 0.947664 0.249047 0.189433
H14   H     H_    0.298579 0.991365 0.516934 0.186378

loop_
_geom_bond_atom_site_label_1
_geom_bond_atom_site_label_2
_ccdc_geom_bond_type
C17   H13   S    
H7    N1    S    
C17   C18   S    
C3    C9    S    
C7    H6    S    
C2    C16   A    
O4    Zn2   S    
C9    O4    A    
N2    Zn1   S    
C2    C12   A    
C2    C3    A    
O3    Zn1   S    
C7    C8    D    
C13   C14   A    
N1    N2    D    
C18   H10   S    
C18   H9    S    
H2    N2    S    
C18   H11   S    
C5    C6    A    
C4    H1    S    
C12   H3    S    
O8    Zn2   S    
C11   O7    A    
C17   H12   S    
C1    O1    A    
O6    Zn2   S    
N1    Zn2   S    
O5    Zn1   S    
C6    C16   A    
C15   C16   A    
C14   H4    S    
C11   O8    A    
C5    H5    S    
C12   C13   A    
C13   H8    S    
C8    C10   S    
C6    C11   S    
C1    O2    A    
C10   O5    A    
C14   C15   A    
C15   C17   S    
O2    Zn2   S    
C1    C7    S    
C10   O6    A    
O1    Zn1   S    
C3    C4    A    
C8    H14   S    
C9    O3    A    
C4    C5    A    
O7    Zn1   S    
