data_mof_unit_14367.cif
_audit_creation_date              2012-12-10T17:49:37-0500
_audit_creation_method            fapswitch 2.2
_symmetry_space_group_name_H-M    P1
_symmetry_Int_Tables_number       1
_space_group_crystal_system       triclinic
_cell_length_a                    14.726539
_cell_length_b                    14.690906
_cell_length_c                    15.877998
_cell_angle_alpha                 76.898595
_cell_angle_beta                  102.769779
_cell_angle_gamma                 114.8275
_cell_volume                      3005.56850475

loop_
_atom_site_label
_atom_site_type_symbol
_atom_type_description
_atom_site_fract_x
_atom_site_fract_y
_atom_site_fract_z
_atom_type_partial_charge
C1    C     C_R   0.880355 0.312249 0.514005 0.788957
C2    C     C_3   0.047573 0.427964 0.073307 -0.505026
C3    C     C_3   0.000941 0.501505 0.082699 0.125040
C4    C     C_3   0.063877 0.609654 0.039059 0.477432
C5    C     C_3   0.063328 0.609737 0.940988 0.474479
C6    C     C_1   0.001212 0.500778 0.175116 -0.004775
C7    C     C_1   0.999481 0.501035 0.824678 -0.006881
C8    C     C_1   0.999361 0.500559 0.749175 -0.154458
C9    C     C_R   0.812462 0.204866 0.516015 -0.054830
C10   C     C_R   0.186903 0.795801 0.474556 -0.046983
C11   C     C_R   0.781152 0.030364 0.512826 -0.185862
C12   C     C_R   0.999737 0.500059 0.659650 0.823475
C13   C     C_R   0.848805 0.129939 0.519220 -0.185476
C14   C     C_R   0.708410 0.178854 0.508308 -0.242275
C15   C     C_R   0.638356 0.080448 0.496657 0.099794
C16   C     C_R   0.676509 0.005232 0.501072 0.157953
C17   C     C_R   0.531919 0.054797 0.481331 0.049677
C18   C     C_R   0.465144 0.951684 0.479607 0.068843
C19   C     C_R   0.506454 0.879288 0.482703 -0.208368
C20   C     C_R   0.610023 0.905957 0.492809 -0.221249
C21   C     C_R   0.490387 0.129304 0.465007 -0.259280
C22   C     C_R   0.386501 0.103673 0.452395 -0.036287
C23   C     C_R   0.119617 0.687810 0.485197 0.809550
C24   C     C_R   0.319777 0.001222 0.457452 0.104632
C25   C     C_R   0.359116 0.924579 0.472806 0.079888
C26   C     C_R   0.214324 0.973355 0.447892 -0.175275
C27   C     C_R   0.148681 0.871738 0.455612 -0.159541
C28   C     C_R   0.291122 0.822583 0.483647 -0.236040
C29   C     C_R   0.713780 0.668533 0.357005 -0.341414
C30   C     C_R   0.795170 0.638923 0.377814 0.164050
C31   C     C_R   0.714960 0.508715 0.488656 -0.002128
C32   C     C_R   0.628636 0.534460 0.469137 -0.018864
C33   C     C_R   0.631082 0.617447 0.402568 0.154402
C34   C     C_R   0.000314 0.500043 0.340347 0.832288
C35   C     C_R   0.541056 0.482199 0.513055 0.088294
C36   C     C_R   0.458978 0.515779 0.490345 0.099388
C37   C     C_R   0.467421 0.600711 0.424817 -0.235976
C38   C     C_R   0.551327 0.649718 0.381682 -0.195039
C39   C     C_R   0.532440 0.397278 0.578270 -0.226871
C40   C     C_R   0.447896 0.347574 0.620933 -0.169022
C41   C     C_R   0.366946 0.379173 0.600147 0.116267
C42   C     C_R   0.371189 0.463458 0.533884 -0.019460
C43   C     C_R   0.280928 0.327483 0.643733 -0.123303
C44   C     C_R   0.200863 0.359539 0.620497 0.039920
C45   C     C_3   0.047035 0.428041 0.975591 -0.504224
C46   C     C_R   0.286113 0.490877 0.513422 0.010861
C47   C     C_3   0.890706 0.466945 0.936167 -0.355285
C48   C     C_3   0.891244 0.466874 0.033870 -0.350477
C49   C     C_1   0.001059 0.500317 0.250752 -0.144878
C50   C     C_3   0.000029 0.501640 0.916884 0.127795
Cu1   Cu    Cu3+1 0.081750 0.475690 0.522550 0.947121
Cu2   Cu    Cu3+1 0.918250 0.524310 0.477450 0.961083
H1    H     H_    0.003909 0.349676 0.104180 0.215858
H2    H     H_    0.125780 0.451129 0.963177 0.182387
H3    H     H_    0.126571 0.451022 0.107761 0.182771
H4    H     H_    0.638225 0.848151 0.494377 0.153411
H5    H     H_    0.317836 0.762041 0.502030 0.149093
H6    H     H_    0.068159 0.852723 0.448193 0.158771
H7    H     H_    0.810580 0.973238 0.515526 0.142010
H8    H     H_    0.929114 0.148493 0.525320 0.160702
H9    H     H_    0.684117 0.237102 0.512399 0.145387
H10   H     H_    0.003123 0.349786 0.959648 0.216014
H11   H     H_    0.460717 0.801512 0.474332 0.139748
H12   H     H_    0.536929 0.209317 0.458490 0.148141
H13   H     H_    0.181786 0.029783 0.434962 0.149033
H14   H     H_    0.553902 0.714171 0.331384 0.147554
H15   H     H_    0.281481 0.551814 0.462737 0.125577
H16   H     H_    0.134219 0.320112 0.652836 0.136177
H17   H     H_    0.446342 0.282942 0.670502 0.155395
H18   H     H_    0.715072 0.731558 0.305327 0.145153
H19   H     H_    0.720842 0.448754 0.540064 0.126697
H20   H     H_    0.854660 0.518259 0.894836 0.221493
H21   H     H_    0.410339 0.631905 0.404775 0.129459
H22   H     H_    0.589945 0.366506 0.597828 0.128227
H23   H     H_    0.844230 0.389307 0.919615 0.166192
H24   H     H_    0.845003 0.389203 0.064052 0.167266
H25   H     H_    0.855456 0.518158 0.039523 0.222700
H26   H     H_    0.142492 0.634433 0.928928 0.024133
H27   H     H_    0.143292 0.634290 0.072644 0.021080
N1    N     N_R   0.795410 0.560790 0.443550 -0.198358
N2    N     N_R   0.204590 0.439170 0.556520 -0.185687
O1    O     O_R   0.977910 0.338120 0.529720 -0.588729
O2    O     O_R   0.839850 0.379180 0.491640 -0.592473
O3    O     O_R   0.069060 0.479460 0.639610 -0.577711
O4    O     O_R   0.931000 0.520530 0.601530 -0.573775
O5    O     O_R   0.160150 0.620820 0.508360 -0.592386
O6    O     O_R   0.022090 0.661880 0.470280 -0.582595
O7    O     O_R   0.069000 0.479470 0.398470 -0.579604
O8    O     O_R   0.930940 0.520540 0.360390 -0.566465
F1    F     F_    0.025770 0.678387 0.047696 -0.595871
C51   C     C_1   0.350887 0.185092 0.435605 0.231294
N3    N     N_1   0.322535 0.250241 0.422169 -0.279841
C52   C     C_1   0.878368 0.692868 0.328474 0.297161
N4    N     N_1   0.944802 0.736698 0.288259 -0.263305
C53   C     C_1   0.271929 0.241162 0.711631 0.206675
N5    N     N_1   0.264647 0.172037 0.765968 -0.250308
F2    F     F_    0.024864 0.678511 0.888531 -0.600089

loop_
_geom_bond_atom_site_label_1
_geom_bond_atom_site_label_2
_ccdc_geom_bond_type
C10   C27   A    
C52   N4    T    
C41   C42   A    
C45   H10   S    
C36   C42   A    
C53   N5    T    
C9    C14   A    
C3    C6    S    
C7    C8    T    
C13   H8    S    
C28   H5    S    
C25   C28   A    
C26   C27   A    
C37   C38   A    
C12   O4    A    
C36   C37   A    
C24   C26   A    
C30   C52   S    
C2    H3    S    
C15   C16   A    
C29   C33   A    
C3    C48   S    
C12   O3    A    
C18   C19   A    
C42   C46   A    
C39   H22   S    
C9    C13   A    
C21   H12   S    
C19   C20   A    
C19   H11   S    
C23   O5    A    
C47   C48   S    
C43   C53   S    
C22   C51   S    
Cu1   N2    S    
C16   C20   A    
C30   N1    A    
C31   H19   S    
C23   O6    A    
C21   C22   A    
C41   C43   A    
Cu2   O8    S    
C18   C25   A    
C11   H7    S    
Cu1   O5    S    
C47   C50   S    
C4    F1    S    
C2    C45   S    
C40   H17   S    
Cu1   Cu2   S    
C32   C35   A    
C38   H14   S    
C31   N1    A    
C1    C9    S    
C24   C25   A    
C4    H27   S    
C44   N2    A    
C51   N3    T    
C1    O1    A    
C14   H9    S    
C2    H1    S    
C17   C21   A    
C35   C36   A    
C48   H25   S    
Cu2   O2    S    
C35   C39   A    
C43   C44   A    
C29   C30   A    
C46   N2    A    
C11   C16   A    
C31   C32   A    
C8    C12   S    
C17   C18   A    
C34   O7    A    
Cu1   O1    S    
C40   C41   A    
C5    F2    S    
C45   H2    S    
C22   C24   A    
C5    C50   S    
C44   H16   S    
C3    C4    S    
C39   C40   A    
C29   H18   S    
C10   C28   A    
C15   C17   A    
C37   H21   S    
Cu2   O4    S    
C34   C49   S    
C26   H13   S    
Cu2   O6    S    
C7    C50   S    
C4    C5    S    
C27   H6    S    
Cu1   O7    S    
C10   C23   S    
C1    O2    A    
C33   C38   A    
C32   C33   A    
C2    C3    S    
C34   O8    A    
C47   H23   S    
C46   H15   S    
C11   C13   A    
C45   C50   S    
C20   H4    S    
C6    C49   T    
C47   H20   S    
C48   H24   S    
C14   C15   A    
C5    H26   S    
Cu2   N1    S    
Cu1   O3    S    
