data_mof_unit_67485.cif
_audit_creation_date              2012-10-26T21:06:56-0400
_audit_creation_method            fapswitch 2.2
_symmetry_space_group_name_H-M    P1
_symmetry_Int_Tables_number       1
_space_group_crystal_system       triclinic
_cell_length_a                    10.749067
_cell_length_b                    8.697459
_cell_length_c                    7.555551
_cell_angle_alpha                 102.251141
_cell_angle_beta                  95.134679
_cell_angle_gamma                 93.161803
_cell_volume                      685.511163324

loop_
_atom_site_label
_atom_site_type_symbol
_atom_type_description
_atom_site_fract_x
_atom_site_fract_y
_atom_site_fract_z
_atom_type_partial_charge
C1    C     C_R   0.493051 0.200349 0.453585 0.528332
C2    C     C_3   0.077297 0.398626 0.656633 0.210577
C3    C     C_3   0.930488 0.400098 0.655523 0.008824
C4    C     C_3   0.079504 0.634565 0.508819 -0.322832
C5    C     C_3   0.055445 0.352238 0.311180 0.185079
C6    C     C_3   0.120573 0.465025 0.493073 0.038074
C7    C     C_3   0.744339 0.237805 0.065002 -0.289065
C8    C     C_3   0.853665 0.848738 0.351373 -0.303573
C9    C     C_3   0.474869 0.937274 0.116499 -0.096340
C10   C     C_3   0.213840 0.225519 0.761080 -0.122931
C11   C     C_3   0.906329 0.132461 0.750181 -0.265953
C12   C     C_3   0.875613 0.467712 0.488869 0.036390
C13   C     C_3   0.161896 0.138178 0.161652 -0.121772
C14   C     C_3   0.936350 0.635645 0.493076 -0.025885
C15   C     C_3   0.909364 0.346101 0.316414 0.054382
C16   C     C_2   0.477981 0.031812 0.426689 0.232912
C17   C     C_2   0.512132 0.967279 0.567019 -0.135689
C18   C     C_R   0.260390 0.480335 0.497582 0.575585
C19   C     C_R   0.503604 0.799483 0.545477 0.573143
C20   C     C_R   0.738047 0.484810 0.496120 0.565623
Cu1   Cu    Cu3+1 0.514070 0.517380 0.684380 0.890412
Cu2   Cu    Cu3+1 0.485930 0.482620 0.315620 0.941109
H1    H     H_    0.118943 0.479204 0.786362 0.070005
H2    H     H_    0.880981 0.225831 0.334037 0.195018
H3    H     H_    0.889689 0.409148 0.057107 0.237103
H4    H     H_    0.699001 0.260492 0.936189 0.173708
H5    H     H_    0.672004 0.229765 0.157121 0.188755
H6    H     H_    0.784072 0.121299 0.042976 0.094937
H7    H     H_    0.938336 0.655434 0.217145 0.249675
H8    H     H_    0.802224 0.862656 0.222329 0.124391
H9    H     H_    0.938094 0.932769 0.381176 0.192381
H10   H     H_    0.789966 0.874486 0.459964 0.145778
H11   H     H_    0.577751 0.932437 0.147327 0.082532
H12   H     H_    0.119315 0.689455 0.403689 0.156065
H13   H     H_    0.454634 0.036975 0.050743 0.116998
H14   H     H_    0.439613 0.828811 0.014928 0.178227
H15   H     H_    0.212575 0.304163 0.897040 0.072467
H16   H     H_    0.301278 0.242624 0.700924 0.177856
H17   H     H_    0.209305 0.101697 0.777252 0.103001
H18   H     H_    0.768568 0.238935 0.622626 0.244967
H19   H     H_    0.825677 0.052472 0.764273 0.086626
H20   H     H_    0.952405 0.195756 0.883122 0.169147
H21   H     H_    0.970271 0.051325 0.679122 0.199575
H22   H     H_    0.245607 0.217777 0.160893 0.156197
H23   H     H_    0.553598 0.038101 0.697492 0.046290
H24   H     H_    0.102385 0.112079 0.031419 0.076446
H25   H     H_    0.194627 0.023733 0.180329 0.195164
H26   H     H_    0.420249 0.359285 0.951249 0.210614
H27   H     H_    0.591282 0.631343 0.050821 0.245491
H28   H     H_    0.910884 0.480152 0.783852 0.092490
H29   H     H_    0.119031 0.709464 0.642772 0.096995
H30   H     H_    0.910644 0.717533 0.617087 0.122199
H31   H     H_    0.081491 0.399614 0.192157 0.085116
N1    N     N_2   0.464720 0.456420 0.038520 -0.276880
N2    N     N_2   0.535280 0.543580 0.961480 -0.265068
N3    N     N_2   0.840931 0.362574 0.146805 -0.504953
N4    N     N_2   0.890515 0.689271 0.329633 -0.482147
N5    N     N_2   0.864822 0.243383 0.643528 -0.511175
O1    O     O_R   0.509140 0.286130 0.619770 -0.562685
O2    O     O_3   0.113038 0.241986 0.637740 -0.508137
O3    O     O_3   0.091189 0.195827 0.304904 -0.537315
O4    O     O_R   0.485380 0.256770 0.308360 -0.536624
O5    O     O_R   0.329570 0.514650 0.655700 -0.515635
O6    O     O_R   0.305810 0.485300 0.344290 -0.516013
O7    O     O_R   0.514620 0.743230 0.691640 -0.535247
O8    O     O_R   0.490860 0.713870 0.380230 -0.439853
O9    O     O_R   0.694190 0.514700 0.655710 -0.527324
O10   O     O_R   0.670430 0.485350 0.344300 -0.450965
O11   O     O_3   0.408410 0.943236 0.270443 -0.572598

loop_
_geom_bond_atom_site_label_1
_geom_bond_atom_site_label_2
_ccdc_geom_bond_type
C9    H14   S    
C10   O2    S    
H3    N3    S    
C11   H21   S    
C3    N5    S    
C16   C17   D    
C8    N4    S    
Cu2   O4    S    
C11   N5    S    
C16   O11   S    
C20   O9    A    
C12   C15   S    
C10   H16   S    
C8    H8    S    
C15   N3    S    
C12   C20   S    
C2    C3    S    
C7    H5    S    
Cu2   N1    S    
C1    C16   S    
H27   N2    S    
Cu1   Cu2   S    
Cu1   O9    S    
H26   N1    S    
C18   O6    A    
C2    C6    S    
C7    H4    S    
C7    N3    S    
C9    H11   S    
C10   H15   S    
C5    H31   S    
C15   H2    S    
C17   C19   S    
C3    H28   S    
C12   C14   S    
C19   O7    A    
C2    O2    S    
C1    O1    A    
C4    C14   S    
C5    C6    S    
C6    C18   S    
C17   H23   S    
C4    H12   S    
C18   O5    A    
C5    C15   S    
H18   N5    S    
Cu1   O5    S    
H7    N4    S    
C4    H29   S    
Cu2   O6    S    
C8    H10   S    
Cu1   O1    S    
C13   O3    S    
C1    O4    A    
C4    C6    S    
C11   H19   S    
C11   H20   S    
C2    H1    S    
Cu1   N2    S    
C14   N4    S    
C13   H24   S    
Cu2   O8    S    
C9    H13   S    
C3    C12   S    
Cu2   O10   S    
Cu1   O7    S    
N1    N2    D    
C8    H9    S    
C13   H25   S    
C20   O10   A    
C13   H22   S    
C14   H30   S    
C7    H6    S    
C5    O3    S    
C19   O8    A    
C9    O11   S    
C10   H17   S    
