data_mof_unit_15581.cif
_audit_creation_date              2012-12-11T14:10:58-0500
_audit_creation_method            fapswitch 2.2
_symmetry_space_group_name_H-M    P1
_symmetry_Int_Tables_number       1
_space_group_crystal_system       monoclinic
_cell_length_a                    19.73848
_cell_length_b                    17.171276
_cell_length_c                    15.452902
_cell_angle_alpha                 90.0
_cell_angle_beta                  52.503795
_cell_angle_gamma                 90.0
_cell_volume                      4155.42119762

loop_
_atom_site_label
_atom_site_type_symbol
_atom_type_description
_atom_site_fract_x
_atom_site_fract_y
_atom_site_fract_z
_atom_type_partial_charge
C1    C     C_R   0.373976 0.197044 0.995513 -0.103361
C2    C     C_3   0.690689 0.749837 0.442620 0.649671
C3    C     C_3   0.109359 0.359578 0.321507 -0.911796
C4    C     C_3   0.206615 0.610152 0.392673 0.283125
C5    C     C_3   0.183577 0.590355 0.317582 -0.950701
C6    C     C_3   0.869696 0.341116 0.600875 0.251499
C7    C     C_3   0.890641 0.359578 0.678493 -0.911798
C8    C     C_3   0.775454 0.199391 0.426114 0.646989
C9    C     C_3   0.309311 0.749837 0.557380 0.649671
C10   C     C_3   0.724546 0.699391 0.573885 0.646988
C11   C     C_3   0.190689 0.249837 0.442620 0.649671
C12   C     C_3   0.275454 0.699391 0.426115 0.646988
C13   C     C_3   0.809311 0.249837 0.557380 0.649671
C14   C     C_2   0.191077 0.743176 0.093953 -0.206462
C15   C     C_2   0.714075 0.312570 0.044722 -0.188291
C16   C     C_2   0.808923 0.743176 0.906047 -0.206463
C17   C     C_R   0.660539 0.824634 0.951654 -0.113232
C18   C     C_2   0.285925 0.312570 0.955278 -0.188290
C19   C     C_2   0.691077 0.243176 0.093953 -0.206462
C20   C     C_2   0.214075 0.812570 0.044722 -0.188290
C21   C     C_2   0.308923 0.243176 0.906047 -0.206462
C22   C     C_2   0.785925 0.812570 0.955278 -0.188290
C23   C     C_R   0.388523 0.803110 0.214133 -0.098900
C24   C     C_R   0.651091 0.172059 0.779686 -0.108517
C25   C     C_R   0.611477 0.803110 0.785867 -0.098900
C26   C     C_R   0.348908 0.172059 0.220314 -0.108518
C27   C     C_R   0.888523 0.303110 0.214133 -0.098901
C28   C     C_R   0.626024 0.197044 0.004487 -0.103361
C29   C     C_R   0.151092 0.672059 0.779686 -0.108518
C30   C     C_R   0.111477 0.303110 0.785867 -0.098900
C31   C     C_R   0.848908 0.672059 0.220314 -0.108518
C32   C     C_R   0.329915 0.913430 0.951177 -0.145284
C33   C     C_R   0.634894 0.109956 0.102559 -0.169366
C34   C     C_R   0.670085 0.913430 0.048823 -0.145285
C35   C     C_R   0.365106 0.109956 0.897441 -0.169366
C36   C     C_R   0.829915 0.413430 0.951177 -0.145284
C37   C     C_R   0.134894 0.609956 0.102559 -0.169366
C38   C     C_R   0.170085 0.413430 0.048823 -0.145285
C39   C     C_R   0.339460 0.824634 0.048346 -0.113232
C40   C     C_R   0.865106 0.609956 0.897441 -0.169366
C41   C     C_R   0.356073 0.079215 0.316385 -0.158069
C42   C     C_R   0.603208 0.894562 0.689727 -0.158955
C43   C     C_R   0.643927 0.079215 0.683615 -0.158068
C44   C     C_R   0.396792 0.894562 0.310273 -0.158954
C45   C     C_R   0.856073 0.579215 0.316385 -0.158068
C46   C     C_R   0.103208 0.394562 0.689727 -0.158955
C47   C     C_R   0.143927 0.579215 0.683615 -0.158068
C48   C     C_R   0.896792 0.394562 0.310273 -0.158954
C49   C     C_R   0.346334 0.185646 0.933566 0.156604
C50   C     C_R   0.873976 0.697044 0.995513 -0.103361
C51   C     C_R   0.712300 0.851983 0.977190 0.153538
C52   C     C_R   0.653666 0.185646 0.066434 0.156604
C53   C     C_R   0.287700 0.851983 0.022810 0.153538
C54   C     C_R   0.846334 0.685646 0.933566 0.156604
C55   C     C_R   0.212300 0.351983 0.977190 0.153538
C56   C     C_R   0.153666 0.685646 0.066434 0.156604
C57   C     C_R   0.787700 0.351983 0.022810 0.153538
C58   C     C_R   0.371320 0.819925 0.312482 0.106262
C59   C     C_R   0.693570 0.138537 0.677914 0.113060
C60   C     C_R   0.628680 0.819925 0.687518 0.106262
C61   C     C_R   0.160540 0.324634 0.951654 -0.113232
C62   C     C_R   0.306430 0.138537 0.322086 0.113061
C63   C     C_R   0.871320 0.319925 0.312482 0.106262
C64   C     C_R   0.193570 0.638537 0.677914 0.113060
C65   C     C_R   0.128680 0.319925 0.687518 0.106262
C66   C     C_R   0.806430 0.638537 0.322086 0.113060
C67   C     C_3   0.181386 0.149452 0.537258 -0.352966
C68   C     C_3   0.733752 0.799429 0.479427 -0.364851
C69   C     C_3   0.818614 0.149452 0.462742 -0.352964
C70   C     C_3   0.266248 0.799429 0.520573 -0.364851
C71   C     C_3   0.681386 0.649452 0.537258 -0.352965
C72   C     C_R   0.126024 0.697044 0.004487 -0.103361
C73   C     C_3   0.233752 0.299429 0.479427 -0.364851
C74   C     C_3   0.318614 0.649452 0.462742 -0.352965
C75   C     C_3   0.766248 0.299429 0.520572 -0.364849
C76   C     C_3   0.622269 0.719399 0.559244 -0.318000
C77   C     C_3   0.291759 0.230496 0.458817 -0.323145
C78   C     C_3   0.377731 0.719399 0.440756 -0.318000
C79   C     C_3   0.708241 0.230496 0.541183 -0.323147
C80   C     C_3   0.122269 0.219399 0.559244 -0.317998
C81   C     C_3   0.791759 0.730496 0.458817 -0.323145
C82   C     C_3   0.877731 0.219399 0.440756 -0.318002
C83   C     C_R   0.839461 0.324634 0.048346 -0.113232
C84   C     C_3   0.208241 0.730496 0.541183 -0.323147
C85   C     C_3   0.666761 0.767820 0.595700 0.021724
C86   C     C_3   0.248181 0.181462 0.421447 0.028654
C87   C     C_3   0.333239 0.767820 0.404300 0.021724
C88   C     C_3   0.751819 0.181462 0.578554 0.028655
C89   C     C_3   0.166761 0.267820 0.595700 0.021724
C90   C     C_3   0.748181 0.681462 0.421446 0.028654
C91   C     C_3   0.833239 0.267820 0.404300 0.021724
C92   C     C_3   0.251819 0.681462 0.578554 0.028655
C93   C     C_3   0.293384 0.110152 0.607327 0.283126
C94   C     C_3   0.224546 0.199391 0.573886 0.646988
C95   C     C_3   0.316423 0.090355 0.682418 -0.950697
C96   C     C_3   0.630304 0.841116 0.399124 0.251499
C97   C     C_3   0.609359 0.859577 0.321507 -0.911796
C98   C     C_3   0.706615 0.110152 0.392673 0.283125
C99   C     C_3   0.683577 0.090354 0.317582 -0.950700
C100  C     C_3   0.369696 0.841116 0.600876 0.251499
C101  C     C_3   0.390641 0.859577 0.678493 -0.911797
C102  C     C_3   0.793384 0.610152 0.607327 0.283125
C103  C     C_3   0.816423 0.590355 0.682418 -0.950697
C104  C     C_3   0.130305 0.341117 0.399124 0.251498
H1    H     H_    0.381171 0.251874 0.023324 0.081191
H2    H     H_    0.669257 0.223628 0.800952 0.139007
H3    H     H_    0.612422 0.746421 0.815462 0.134580
H4    H     H_    0.330743 0.223628 0.199048 0.139006
H5    H     H_    0.887578 0.246421 0.184538 0.134580
H6    H     H_    0.169257 0.723628 0.800952 0.139006
H7    H     H_    0.112422 0.246421 0.815462 0.134580
H8    H     H_    0.830743 0.723628 0.199048 0.139006
H9    H     H_    0.309457 0.947614 0.912104 0.101996
H10   H     H_    0.638640 0.083739 0.163153 0.109089
H11   H     H_    0.690543 0.947614 0.087896 0.101997
H12   H     H_    0.670252 0.774810 0.902957 0.106689
H13   H     H_    0.361360 0.083739 0.836847 0.109088
H14   H     H_    0.809457 0.447614 0.912104 0.101996
H15   H     H_    0.138639 0.583739 0.163153 0.109089
H16   H     H_    0.190543 0.447614 0.087896 0.101997
H17   H     H_    0.861360 0.583739 0.836847 0.109089
H18   H     H_    0.344189 0.045232 0.383173 0.085880
H19   H     H_    0.598199 0.921835 0.630709 0.082178
H20   H     H_    0.655811 0.045232 0.616827 0.085880
H21   H     H_    0.401801 0.921835 0.369291 0.082177
H22   H     H_    0.844189 0.545232 0.383173 0.085880
H23   H     H_    0.618828 0.251874 0.976676 0.081191
H24   H     H_    0.098199 0.421835 0.630709 0.082178
H25   H     H_    0.155811 0.545232 0.616827 0.085880
H26   H     H_    0.901801 0.421835 0.369291 0.082177
H27   H     H_    0.161944 0.087468 0.557533 0.147846
H28   H     H_    0.754198 0.861145 0.457949 0.141585
H29   H     H_    0.838056 0.087468 0.442467 0.147847
H30   H     H_    0.245802 0.861145 0.542051 0.141585
H31   H     H_    0.661944 0.587468 0.557533 0.147846
H32   H     H_    0.254198 0.361145 0.457949 0.141585
H33   H     H_    0.338056 0.587468 0.442467 0.147847
H34   H     H_    0.329748 0.774810 0.097043 0.106689
H35   H     H_    0.745802 0.361145 0.542050 0.141585
H36   H     H_    0.212368 0.722870 0.140175 0.142795
H37   H     H_    0.690929 0.333667 0.000922 0.126207
H38   H     H_    0.787632 0.722871 0.859825 0.142795
H39   H     H_    0.309071 0.333667 0.999078 0.126206
H40   H     H_    0.712368 0.222871 0.140175 0.142795
H41   H     H_    0.190929 0.833667 0.000922 0.126206
H42   H     H_    0.287632 0.222871 0.859825 0.142795
H43   H     H_    0.809071 0.833667 0.999078 0.126206
H44   H     H_    0.552367 0.717233 0.602129 0.153752
H45   H     H_    0.881171 0.751875 0.023324 0.081191
H46   H     H_    0.361600 0.233732 0.416596 0.150854
H47   H     H_    0.447633 0.717233 0.397871 0.153752
H48   H     H_    0.638400 0.233732 0.583403 0.150854
H49   H     H_    0.052367 0.217233 0.602129 0.153752
H50   H     H_    0.861600 0.733732 0.416596 0.150855
H51   H     H_    0.947633 0.217233 0.397871 0.153752
H52   H     H_    0.138400 0.733732 0.583403 0.150854
H53   H     H_    0.353888 0.120377 0.524176 0.084975
H54   H     H_    0.259215 0.059430 0.605413 0.080198
H55   H     H_    0.257605 0.079172 0.766349 0.257661
H56   H     H_    0.170252 0.274810 0.902957 0.106689
H57   H     H_    0.357184 0.037496 0.652145 0.210170
H58   H     H_    0.352122 0.139433 0.684362 0.257170
H59   H     H_    0.669199 0.889890 0.395243 0.085133
H60   H     H_    0.569506 0.836743 0.483249 0.095766
H61   H     H_    0.571474 0.811537 0.322022 0.257870
H62   H     H_    0.571715 0.914263 0.346892 0.196344
H63   H     H_    0.669376 0.866761 0.237469 0.256016
H64   H     H_    0.646111 0.120379 0.475824 0.084976
H65   H     H_    0.740782 0.059430 0.394590 0.080197
H66   H     H_    0.742396 0.079170 0.233652 0.257661
H67   H     H_    0.118828 0.751875 0.976676 0.081191
H68   H     H_    0.642815 0.037496 0.347856 0.210170
H69   H     H_    0.647880 0.139432 0.315636 0.257171
H70   H     H_    0.330801 0.889890 0.604757 0.085132
H71   H     H_    0.430493 0.836743 0.516751 0.095766
H72   H     H_    0.428526 0.811537 0.677978 0.257870
H73   H     H_    0.428284 0.914263 0.653109 0.196344
H74   H     H_    0.330624 0.866760 0.762532 0.256016
H75   H     H_    0.853889 0.620377 0.524176 0.084975
H76   H     H_    0.759216 0.559430 0.605413 0.080198
H77   H     H_    0.757605 0.579172 0.766349 0.257661
H78   H     H_    0.829748 0.274810 0.097043 0.106689
H79   H     H_    0.857184 0.537496 0.652144 0.210170
H80   H     H_    0.852122 0.639433 0.684362 0.257170
H81   H     H_    0.169200 0.389890 0.395241 0.085133
H82   H     H_    0.069507 0.336744 0.483249 0.095765
H83   H     H_    0.071473 0.311538 0.322023 0.257869
H84   H     H_    0.071716 0.414264 0.346891 0.196344
H85   H     H_    0.169376 0.366760 0.237468 0.256016
H86   H     H_    0.146111 0.620379 0.475824 0.084976
H87   H     H_    0.240783 0.559430 0.394589 0.080197
H88   H     H_    0.242395 0.579171 0.233652 0.257662
H89   H     H_    0.387578 0.746421 0.184538 0.134580
H90   H     H_    0.142815 0.537496 0.347856 0.210170
H91   H     H_    0.147879 0.639433 0.315637 0.257171
H92   H     H_    0.830803 0.389890 0.604754 0.085132
H93   H     H_    0.930495 0.336741 0.516751 0.095767
H94   H     H_    0.928525 0.311537 0.677980 0.257871
H95   H     H_    0.928286 0.414263 0.653107 0.196344
H96   H     H_    0.830624 0.366762 0.762530 0.256016
N1    N     N_R   0.408680 0.130810 0.995780 -0.045590
N2    N     N_R   0.578590 0.132790 0.846380 -0.053566
N3    N     N_R   0.578590 0.867210 0.846380 -0.051658
N4    N     N_R   0.421410 0.132790 0.153620 -0.053566
N5    N     N_R   0.921410 0.367210 0.153620 -0.051658
N6    N     N_R   0.078590 0.632790 0.846380 -0.053566
N7    N     N_R   0.078590 0.367210 0.846380 -0.051658
N8    N     N_R   0.921410 0.632790 0.153620 -0.053566
N9    N     N_R   0.403840 0.921910 0.935760 -0.039374
N10   N     N_R   0.596160 0.078090 0.064240 -0.038448
N11   N     N_R   0.596160 0.921910 0.064240 -0.039374
N12   N     N_R   0.591320 0.869190 0.004220 -0.049565
N13   N     N_R   0.403840 0.078090 0.935760 -0.038448
N14   N     N_R   0.903840 0.421910 0.935760 -0.039374
N15   N     N_R   0.096160 0.578090 0.064240 -0.038448
N16   N     N_R   0.096160 0.421910 0.064240 -0.039374
N17   N     N_R   0.903840 0.578090 0.935760 -0.038448
N18   N     N_R   0.426250 0.076100 0.213650 -0.039761
N19   N     N_R   0.573750 0.923900 0.786350 -0.034412
N20   N     N_R   0.573750 0.076100 0.786350 -0.039761
N21   N     N_R   0.426250 0.923900 0.213650 -0.034412
N22   N     N_R   0.926250 0.576100 0.213650 -0.039761
N23   N     N_R   0.591320 0.130810 0.004220 -0.045590
N24   N     N_R   0.073750 0.423900 0.786350 -0.034412
N25   N     N_R   0.073750 0.576100 0.786350 -0.039761
N26   N     N_R   0.926250 0.423900 0.213650 -0.034412
N27   N     N_R   0.408680 0.869190 0.995780 -0.049565
N28   N     N_R   0.908680 0.630810 0.995780 -0.045590
N29   N     N_R   0.091320 0.369190 0.004220 -0.049565
N30   N     N_R   0.091320 0.630810 0.004220 -0.045590
N31   N     N_R   0.908680 0.369190 0.995780 -0.049565
N32   N     N_R   0.421410 0.867210 0.153620 -0.051658
Ni1   Ni    Ni4+2 0.500000 0.131570 0.000000 0.207569
Ni2   Ni    Ni4+2 0.500000 0.868430 0.000000 0.211017
Ni3   Ni    Ni4+2 0.000000 0.631570 0.000000 0.207569
Ni4   Ni    Ni4+2 0.000000 0.368430 0.000000 0.211017
Ni5   Ni    Ni4+2 0.488900 1.000000 0.862310 0.210770
Ni6   Ni    Ni4+2 0.511100 0.000000 0.137690 0.210770
Ni7   Ni    Ni4+2 0.988900 0.500000 0.862310 0.210770
Ni8   Ni    Ni4+2 0.011100 0.500000 0.137690 0.210770
O1    O     O_3   0.240911 0.176912 0.647426 -0.650677
O2    O     O_3   0.676219 0.770616 0.366812 -0.641197
O3    O     O_3   0.759089 0.176912 0.352573 -0.650677
O4    O     O_3   0.323781 0.770616 0.633188 -0.641197
O5    O     O_3   0.740911 0.676912 0.647426 -0.650677
O6    O     O_3   0.176219 0.270616 0.366812 -0.641197
O7    O     O_3   0.259089 0.676912 0.352574 -0.650677
O8    O     O_3   0.823781 0.270616 0.633188 -0.641197

loop_
_geom_bond_atom_site_label_1
_geom_bond_atom_site_label_2
_ccdc_geom_bond_type
C78   C87   S    
C3    C104  S    
C23   C58   A    
C14   C56   S    
C10   C85   S    
C19   H40   S    
C102  H75   S    
C12   C74   S    
C40   N17   A    
C31   C66   A    
C18   C21   D    
C102  H76   S    
C50   N28   A    
C43   N20   A    
C29   N6    A    
C17   N12   A    
C1    N1    A    
C3    H84   S    
C17   C51   A    
C21   C49   S    
C41   N18   A    
C2    C76   S    
C80   H49   S    
C66   C90   S    
C99   H66   S    
C33   C52   A    
C65   C89   S    
C40   H17   S    
C62   C86   S    
C24   N2    A    
C34   C51   A    
C50   C54   A    
C72   N30   A    
C47   H25   S    
C95   H55   S    
C45   N22   A    
N10   Ni6   S    
C6    O8    S    
C18   H39   S    
C94   O1    S    
N9    Ni5   S    
C15   C19   D    
C2    C68   S    
C95   H57   S    
C71   H31   S    
C71   C76   S    
C43   H20   S    
C70   C87   S    
C11   C86   S    
N8    N22   A    
C97   H62   S    
N15   N30   A    
C77   C94   S    
C89   C94   S    
C46   N24   A    
C12   C84   S    
C68   H28   S    
N21   N32   A    
C1    C49   A    
N2    N20   A    
C7    H96   S    
C2    C90   S    
C73   C77   S    
C59   C88   S    
N28   Ni3   S    
C101  H74   S    
N23   Ni1   S    
C36   N14   A    
C15   H37   S    
C37   C56   A    
C19   C52   S    
C38   C55   A    
C13   C75   S    
C44   C58   A    
C56   C72   A    
C99   H69   S    
C35   C49   A    
C8    C79   S    
C61   N29   A    
C31   H8    S    
C57   C83   A    
N31   Ni4   S    
C69   C82   S    
C25   C60   A    
C32   H9    S    
C36   H14   S    
N17   Ni7   S    
C39   N27   A    
C23   N32   A    
C100  O4    S    
C28   H23   S    
C75   C91   S    
C5    H91   S    
C38   H16   S    
C10   C71   S    
C80   C89   S    
C39   H34   S    
C74   C92   S    
N7    N24   A    
C93   C95   S    
C58   C87   S    
C68   C85   S    
C98   H65   S    
C4    H87   S    
C48   H26   S    
C102  C103  S    
C102  O5    S    
C41   C62   A    
C100  H71   S    
N14   N31   A    
C9    C92   S    
C6    H92   S    
C79   C88   S    
C78   H47   S    
C26   N4    A    
C74   H33   S    
C44   H21   S    
N26   Ni8   S    
C103  H80   S    
N16   Ni8   S    
C72   H67   S    
C4    H86   S    
C29   H6    S    
N30   Ni3   S    
C9    C70   S    
N3    Ni2   S    
C42   N19   A    
C11   C73   S    
C95   H58   S    
C26   H4    S    
C47   C64   A    
C8    C91   S    
C20   C53   S    
C48   C63   A    
C99   H68   S    
C42   H19   S    
C8    O3    S    
C34   H11   S    
C97   H63   S    
C13   C82   S    
C82   C91   S    
C96   H60   S    
C83   H78   S    
N4    N18   A    
N6    Ni3   S    
C27   N5    A    
C41   H18   S    
C76   H44   S    
C16   H38   S    
C4    O7    S    
N4    Ni1   S    
C104  H81   S    
C14   C20   D    
C67   C94   S    
C48   N26   A    
C33   N10   A    
C15   C57   S    
N1    Ni1   S    
N11   N12   A    
C37   H15   S    
C73   H32   S    
C28   N23   A    
C45   H22   S    
N1    N13   A    
C96   C97   S    
C23   H89   S    
N6    N25   A    
N32   Ni2   S    
N16   N29   A    
C8    C69   S    
N11   Ni6   S    
N5    N26   A    
C10   O5    S    
C33   H10   S    
C93   H53   S    
C2    O2    S    
N8    Ni3   S    
C96   O2    S    
C98   O3    S    
C69   C88   S    
C27   C63   A    
C18   C55   S    
C46   C65   A    
C81   C90   S    
N7    Ni4   S    
N13   Ni5   S    
C14   H36   S    
C77   C86   S    
C36   C57   A    
C40   C54   A    
C100  H70   S    
N25   Ni7   S    
C103  H79   S    
N20   Ni5   S    
C35   H13   S    
C24   H2    S    
C82   H51   S    
C47   N25   A    
C42   C60   A    
C32   C53   A    
C84   H52   S    
C79   H48   S    
C70   C84   S    
C25   H3    S    
C43   C59   A    
C46   H24   S    
N27   Ni2   S    
N3    N19   A    
C67   C86   S    
C16   C22   D    
N10   N23   A    
C12   C87   S    
C103  H77   S    
C11   O6    S    
N5    Ni4   S    
C67   H27   S    
C67   C80   S    
C5    H88   S    
C38   N16   A    
C4    C5    S    
C25   N3    A    
C3    H83   S    
C77   H46   S    
C6    H93   S    
N12   Ni2   S    
C60   C85   S    
C6    C7    S    
N15   Ni8   S    
C11   C80   S    
C69   H29   S    
C12   O7    S    
C104  H82   S    
N21   Ni6   S    
C10   C81   S    
C104  O6    S    
C96   H59   S    
C68   C81   S    
C30   H7    S    
C21   H42   S    
N19   Ni5   S    
N29   Ni4   S    
C3    H85   S    
N14   Ni7   S    
C26   C62   A    
N9    N27   A    
C73   C89   S    
C31   N8    A    
C93   O1    S    
N2    Ni1   S    
C61   H56   S    
C32   N9    A    
C28   C52   A    
C50   H45   S    
C39   C53   A    
C71   C90   S    
C83   N31   A    
C7    H94   S    
C24   C59   A    
C97   H61   S    
C30   N7    A    
C55   C61   A    
C13   C88   S    
N22   Ni8   S    
C100  C101  S    
C9    C78   S    
C7    H95   S    
C93   H54   S    
N24   Ni7   S    
C16   C54   S    
C29   C64   A    
C30   C65   A    
C101  H73   S    
C34   N11   A    
C81   H50   S    
N17   N28   A    
C13   O8    S    
C22   H43   S    
C27   H5    S    
C98   C99   S    
C74   C78   S    
C63   C91   S    
C45   C66   A    
C70   H30   S    
N18   Ni6   S    
C20   H41   S    
C22   C51   S    
C101  H72   S    
C75   H35   S    
C44   N21   A    
C84   C92   S    
C64   C92   S    
C9    O4    S    
C75   C79   S    
C76   C85   S    
C37   N15   A    
C98   H64   S    
C17   H12   S    
C1    H1    S    
C5    H90   S    
C35   N13   A    
