data_mof_unit_8891.cif
_audit_creation_date              2012-10-26T18:31:54-0400
_audit_creation_method            fapswitch 2.2
_symmetry_space_group_name_H-M    P1
_symmetry_Int_Tables_number       1
_space_group_crystal_system       triclinic
_cell_length_a                    12.369304
_cell_length_b                    13.225463
_cell_length_c                    14.248021
_cell_angle_alpha                 93.619237
_cell_angle_beta                  107.578063
_cell_angle_gamma                 117.014954
_cell_volume                      1923.70601094

loop_
_atom_site_label
_atom_site_type_symbol
_atom_type_description
_atom_site_fract_x
_atom_site_fract_y
_atom_site_fract_z
_atom_type_partial_charge
C1    C     C_R   0.651095 0.714772 0.509051 0.551193
C2    C     C_R   0.229447 0.530484 0.019113 0.050783
C3    C     C_R   0.161910 0.518013 0.086063 0.031662
C4    C     C_R   0.617727 0.515904 0.686678 0.542614
C5    C     C_R   0.344129 0.522953 0.047563 -0.138221
C6    C     C_R   0.393317 0.504101 0.142416 -0.141435
C7    C     C_R   0.209769 0.492764 0.178697 -0.132789
C8    C     C_R   0.134595 0.965570 0.356562 -0.141393
C9    C     C_R   0.248267 0.161465 0.460910 -0.006465
C10   C     C_R   0.728824 0.926622 0.570538 0.254115
C11   C     C_R   0.824248 0.043374 0.591211 -0.127018
C12   C     C_R   0.872296 0.536923 0.925842 0.032285
C13   C     C_R   0.925944 0.074987 0.556941 -0.171575
C14   C     C_R   0.933568 0.990430 0.497561 0.020404
C15   C     C_R   0.830344 0.873140 0.467964 -0.021098
C16   C     C_R   0.344945 0.284988 0.484175 0.542692
C17   C     C_R   0.039113 0.019545 0.464493 0.040603
C18   C     C_R   0.032667 0.935800 0.392468 0.051886
C19   C     C_R   0.923087 0.824595 0.355119 -0.136017
C20   C     C_R   0.822959 0.793878 0.391568 -0.120962
C21   C     C_R   0.151433 0.129942 0.501316 -0.135062
C22   C     C_R   0.241110 0.078724 0.389403 -0.149870
C23   C     C_R   0.810147 0.532476 0.995744 0.052479
C24   C     C_R   0.735660 0.839299 0.513759 -0.006535
C25   C     C_R   0.252661 0.686615 0.660873 -0.149856
C26   C     C_R   0.654285 0.341130 0.363589 0.040055
C27   C     C_R   0.731475 0.306080 0.333025 -0.167689
C28   C     C_R   0.383069 0.485104 0.313494 0.533139
C29   C     C_R   0.866854 0.365764 0.383893 -0.140273
C30   C     C_R   0.927384 0.462084 0.466580 0.004146
C31   C     C_R   0.843754 0.495101 0.495005 0.183136
C32   C     C_R   0.067073 0.526656 0.522252 -0.027237
C33   C     C_R   0.118481 0.622065 0.604290 -0.008518
C34   C     C_R   0.995130 0.540506 0.958050 0.030111
C35   C     C_R   0.036072 0.653396 0.630014 -0.182346
C36   C     C_R   0.902220 0.591330 0.576993 -0.099471
C37   C     C_R   0.159116 0.501857 0.500638 -0.015609
C38   C     C_R   0.338242 0.656493 0.638317 0.412481
C39   C     C_R   0.683306 0.523823 0.793732 -0.006474
C40   C     C_R   0.326631 0.490145 0.208698 -0.001952
C41   C     C_R   0.687291 0.525044 0.964468 -0.137733
C42   C     C_R   0.623440 0.519069 0.863735 -0.152927
C43   C     C_R   0.806410 0.532647 0.824990 -0.136165
C44   C     C_3   0.544883 0.934323 0.565047 0.037409
C45   C     C_R   0.047953 0.529264 0.057804 0.030851
C46   C     C_3   0.529301 0.002392 0.645935 -0.266801
C47   C     C_3   0.434465 0.045168 0.598735 -0.480106
C48   C     C_3   0.505831 0.721492 0.795034 0.021181
C49   C     C_3   0.563811 0.842996 0.861459 -0.278324
C50   C     C_3   0.611583 0.843566 0.973733 -0.483375
C51   C     C_R   0.986322 0.531466 0.126503 -0.143446
C52   C     C_R   0.869961 0.533490 0.095819 -0.139936
C53   C     C_R   0.066843 0.554724 0.894140 -0.141356
C54   C     C_R   0.182219 0.550709 0.924723 -0.136380
Cu1   Cu    Cu3+1 0.416420 0.526630 0.522910 0.987348
Cu2   Cu    Cu3+1 0.583580 0.473370 0.477090 0.905044
H1    H     H_    0.825066 0.533324 0.150526 0.105566
H2    H     H_    0.157520 0.474025 0.229337 0.114227
H3    H     H_    0.075525 0.726730 0.692836 0.108329
H4    H     H_    0.290695 0.760769 0.722075 0.088645
H5    H     H_    0.128117 0.431308 0.438819 0.122122
H6    H     H_    0.549450 0.293963 0.323452 0.123659
H7    H     H_    0.921750 0.334801 0.357157 0.099851
H8    H     H_    0.686056 0.232138 0.269568 0.102239
H9    H     H_    0.848099 0.621935 0.603566 0.181606
H10   H     H_    0.484573 0.503061 0.164656 0.119766
H11   H     H_    0.233947 0.562111 0.873415 0.099504
H12   H     H_    0.396895 0.533647 0.997088 0.093996
H13   H     H_    0.639211 0.521059 0.017506 0.098275
H14   H     H_    0.526416 0.508596 0.840374 0.109212
H15   H     H_    0.846831 0.532381 0.768056 0.117659
H16   H     H_    0.026673 0.533960 0.205577 0.104588
H17   H     H_    0.038402 0.571805 0.820409 0.107902
H18   H     H_    0.448917 0.855147 0.521283 0.164477
H19   H     H_    0.572199 0.989221 0.510561 0.099428
H20   H     H_    0.491792 0.945297 0.695405 0.182442
H21   H     H_    0.626000 0.078740 0.693335 0.161425
H22   H     H_    0.471719 0.105206 0.550880 0.165158
H23   H     H_    0.315599 0.102346 0.357007 0.118293
H24   H     H_    0.424504 0.093198 0.659440 0.151776
H25   H     H_    0.336619 0.969944 0.551932 0.160737
H26   H     H_    0.583869 0.698125 0.814635 0.170194
H27   H     H_    0.424371 0.655451 0.814117 0.083519
H28   H     H_    0.647366 0.906902 0.843803 0.193075
H29   H     H_    0.489545 0.871049 0.846353 0.138651
H30   H     H_    0.529033 0.781555 0.993417 0.149947
H31   H     H_    0.653316 0.932555 0.020177 0.151601
H32   H     H_    0.688598 0.818425 0.992109 0.151804
H33   H     H_    0.914474 0.761026 0.297264 0.103175
H34   H     H_    0.129915 0.902429 0.300886 0.109250
H35   H     H_    0.166029 0.194355 0.561148 0.116153
H36   H     H_    0.994332 0.167222 0.575283 0.111963
H37   H     H_    0.820848 0.110159 0.636319 0.123796
H38   H     H_    0.737654 0.708615 0.355797 0.146300
N1    N     N_R   0.290690 0.566960 0.557640 -0.227150
N2    N     N_R   0.709100 0.433710 0.442970 -0.235702
O1    O     O_R   0.545970 0.684450 0.528810 -0.407224
O2    O     O_3   0.471930 0.723477 0.691047 -0.499597
O3    O     O_R   0.687130 0.639470 0.490120 -0.540929
O4    O     O_R   0.519670 0.535100 0.660030 -0.475366
O5    O     O_R   0.660830 0.490120 0.621340 -0.523250
O6    O     O_R   0.312870 0.360530 0.509880 -0.513167
O7    O     O_R   0.454030 0.315550 0.471190 -0.507764
O8    O     O_R   0.339170 0.509880 0.378660 -0.518091
O9    O     O_R   0.480330 0.464900 0.339970 -0.515392
O10   O     O_3   0.634881 0.897739 0.613051 -0.517887

loop_
_geom_bond_atom_site_label_1
_geom_bond_atom_site_label_2
_ccdc_geom_bond_type
Cu1   Cu2   S    
C29   H7    S    
C27   C29   A    
C41   C42   A    
C19   C20   A    
C38   O2    S    
C1    O3    A    
C46   H20   S    
C53   C54   A    
C12   C23   A    
C26   C27   A    
C49   H28   S    
C9    C16   S    
Cu2   O5    S    
C12   C43   A    
C3    C7    A    
C30   C31   A    
C9    C22   A    
C28   C40   S    
C31   N2    A    
C42   H14   S    
C37   N1    A    
C35   H3    S    
C18   C19   A    
C27   H8    S    
C35   C36   A    
Cu1   O4    S    
C8    C22   A    
C7    C40   A    
C25   H4    S    
C7    H2    S    
C50   H32   S    
C11   H37   S    
C13   C14   A    
C14   C17   A    
C47   H24   S    
C5    H12   S    
C44   C46   S    
C39   C42   A    
C26   N2    A    
C15   C20   A    
C51   C52   A    
C49   H29   S    
Cu1   N1    S    
C2    C54   A    
C1    O1    A    
C36   H9    S    
C39   C43   A    
C54   H11   S    
C10   C24   A    
Cu1   O8    S    
C3    C45   A    
C8    C18   A    
C38   N1    A    
C44   H19   S    
C29   C30   A    
C19   H33   S    
C25   C38   A    
C28   O8    A    
C16   O7    A    
Cu1   O6    S    
C4    C39   S    
C28   O9    A    
C4    O5    A    
Cu1   O1    S    
C17   C18   A    
C34   C45   A    
C32   C37   A    
C44   H18   S    
C50   H31   S    
C1    C24   S    
C16   O6    A    
C48   C49   S    
C10   C11   A    
C4    O4    A    
C13   H36   S    
C47   H22   S    
C6    C40   A    
C10   O10   S    
C2    C5    A    
C8    H34   S    
C51   H16   S    
C12   C34   A    
C41   H13   S    
C21   H35   S    
Cu2   N2    S    
C20   H38   S    
C46   C47   S    
C15   C24   A    
C43   H15   S    
C14   C15   A    
C53   H17   S    
Cu2   O7    S    
C22   H23   S    
C46   H21   S    
C37   H5    S    
C44   O10   S    
C48   O2    S    
C23   C41   A    
C48   H27   S    
C32   C33   A    
C2    C3    A    
C26   H6    S    
C30   C32   A    
C11   C13   A    
C9    C21   A    
C23   C52   A    
C5    C6    A    
C33   C35   A    
C48   H26   S    
C47   H25   S    
C17   C21   A    
Cu2   O9    S    
C52   H1    S    
C50   H30   S    
C6    H10   S    
C34   C53   A    
C49   C50   S    
C45   C51   A    
C31   C36   A    
Cu2   O3    S    
C25   C33   A    
