data_mof_unit_43459.cif
_audit_creation_date              2012-12-10T20:47:09-0500
_audit_creation_method            fapswitch 2.2
_symmetry_space_group_name_H-M    P1
_symmetry_Int_Tables_number       1
_space_group_crystal_system       triclinic
_cell_length_a                    10.653991
_cell_length_b                    8.931958
_cell_length_c                    8.109529
_cell_angle_alpha                 90.001727
_cell_angle_beta                  88.088863
_cell_angle_gamma                 90.305274
_cell_volume                      771.270672105

loop_
_atom_site_label
_atom_site_type_symbol
_atom_type_description
_atom_site_fract_x
_atom_site_fract_y
_atom_site_fract_z
_atom_type_partial_charge
C1    C     C_R   0.499951 0.218004 0.499980 0.960247
C2    C     C_R   0.055649 0.505605 0.658798 -0.020492
C3    C     C_R   0.125974 0.455580 0.517959 -0.282171
C4    C     C_R   0.875515 0.516343 0.491111 -0.306657
C5    C     C_R   0.065371 0.411145 0.376492 0.503235
C6    C     C_R   0.938973 0.435924 0.365468 0.512597
C7    C     C_1   0.498958 0.065186 0.500026 -0.128068
C8    C     C_1   0.498237 0.934790 0.500028 -0.122873
C9    C     C_2   0.182119 0.382299 0.882904 0.573338
C10   C     C_2   0.795599 0.789661 0.702287 0.415075
C11   C     C_R   0.498144 0.781949 0.500038 0.968352
C12   C     C_R   0.259769 0.481309 0.504432 0.967786
C13   C     C_R   0.741142 0.509067 0.497082 1.016724
C14   C     C_R   0.096214 0.499373 0.824274 0.024035
C15   C     C_R   0.889376 0.675658 0.745629 0.062379
C16   C     C_R   0.039628 0.592920 0.943254 -0.136783
C17   C     C_R   0.940659 0.685214 0.902058 -0.178724
C18   C     C_R   0.939238 0.569631 0.629899 -0.004719
F1    F     F_    0.127927 0.337940 0.252891 -0.651250
F2    F     F_    0.878963 0.379481 0.233662 -0.609827
H1    H     H_    0.071766 0.594172 0.068526 0.159351
H2    H     H_    0.902907 0.762906 0.993329 0.158126
H3    H     H_    0.234977 0.401150 0.992891 0.102401
H4    H     H_    0.739859 0.844612 0.798822 0.075484
N1    N     N_1   0.500000 0.500000 0.073640 -0.024611
N2    N     N_1   0.500000 0.500000 0.926360 -0.045263
O1    O     O_R   0.500000 0.285350 0.636850 -0.607290
O2    O     O_2   0.784322 0.828942 0.559378 -0.591429
O3    O     O_R   0.500000 0.714650 0.636850 -0.633973
O4    O     O_R   0.500000 0.285360 0.363100 -0.601952
O5    O     O_R   0.500000 0.714640 0.363100 -0.622103
O6    O     O_R   0.316770 0.500000 0.636900 -0.648631
O7    O     O_R   0.683230 0.500000 0.636900 -0.635880
O8    O     O_R   0.316780 0.500000 0.363150 -0.599309
O9    O     O_R   0.683220 0.500000 0.363150 -0.558208
O10   O     O_2   0.193643 0.263351 0.809793 -0.551402
Zn1   Zn    Zn3+2 0.500000 0.500000 0.682780 1.007303
Zn2   Zn    Zn3+2 0.500000 0.500000 0.317220 1.055183

loop_
_geom_bond_atom_site_label_1
_geom_bond_atom_site_label_2
_ccdc_geom_bond_type
C9    O10   D    
C9    C14   S    
N2    Zn1   S    
C13   O7    A    
C16   H1    S    
C5    F1    S    
N1    Zn2   S    
C2    C18   A    
C6    F2    S    
C15   C18   A    
C17   H2    S    
O5    Zn2   S    
C4    C18   A    
C2    C3    A    
C11   O5    A    
C7    C8    T    
O8    Zn2   S    
O6    Zn1   S    
C12   O6    A    
O4    Zn2   S    
O1    Zn1   S    
C8    C11   S    
C15   C17   A    
C1    O4    A    
C13   O9    A    
C10   C15   S    
C5    C6    A    
C2    C14   A    
C14   C16   A    
C10   O2    D    
O9    Zn2   S    
C11   O3    A    
C4    C6    A    
O3    Zn1   S    
C4    C13   S    
C1    O1    A    
C9    H3    S    
C3    C12   S    
C10   H4    S    
N1    N2    T    
C1    C7    S    
C12   O8    A    
O7    Zn1   S    
C16   C17   A    
C3    C5    A    
