data_mof_unit_38236.cif
_audit_creation_date              2012-12-11T14:50:41-0500
_audit_creation_method            fapswitch 2.2
_symmetry_space_group_name_H-M    P1
_symmetry_Int_Tables_number       1
_space_group_crystal_system       triclinic
_cell_length_a                    10.947485
_cell_length_b                    10.979797
_cell_length_c                    18.858159
_cell_angle_alpha                 90.167647
_cell_angle_beta                  89.359474
_cell_angle_gamma                 60.026165
_cell_volume                      1963.38258114

loop_
_atom_site_label
_atom_site_type_symbol
_atom_type_description
_atom_site_fract_x
_atom_site_fract_y
_atom_site_fract_z
_atom_type_partial_charge
C1    C     C_R   0.235694 0.646462 0.609274 0.532725
C2    C     C_3   0.662923 0.554885 0.803455 0.009208
C3    C     C_3   0.704623 0.669701 0.812369 0.054621
C4    C     C_3   0.673150 0.642502 0.676840 0.093313
C5    C     C_3   0.822947 0.629799 0.687772 0.196831
C6    C     C_3   0.659601 0.527962 0.722458 -0.032378
C7    C     C_R   0.781383 0.165076 0.708648 -0.161369
C8    C     C_R   0.791992 0.153653 0.782623 -0.165894
C9    C     C_R   0.684158 0.151997 0.822328 -0.001084
C10   C     C_R   0.566074 0.164016 0.786952 -0.091357
C11   C     C_R   0.563389 0.156788 0.714553 0.082331
C12   C     C_R   0.653586 0.620952 0.601274 0.597129
C13   C     C_R   0.665547 0.169544 0.673997 0.052253
C14   C     C_R   0.241814 0.542026 0.725927 -0.151418
C15   C     C_R   0.226355 0.554828 0.799322 -0.144225
C16   C     C_R   0.157582 0.688229 0.830223 0.032702
C17   C     C_R   0.108403 0.807999 0.787464 -0.143460
C18   C     C_R   0.123219 0.795184 0.714575 -0.163015
C19   C     C_R   0.189934 0.661887 0.683133 0.000798
C20   C     C_R   0.802533 0.611888 0.294700 0.082250
C21   C     C_R   0.820617 0.633074 0.223645 -0.131498
C22   C     C_R   0.704028 0.710171 0.180564 -0.004018
C23   C     C_R   0.629221 0.225281 0.602013 0.533536
C24   C     C_R   0.567595 0.773691 0.209803 -0.164053
C25   C     C_R   0.548573 0.754083 0.281124 -0.178269
C26   C     C_R   0.665662 0.669437 0.323403 0.056535
C27   C     C_R   0.598007 0.104847 0.293002 -0.158639
C28   C     C_R   0.596290 0.090026 0.220664 -0.175697
C29   C     C_R   0.644411 0.158804 0.175290 0.081132
C30   C     C_R   0.688471 0.249120 0.202434 0.069793
C31   C     C_R   0.687215 0.266224 0.275658 -0.129609
C32   C     C_R   0.643631 0.192496 0.320649 0.018281
C33   C     C_R   0.092694 0.791466 0.305215 -0.167271
C34   C     C_R   0.227673 0.645201 0.400218 0.570558
C35   C     C_R   0.064025 0.811495 0.234478 0.075940
C36   C     C_R   0.115063 0.693734 0.188315 0.042817
C37   C     C_R   0.188095 0.557988 0.213920 -0.167064
C38   C     C_R   0.217723 0.537213 0.285550 0.068458
C39   C     C_R   0.172936 0.656924 0.330585 0.024537
C40   C     C_R   0.701571 0.102095 0.895806 0.537072
C41   C     C_R   0.725835 0.688283 0.887867 0.602472
C42   C     C_R   0.114146 0.709604 0.904365 0.548258
C43   C     C_R   0.672500 0.109672 0.102993 0.583272
C44   C     C_R   0.730680 0.717731 0.105296 0.561524
C45   C     C_R   0.643521 0.624073 0.392807 0.573802
C46   C     C_R   0.083236 0.715572 0.114635 0.562073
C47   C     C_R   0.616522 0.232433 0.394119 0.561625
C48   C     C_3   0.586795 0.810863 0.780929 -0.263638
C49   C     C_3   0.557118 0.788915 0.704087 -0.259012
C50   C     C_3   0.847306 0.625106 0.770235 -0.020443
Cr1   Cr    Cr6+3 0.392930 0.397900 0.502230 1.019851
Cr2   Cr    Cr6+3 0.398240 0.708600 0.501260 1.008518
Cr3   Cr    Cr6+3 0.708800 0.393470 0.496460 1.027216
Cr4   Cr    Cr6+3 0.937620 0.938540 0.007640 1.045052
Cr5   Cr    Cr6+3 0.625150 0.937450 0.994520 1.015272
Cr6   Cr    Cr6+3 0.937990 0.625080 0.001190 1.031150
H1    H     H_    0.620888 0.890402 0.782934 0.139155
H2    H     H_    0.753143 0.424353 0.710498 0.134704
H3    H     H_    0.882979 0.146637 0.808467 0.113496
H4    H     H_    0.479477 0.163568 0.815163 0.156557
H5    H     H_    0.300701 0.438757 0.702842 0.143190
H6    H     H_    0.085881 0.889111 0.682957 0.132392
H7    H     H_    0.560111 0.051290 0.327255 0.138481
H8    H     H_    0.717074 0.339234 0.297038 0.144621
H9    H     H_    0.449484 0.803831 0.700854 0.135867
H10   H     H_    0.555161 0.869912 0.669619 0.161414
H11   H     H_    0.880657 0.703005 0.783726 0.143276
H12   H     H_    0.744461 0.455652 0.827857 0.154109
O1    O     O_R   0.507430 0.255570 0.581420 -0.531242
O2    O     O_R   0.524460 0.695920 0.424060 -0.515881
O3    O     O_R   0.736530 0.504260 0.414810 -0.476678
O4    O     O_R   0.691460 0.277160 0.422180 -0.515520
O5    O     O_3   0.499990 0.499990 0.499980 -0.268840
O6    O     O_R   0.089490 0.825610 0.930610 -0.524220
O7    O     O_R   0.818370 0.054540 0.929880 -0.500373
O8    O     O_R   0.605870 0.077310 0.915530 -0.537125
O9    O     O_R   0.646440 0.806700 0.917570 -0.508476
O10   O     O_R   0.837200 0.593290 0.915250 -0.475144
O11   O     O_R   0.065330 0.635370 0.931590 -0.492786
O12   O     O_R   0.280190 0.527390 0.578910 -0.509067
O13   O     O_R   0.068300 0.828790 0.091860 -0.472049
O14   O     O_R   0.798730 0.057480 0.079370 -0.458651
O15   O     O_R   0.584680 0.080480 0.076790 -0.544769
O16   O     O_R   0.626790 0.809640 0.067050 -0.499514
O17   O     O_R   0.816010 0.596460 0.076500 -0.506291
O18   O     O_R   0.045680 0.638310 0.081070 -0.541249
O19   O     O_3   0.833590 0.833690 0.001120 -0.292909
O20   O     O_R   0.260310 0.739740 0.584580 -0.524876
O21   O     O_R   0.532250 0.695150 0.573830 -0.523173
O22   O     O_R   0.744930 0.503430 0.576380 -0.494921
O23   O     O_R   0.699250 0.276390 0.571950 -0.522171
O24   O     O_R   0.499020 0.256400 0.419850 -0.494923
O25   O     O_R   0.272400 0.528160 0.429140 -0.475659
O26   O     O_R   0.251910 0.740570 0.423020 -0.529715
N1    N     N_3   0.961212 0.487455 0.794571 -0.612570
H13   H     H_    0.944558 0.404961 0.780890 0.203333
H14   H     H_    0.057285 0.464865 0.772058 0.231948
N2    N     N_3   0.936829 0.504872 0.650508 -0.569151
H15   H     H_    0.945495 0.410281 0.666756 0.212509
H16   H     H_    0.034436 0.498893 0.656397 0.225919
H17   H     H_    0.861453 0.174246 0.678806 0.116764
N3    N     N_3   0.458383 0.130339 0.684613 -0.666424
H18   H     H_    0.494119 0.075916 0.636511 0.252692
H19   H     H_    0.365493 0.224542 0.676030 0.242443
H20   H     H_    0.265458 0.461512 0.831555 0.124500
H21   H     H_    0.054955 0.912436 0.810352 0.139940
H22   H     H_    0.487243 0.855673 0.812664 0.154503
N4    N     N_3   0.923044 0.528858 0.337359 -0.603272
H23   H     H_    0.975060 0.585428 0.344418 0.232605
H24   H     H_    0.989772 0.434998 0.310245 0.219277
H25   H     H_    0.926125 0.584298 0.201298 0.130293
H26   H     H_    0.476068 0.834282 0.177282 0.144497
H27   H     H_    0.442054 0.798254 0.302010 0.143761
H28   H     H_    0.562427 0.019972 0.200098 0.140577
N5    N     N_3   0.736229 0.320558 0.156213 -0.602126
H29   H     H_    0.839432 0.291619 0.170005 0.236010
H30   H     H_    0.673172 0.428599 0.165726 0.244687
H31   H     H_    0.055926 0.882446 0.340002 0.130805
N6    N     N_3   0.980476 0.952572 0.210360 -0.570474
H32   H     H_    0.034289 0.006726 0.221132 0.224753
H33   H     H_    0.888888 0.997738 0.241357 0.228415
H34   H     H_    0.222961 0.468991 0.178044 0.122132
N7    N     N_3   0.295005 0.396101 0.311755 -0.567253
H35   H     H_    0.226499 0.379272 0.343813 0.237174
H36   H     H_    0.325035 0.323228 0.270138 0.220782
N8    N     N_3   0.820816 0.754339 0.656444 -0.615190
H37   H     H_    0.923387 0.735106 0.648418 0.242043
H38   H     H_    0.772962 0.841764 0.690267 0.208185
N9    N     N_3   0.530853 0.592776 0.842162 -0.621954
H39   H     H_    0.515342 0.506163 0.842102 0.260002
H40   H     H_    0.443899 0.676188 0.818289 0.247396
N10   N     N_3   0.536484 0.514754 0.704882 -0.634024
H41   H     H_    0.446155 0.612941 0.706297 0.242377
H42   H     H_    0.545947 0.478014 0.653122 0.261581

loop_
_geom_bond_atom_site_label_1
_geom_bond_atom_site_label_2
_ccdc_geom_bond_type
N8    H37   S    
C45   O3    A    
C43   O15   A    
C47   O24   A    
C23   O1    A    
C35   N6    S    
N1    H13   S    
C24   H26   S    
C34   O25   A    
N7    H35   S    
N9    H40   S    
C28   C29   A    
C33   C39   A    
Cr6   O11   S    
C49   H9    S    
C12   O22   A    
C36   C37   A    
C37   C38   A    
C2    H12   S    
C8    H3    S    
C41   O9    A    
Cr4   O19   S    
Cr5   O9    S    
C50   N1    S    
N7    H36   S    
C48   H22   S    
C16   C17   A    
C15   C16   A    
C3    C48   S    
C2    N9    S    
Cr6   O10   S    
N4    H23   S    
C13   C23   S    
C18   C19   A    
C6    H2    S    
Cr1   O12   S    
C26   C45   S    
Cr4   O6    S    
C22   C44   S    
C35   C36   A    
C8    C9    A    
N5    H30   S    
C5    N8    S    
Cr3   O23   S    
Cr2   O26   S    
C4    C12   S    
C50   H11   S    
C38   N7    S    
C1    O20   A    
C27   C32   A    
C42   O11   A    
C21   C22   A    
C29   C43   S    
Cr3   O22   S    
Cr2   O21   S    
C2    C6    S    
C14   C19   A    
C21   H25   S    
C3    C50   S    
C30   N5    S    
N6    H33   S    
C42   O6    A    
C1    C19   S    
C49   H10   S    
C34   C39   S    
Cr1   O5    S    
C12   O21   A    
Cr2   O20   S    
Cr2   O2    S    
C24   C25   A    
C4    C6    S    
Cr2   O5    S    
C41   O10   A    
N10   H41   S    
Cr6   O19   S    
C25   C26   A    
C14   H5    S    
C9    C40   S    
C37   H34   S    
C10   H4    S    
C29   C30   A    
C25   H27   S    
Cr1   O24   S    
C46   O13   A    
Cr6   O18   S    
C31   C32   A    
C7    C13   A    
C30   C31   A    
C17   C18   A    
C20   C21   A    
N3    H19   S    
C27   H7    S    
Cr1   O25   S    
Cr5   O8    S    
C6    N10   S    
C48   C49   S    
N2    H16   S    
C32   C47   S    
C22   C24   A    
C5    C50   S    
Cr5   O15   S    
C44   O17   A    
Cr3   O3    S    
C16   C42   S    
Cr4   O14   S    
N9    H39   S    
C9    C10   A    
C43   O14   A    
C3    C41   S    
N8    H38   S    
C45   O2    A    
C31   H8    S    
Cr3   O5    S    
C34   O26   A    
C4    C5    S    
C44   O16   A    
N6    H32   S    
N1    H14   S    
C40   O7    A    
C4    C49   S    
C15   H20   S    
C2    C3    S    
C17   H21   S    
C36   C46   S    
C11   C13   A    
Cr6   O17   S    
C38   C39   A    
C20   C26   A    
C28   H28   S    
C33   C35   A    
N4    H24   S    
C11   N3    S    
C23   O23   A    
Cr5   O19   S    
N3    H18   S    
C47   O4    A    
C7    C8    A    
C10   C11   A    
Cr4   O7    S    
C40   O8    A    
C33   H31   S    
C48   H1    S    
C5    N2    S    
N10   H42   S    
N2    H15   S    
C7    H17   S    
C27   C28   A    
C1    O12   A    
C14   C15   A    
C18   H6    S    
Cr1   O1    S    
C20   N4    S    
Cr5   O16   S    
Cr3   O4    S    
Cr4   O13   S    
N5    H29   S    
C46   O18   A    
