data_mof_unit_6666.cif
_audit_creation_date              2012-12-10T17:37:27-0500
_audit_creation_method            fapswitch 2.2
_symmetry_space_group_name_H-M    P1
_symmetry_Int_Tables_number       1
_space_group_crystal_system       triclinic
_cell_length_a                    11.968118
_cell_length_b                    12.908137
_cell_length_c                    16.798685
_cell_angle_alpha                 90.68079
_cell_angle_beta                  81.947532
_cell_angle_gamma                 93.087115
_cell_volume                      2565.82202413

loop_
_atom_site_label
_atom_site_type_symbol
_atom_type_description
_atom_site_fract_x
_atom_site_fract_y
_atom_site_fract_z
_atom_type_partial_charge
C1    C     C_R   0.521904 0.700460 0.499269 0.923102
C2    C     C_R   0.478096 0.299540 0.500731 0.923101
C3    C     C_R   0.465161 0.188372 0.500979 -0.149158
C4    C     C_R   0.534838 0.811628 0.499020 -0.149158
C5    C     C_R   0.652902 0.969375 0.485459 0.561226
C6    C     C_R   0.347098 0.030625 0.514540 0.561226
C7    C     C_R   0.642179 0.861709 0.486577 -0.289953
C8    C     C_R   0.357821 0.138291 0.513423 -0.289953
C9    C     C_R   0.437451 0.867677 0.509890 -0.242136
C10   C     C_R   0.562549 0.132323 0.490110 -0.242137
C11   C     C_R   0.445668 0.974378 0.506418 -0.005843
C12   C     C_R   0.554332 0.025622 0.493582 -0.005844
C13   C     C_R   0.962200 0.397895 0.427963 0.456365
C14   C     C_R   0.037800 0.602105 0.572037 0.456364
C15   C     C_R   0.844957 0.409592 0.434101 -0.101314
C16   C     C_R   0.155043 0.590408 0.565899 -0.101313
C17   C     C_R   0.854490 0.543434 0.531116 -0.045073
C18   C     C_R   0.145510 0.456565 0.468884 -0.045073
C19   C     C_R   0.972744 0.536764 0.526311 -0.101346
C20   C     C_R   0.027256 0.463235 0.473689 -0.101346
C21   C     C_R   0.484700 0.497101 0.653681 0.895405
C22   C     C_R   0.515300 0.502899 0.346318 0.895407
C23   C     C_R   0.474860 0.479024 0.739343 -0.094713
C24   C     C_R   0.525139 0.520976 0.260657 -0.094713
C25   C     C_R   0.558461 0.424907 0.769244 -0.281569
C26   C     C_R   0.441539 0.575092 0.230756 -0.281569
C27   C     C_R   0.553737 0.410514 0.851800 0.556673
C28   C     C_R   0.446263 0.589485 0.148200 0.556673
C29   C     C_R   0.461765 0.447267 0.903170 -0.015127
C30   C     C_R   0.538234 0.552733 0.096830 -0.015127
C31   C     C_R   0.375089 0.496204 0.873114 -0.226775
C32   C     C_R   0.624911 0.503795 0.126886 -0.226775
C33   C     C_R   0.381324 0.511764 0.791070 -0.172390
C34   C     C_R   0.618676 0.488235 0.208930 -0.172390
C35   C     C_2   0.470456 0.457561 0.988861 0.440754
C36   C     C_2   0.529544 0.542439 0.011139 0.440754
H1    H     H_    0.627424 0.394475 0.728594 0.164116
H2    H     H_    0.372575 0.605525 0.271406 0.164116
H3    H     H_    0.205384 0.638321 0.602182 0.150782
H4    H     H_    0.794616 0.361679 0.397818 0.150782
H5    H     H_    0.684520 0.447661 0.231605 0.162949
H6    H     H_    0.315480 0.552339 0.768395 0.162949
H7    H     H_    0.306151 0.527056 0.913638 0.158544
H8    H     H_    0.693848 0.472944 0.086362 0.158544
H9    H     H_    0.645400 0.172035 0.480002 0.209897
H10   H     H_    0.354600 0.827965 0.519997 0.209898
H11   H     H_    0.282425 0.182239 0.522974 0.175343
H12   H     H_    0.717575 0.817760 0.477026 0.175344
H13   H     H_    0.189529 0.400988 0.429001 0.184210
H14   H     H_    0.810471 0.599012 0.570999 0.184210
N1    N     N_R   0.206400 0.519440 0.514690 -0.133528
N2    N     N_R   0.793600 0.480560 0.485310 -0.133528
O1    O     O_R   0.421320 0.658850 0.503920 -0.631848
O2    O     O_R   0.578680 0.341150 0.496080 -0.631847
O3    O     O_R   0.609840 0.646370 0.494500 -0.623468
O4    O     O_R   0.390160 0.353630 0.505500 -0.623468
O5    O     O_R   0.394600 0.506990 0.621070 -0.620220
O6    O     O_R   0.605400 0.493010 0.378930 -0.620221
O7    O     O_R   0.583120 0.494520 0.611640 -0.619255
O8    O     O_R   0.416880 0.505480 0.388360 -0.619255
Zn1   Zn    Zn3+2 0.374120 0.508330 0.506290 0.943990
Zn2   Zn    Zn3+2 0.625880 0.491670 0.493710 0.943990
O9    O     O_3   0.013713 0.327674 0.373838 -0.618536
C37   C     C_3   0.991739 0.227190 0.406221 -0.329727
H15   H     H_    0.022780 0.221465 0.465433 0.151098
H16   H     H_    0.037791 0.171511 0.364682 0.200776
H17   H     H_    0.900232 0.203486 0.411810 0.199794
O10   O     O_3   0.986287 0.672326 0.626162 -0.618535
C38   C     C_3   0.008260 0.772810 0.593779 -0.329728
H18   H     H_    0.962209 0.828489 0.635318 0.200776
H19   H     H_    0.977219 0.778535 0.534567 0.151099
H20   H     H_    0.099767 0.796514 0.588189 0.199795
O11   O     O_3   0.573593 0.617021 0.953589 -0.632148
C39   C     C_3   0.640331 0.696650 0.984942 -0.290316
H21   H     H_    0.713648 0.664865 0.008632 0.151085
H22   H     H_    0.588807 0.742091 0.031837 0.192448
H23   H     H_    0.674402 0.750683 0.935525 0.198420
O12   O     O_3   0.426407 0.382978 0.046411 -0.632148
C40   C     C_3   0.359669 0.303349 0.015058 -0.290316
H24   H     H_    0.411194 0.257908 0.968163 0.192448
H25   H     H_    0.286352 0.335134 0.991368 0.151085
H26   H     H_    0.325598 0.249316 0.064475 0.198420
O13   O     O_3   0.364170 0.641109 0.116162 -0.619701
C41   C     C_3   0.257246 0.589396 0.136937 -0.311372
H27   H     H_    0.221118 0.607990 0.199694 0.169656
H28   H     H_    0.260256 0.503840 0.128154 0.190264
H29   H     H_    0.199072 0.617448 0.096977 0.190559
O14   O     O_3   0.635830 0.358890 0.883837 -0.619702
C42   C     C_3   0.742754 0.410603 0.863063 -0.311372
H30   H     H_    0.739744 0.496159 0.871846 0.190264
H31   H     H_    0.778882 0.392009 0.800305 0.169656
H32   H     H_    0.800928 0.382551 0.903022 0.190559
O15   O     O_3   0.759004 0.019236 0.470258 -0.629847
C43   C     C_3   0.811172 0.016328 0.540399 -0.380562
H33   H     H_    0.827132 0.935519 0.556159 0.168821
H34   H     H_    0.760022 0.054512 0.591905 0.177600
H35   H     H_    0.894325 0.059719 0.529107 0.192047
O16   O     O_3   0.240996 0.980764 0.529742 -0.629847
C44   C     C_3   0.188827 0.983674 0.459602 -0.380564
H36   H     H_    0.239977 0.945493 0.408094 0.177601
H37   H     H_    0.172865 0.064483 0.443844 0.168821
H38   H     H_    0.105675 0.940281 0.470893 0.192047

loop_
_geom_bond_atom_site_label_1
_geom_bond_atom_site_label_2
_ccdc_geom_bond_type
O6    Zn2   S    
C4    C9    A    
O15   C43   S    
C27   C29   A    
O11   C39   S    
C35   C36   D    
N1    Zn1   S    
C41   H29   S    
C31   H7    S    
C33   H6    S    
C6    O16   S    
C22   C24   S    
C24   C26   A    
C21   O7    A    
C38   H18   S    
C22   O8    A    
O3    Zn2   S    
C38   H19   S    
C1    O1    A    
C25   H1    S    
O1    Zn1   S    
O13   C41   S    
O10   C38   S    
C23   C33   A    
C39   H23   S    
C16   N1    A    
C42   H31   S    
C9    H10   S    
C28   O13   S    
C27   O14   S    
C34   H5    S    
C4    C7    A    
C17   N2    A    
C18   N1    A    
C39   H21   S    
C37   H17   S    
C41   H27   S    
C5    C12   A    
C3    C8    A    
C2    O2    A    
C6    C11   A    
C40   H25   S    
O12   C40   S    
C26   H2    S    
C6    C8    A    
O2    Zn2   S    
C43   H35   S    
C24   C34   A    
C40   H24   S    
O8    Zn1   S    
C32   C34   A    
C38   H20   S    
C21   O5    A    
C44   H36   S    
C13   O9    S    
C10   H9    S    
C31   C33   A    
C32   H8    S    
C15   N2    A    
C42   H32   S    
C43   H34   S    
C9    C11   A    
C10   C12   A    
C44   H37   S    
C21   C23   S    
C14   C16   A    
C39   H22   S    
C5    C7    A    
O7    Zn2   S    
C13   C20   A    
C14   C19   A    
C41   H28   S    
C17   H14   S    
C22   O6    A    
C40   H26   S    
C5    O15   S    
C11   C12   A    
O5    Zn1   S    
C25   C27   A    
C29   C35   S    
C35   O12   S    
C26   C28   A    
C30   C36   S    
C1    C4    S    
C37   H15   S    
C19   C20   A    
C13   C15   A    
C2    C3    S    
C1    O3    A    
C8    H11   S    
C29   C31   A    
C3    C10   A    
N2    Zn2   S    
C7    H12   S    
C30   C32   A    
C28   C30   A    
C17   C19   A    
C18   C20   A    
C23   C25   A    
C43   H33   S    
C15   H4    S    
C36   O11   S    
C16   H3    S    
O9    C37   S    
C44   H38   S    
O14   C42   S    
O16   C44   S    
C14   O10   S    
O4    Zn1   S    
C2    O4    A    
C42   H30   S    
C18   H13   S    
C37   H16   S    
