data_mof_unit_11578.cif
_audit_creation_date              2012-12-11T15:12:27-0500
_audit_creation_method            fapswitch 2.2
_symmetry_space_group_name_H-M    P1
_symmetry_Int_Tables_number       1
_space_group_crystal_system       triclinic
_cell_length_a                    8.264552
_cell_length_b                    17.336101
_cell_length_c                    18.989413
_cell_angle_alpha                 93.790281
_cell_angle_beta                  94.290347
_cell_angle_gamma                 95.615912
_cell_volume                      2692.66366788

loop_
_atom_site_label
_atom_site_type_symbol
_atom_type_description
_atom_site_fract_x
_atom_site_fract_y
_atom_site_fract_z
_atom_type_partial_charge
Ba1   Ba    Ba6+2 0.157360 0.537160 0.466280 1.657153
Ba2   Ba    Ba6+2 0.652820 0.462830 0.533660 1.667469
C1    C     C_3   0.350873 0.728175 0.197656 -0.010306
C2    C     C_R   0.858275 0.747406 0.512655 0.008163
C3    C     C_R   0.915264 0.827207 0.520594 -0.139528
C4    C     C_3   0.882920 0.753203 0.287044 0.530658
C5    C     C_R   0.819632 0.883005 0.492862 0.014316
C6    C     C_R   0.666079 0.857715 0.456657 -0.136222
C7    C     C_R   0.610931 0.777868 0.447870 0.008954
C8    C     C_R   0.885190 0.173627 0.487777 0.131422
C9    C     C_R   0.943072 0.254088 0.494862 0.071619
C10   C     C_R   0.190616 0.224074 0.560058 0.002904
C11   C     C_R   0.133909 0.144581 0.554016 -0.145756
C12   C     C_3   0.395430 0.709228 0.273889 0.376873
C13   C     C_R   0.979781 0.118565 0.519071 -0.027975
C14   C     C_1   0.924817 0.035094 0.511116 -0.007946
C15   C     C_1   0.877334 0.965890 0.503086 -0.014368
C16   C     C_3   0.980785 0.823127 0.328815 -0.286734
C17   C     C_R   0.091660 0.278125 0.533588 -0.330007
C18   C     C_R   0.612233 0.537251 0.297777 -0.290537
C19   C     C_R   0.462822 0.494483 0.276047 0.044081
C20   C     C_R   0.408489 0.486832 0.204151 -0.184197
C21   C     C_R   0.504308 0.519545 0.153146 -0.019153
C22   C     C_R   0.661971 0.557915 0.175102 0.129025
C23   C     C_3   0.542886 0.698022 0.629236 0.322322
C24   C     C_R   0.714622 0.567072 0.248192 -0.017168
C25   C     C_R   0.454768 0.574575 0.034725 -0.058189
C26   C     C_R   0.401592 0.565770 0.962746 -0.095944
C27   C     C_R   0.330118 0.493544 0.931357 0.063559
C28   C     C_3   0.733251 0.344136 0.310957 0.514107
C29   C     C_R   0.309959 0.430641 0.974019 -0.083990
C30   C     C_R   0.364743 0.439262 0.046035 -0.102040
C31   C     C_R   0.439747 0.511150 0.077094 0.076486
C32   C     C_R   0.128031 0.444440 0.828100 -0.148321
C33   C     C_R   0.080639 0.438753 0.755267 0.012000
C34   C     C_3   0.540680 0.785689 0.640147 -0.412910
C35   C     C_R   0.336510 0.510378 0.733266 0.042559
C36   C     C_R   0.384211 0.516822 0.805821 -0.134532
C37   C     C_R   0.280570 0.483918 0.854084 -0.007562
C38   C     C_R   0.186260 0.470686 0.708364 -0.236023
C39   C     C_3   0.603424 0.284407 0.270312 -0.015194
C40   C     C_3   0.076227 0.745933 0.678436 0.514712
C41   C     C_3   0.951911 0.796899 0.707568 -0.424570
C42   C     C_3   0.264661 0.306369 0.385246 0.287996
C43   C     C_3   0.210229 0.220582 0.365343 -0.417449
C44   C     C_3   0.554264 0.175567 0.180694 -0.267807
C45   C     C_3   0.864175 0.248302 0.685617 0.362064
C46   C     C_3   0.141877 0.682518 0.789290 -0.170449
C47   C     C_3   0.401020 0.824878 0.112223 -0.272448
C48   C     C_3   0.310549 0.116736 0.746443 -0.226967
C49   C     C_3   0.747987 0.116467 0.377121 -0.249086
C50   C     C_3   0.874754 0.808030 0.169274 -0.223121
C51   C     C_3   0.845372 0.523130 0.087106 -0.238974
C52   C     C_3   0.945757 0.354370 0.223238 -0.129596
C53   C     C_3   0.826404 0.164895 0.704880 -0.367257
C54   C     C_3   0.353282 0.257459 0.726911 0.545061
C55   C     C_3   0.445434 0.290328 0.797032 -0.293852
C56   C     C_R   0.709065 0.723672 0.474564 -0.260366
H1    H     H_    0.327539 0.652173 0.281144 0.060335
H2    H     H_    0.174934 0.190809 0.412344 0.068853
H3    H     H_    0.310126 0.190802 0.343541 0.111142
H4    H     H_    0.527821 0.703478 0.280680 -0.080876
H5    H     H_    0.407191 0.687116 0.161869 0.039514
H6    H     H_    0.670408 0.684806 0.625203 0.007380
H7    H     H_    0.594482 0.807176 0.694011 0.122238
H8    H     H_    0.414130 0.801244 0.633708 0.110318
H9    H     H_    0.032309 0.804903 0.379764 0.137791
H10   H     H_    0.790385 0.255424 0.635603 0.092499
H11   H     H_    0.995595 0.258365 0.677076 -0.055686
H12   H     H_    0.538230 0.252090 0.309794 0.086877
H13   H     H_    0.692993 0.150353 0.705769 0.141903
H14   H     H_    0.872153 0.124276 0.665175 0.076290
H15   H     H_    0.279940 0.304182 0.708826 -0.071342
H16   H     H_    0.358493 0.300996 0.837589 0.035321
H17   H     H_    0.515633 0.346523 0.789391 0.137681
H18   H     H_    0.797235 0.727852 0.323971 -0.072864
H19   H     H_    0.531548 0.249777 0.816655 0.121265
H20   H     H_    0.211530 0.103035 0.574582 0.076387
H21   H     H_    0.032321 0.846066 0.548942 0.062298
H22   H     H_    0.665199 0.662530 0.468660 0.062981
H23   H     H_    0.516522 0.316095 0.238635 0.061491
H24   H     H_    0.137022 0.339085 0.538032 0.073926
H25   H     H_    0.415995 0.615707 0.931555 0.053551
H26   H     H_    0.508879 0.631078 0.057082 0.080181
H27   H     H_    0.291371 0.454891 0.187836 0.077286
H28   H     H_    0.352166 0.389123 0.077065 0.056519
H29   H     H_    0.044694 0.420476 0.864320 0.070413
H30   H     H_    0.148561 0.467494 0.652348 0.073848
H31   H     H_    0.900739 0.869457 0.340380 0.038199
H32   H     H_    0.668831 0.384919 0.343577 -0.045747
H33   H     H_    0.766545 0.202532 0.246753 0.209312
H34   H     H_    0.015108 0.847830 0.740619 0.079182
H35   H     H_    0.617937 0.139067 0.143694 0.107670
H36   H     H_    0.468444 0.207691 0.148929 0.119435
H37   H     H_    0.484962 0.137147 0.215025 0.100540
H38   H     H_    0.142561 0.779421 0.639827 -0.017059
H39   H     H_    0.272113 0.780026 0.754419 0.164421
H40   H     H_    0.249371 0.669674 0.823465 0.084525
H41   H     H_    0.078020 0.626430 0.765616 0.123734
H42   H     H_    0.059851 0.712737 0.822931 0.074100
H43   H     H_    0.879788 0.818989 0.663266 0.065833
H44   H     H_    0.468321 0.678046 0.579031 0.056746
H45   H     H_    0.867726 0.763239 0.739886 0.126331
H46   H     H_    0.610893 0.815149 0.600418 0.066637
H47   H     H_    0.358831 0.848642 0.217193 0.225075
H48   H     H_    0.454754 0.885511 0.108125 0.107008
H49   H     H_    0.272287 0.818647 0.089265 0.098439
H50   H     H_    0.472270 0.785279 0.081560 0.119828
H51   H     H_    0.885027 0.156848 0.757985 0.108431
H52   H     H_    0.159868 0.201063 0.774496 0.165102
H53   H     H_    0.210460 0.070219 0.751203 0.091900
H54   H     H_    0.395330 0.120933 0.795037 0.095106
H55   H     H_    0.375402 0.099969 0.699553 0.129203
H56   H     H_    0.161499 0.334405 0.405628 0.037318
H57   H     H_    0.656471 0.112854 0.475175 0.210791
H58   H     H_    0.783224 0.056319 0.377681 0.096552
H59   H     H_    0.841036 0.152415 0.351169 0.115569
H60   H     H_    0.628645 0.114927 0.345834 0.106212
H61   H     H_    0.589092 0.899713 0.436458 0.068533
H62   H     H_    0.500749 0.548338 0.824577 0.072086
H63   H     H_    0.700385 0.813254 0.241921 0.195948
H64   H     H_    0.944498 0.865059 0.186306 0.088353
H65   H     H_    0.785910 0.816272 0.124303 0.105365
H66   H     H_    0.958834 0.766685 0.150193 0.124131
H67   H     H_    0.367074 0.311244 0.426974 0.073251
H68   H     H_    0.255949 0.374233 0.951224 0.061080
H69   H     H_    0.848439 0.631825 0.140165 0.208312
H70   H     H_    0.917694 0.548378 0.045660 0.105907
H71   H     H_    0.752902 0.477375 0.061006 0.117041
H72   H     H_    0.928471 0.496360 0.124706 0.120998
H73   H     H_    0.654372 0.542371 0.353366 0.083112
H74   H     H_    0.082307 0.847079 0.298945 0.125894
H75   H     H_    0.749605 0.418520 0.229235 0.133281
H76   H     H_    0.888298 0.318480 0.175751 0.079728
H77   H     H_    0.019107 0.318859 0.256971 0.143644
H78   H     H_    0.217000 0.718503 0.185276 0.105159
H79   H     H_    0.029307 0.400901 0.204316 0.100549
H80   H     H_    0.104583 0.214366 0.325078 0.114995
N1    N     N_2   0.672740 0.229354 0.223431 -0.429747
N2    N     N_2   0.196174 0.731360 0.734759 -0.398259
N3    N     N_2   0.408042 0.807622 0.185764 -0.417157
N4    N     N_2   0.242133 0.189709 0.737920 -0.445488
N5    N     N_2   0.733805 0.148553 0.448366 -0.395237
N6    N     N_2   0.787475 0.778268 0.226856 -0.435596
N7    N     N_2   0.768172 0.583775 0.123686 -0.431067
N8    N     N_2   0.823446 0.389457 0.261914 -0.410636
O1    O     O_2   0.143190 0.684560 0.534150 -0.459932
O2    O     O_2   0.744274 0.441423 0.749362 -0.480075
O3    O     O_3   0.824959 0.299770 0.740568 -0.600047
O4    O     O_3   0.882350 0.590230 0.535560 -0.451912
O5    O     O_3   0.431150 0.462160 0.416880 -0.488110
O6    O     O_2   0.634060 0.535220 0.669530 -0.439047
O7    O     O_3   0.480433 0.663329 0.687537 -0.627275
O8    O     O_2   0.523650 0.224619 0.545651 -0.493291
O9    O     O_3   0.467125 0.237553 0.678704 -0.589815
O10   O     O_3   0.372640 0.639320 0.408320 -0.484854
O11   O     O_2   0.276187 0.774515 0.453488 -0.488148
O12   O     O_3   0.314155 0.340857 0.324805 -0.666255
O13   O     O_3   0.996413 0.674377 0.647868 -0.610175
O14   O     O_3   0.353478 0.767167 0.322749 -0.607101
O15   O     O_2   0.176230 0.464730 0.330450 -0.430178
O16   O     O_3   0.952380 0.601530 0.373300 -0.461352
O17   O     O_2   0.051211 0.556152 0.249786 -0.491553
O18   O     O_3   0.991236 0.700736 0.263541 -0.603474
O19   O     O_2   0.667110 0.315390 0.465830 -0.466042
O20   O     O_3   0.927950 0.409760 0.464380 -0.475306
O21   O     O_3   0.437660 0.360670 0.591630 -0.465060
O22   O     O_3   0.839893 0.304654 0.353092 -0.656665
O23   O     O_3   0.379150 0.537830 0.583060 -0.473374
O24   O     O_3   0.857920 0.398470 0.626650 -0.483779
P1    P     P_3+3 0.970290 0.672580 0.555000 1.007942
P2    P     P_3+3 0.347000 0.441860 0.341200 0.973460
P3    P     P_3+3 0.925272 0.605579 0.281851 0.967996
P4    P     P_3+3 0.840010 0.327410 0.444950 1.011454
P5    P     P_3+3 0.877112 0.395220 0.718855 0.967679
P6    P     P_3+3 0.404632 0.740859 0.408549 0.944755
P7    P     P_3+3 0.457498 0.562232 0.670562 0.988061
P8    P     P_3+3 0.402117 0.259832 0.593345 0.952422

loop_
_geom_bond_atom_site_label_1
_geom_bond_atom_site_label_2
_ccdc_geom_bond_type
Ba2   O4    S    
C10   P8    S    
C43   H2    S    
C2    P1    S    
C42   O12   S    
C16   H74   S    
C40   O13   S    
C1    N3    S    
C28   H32   S    
C5    C6    A    
C47   H49   S    
O16   P3    S    
C25   C31   A    
O22   P4    S    
C12   H1    S    
C9    C17   A    
C50   N6    S    
O13   P1    S    
C40   H38   S    
C30   H28   S    
C26   C27   A    
C22   C24   A    
C32   C33   A    
C35   C38   A    
C22   N7    S    
H47   N3    S    
C36   C37   A    
C39   H12   S    
C50   H65   S    
C34   H8    S    
C23   H44   S    
C52   H79   S    
C48   H54   S    
C13   C14   S    
C52   H76   S    
C49   H60   S    
C54   C55   S    
C7    P6    S    
C25   H26   S    
Ba1   Ba2   S    
C20   H27   S    
C43   H3    S    
O6    P7    D    
H52   N4    S    
C45   H11   S    
O15   P2    D    
C50   H64   S    
O10   P6    S    
C44   H37   S    
C45   O3    S    
C6    C7    A    
C21   C31   S    
C47   N3    S    
C21   C22   A    
C28   C39   S    
C3    H21   S    
C17   H24   S    
Ba2   O20   S    
H39   N2    S    
C53   H14   S    
O9    P8    S    
C56   H22   S    
C52   N8    S    
C36   H62   S    
C54   N4    S    
Ba1   O15   S    
C19   C20   A    
C53   H51   S    
C26   H25   S    
O14   P6    S    
H63   N6    S    
C54   O9    S    
C46   H42   S    
O23   P7    S    
O1    P1    D    
C28   N8    S    
C47   H50   S    
O7    P7    S    
O24   P5    S    
Ba2   O6    S    
C4    C16   S    
H57   N5    S    
C42   H67   S    
O20   P4    S    
O2    P5    D    
C46   N2    S    
C40   N2    S    
C32   C37   A    
C55   H19   S    
O18   P3    S    
C3    C5    A    
C34   H7    S    
C14   C15   T    
O11   P6    D    
C24   P3    S    
C5    C15   S    
O19   P4    D    
C23   O7    S    
Ba1   P1    S    
O5    P2    S    
C12   O14   S    
O3    P5    S    
C23   H6    S    
C55   H16   S    
Ba1   O10   S    
C41   H43   S    
C35   C36   A    
C51   H70   S    
O4    P1    S    
C44   H36   S    
C39   H23   S    
C27   C37   S    
C51   N7    S    
Ba1   O4    S    
C10   C11   A    
Ba2   O19   S    
C1    C12   S    
H69   N7    S    
H33   N1    S    
Ba2   O24   S    
Ba1   O16   S    
C1    H5    S    
C11   C13   A    
Ba1   O1    S    
C51   H71   S    
C40   C41   S    
C18   H73   S    
C4    N6    S    
O17   P3    D    
C45   H10   S    
C1    H78   S    
C46   H40   S    
C42   C43   S    
C45   C53   S    
Ba2   O5    S    
C46   H41   S    
C11   H20   S    
C7    C56   A    
C9    P4    S    
C54   H15   S    
C23   C34   S    
C16   H31   S    
C29   C30   A    
C41   H34   S    
C4    O18   S    
C2    C3    A    
C4    H18   S    
C47   H48   S    
H75   N8    S    
C49   N5    S    
C19   P2    S    
C35   P7    S    
Ba1   P2    S    
C49   H58   S    
C34   H46   S    
C8    C13   A    
C48   H55   S    
C33   P5    S    
C30   C31   A    
C55   H17   S    
O8    P8    D    
C33   C38   A    
C16   H9    S    
C28   O22   S    
C27   C29   A    
Ba2   P4    S    
C50   H66   S    
O12   P2    S    
C44   H35   S    
C18   C24   A    
Ba1   O20   S    
C52   H77   S    
C10   C17   A    
Ba1   O23   S    
C48   H53   S    
C49   H59   S    
Ba1   O5    S    
C32   H29   S    
C41   H45   S    
C39   N1    S    
C8    C9    A    
Ba2   O23   S    
C42   H56   S    
O21   P8    S    
C18   C19   A    
C2    C56   A    
C25   C26   A    
C20   C21   A    
C44   N1    S    
C43   H80   S    
C51   H72   S    
C29   H68   S    
Ba2   O21   S    
C53   H13   S    
C38   H30   S    
C48   N4    S    
C6    H61   S    
C8    N5    S    
C12   H4    S    
