data_mof_unit_47276.cif
_audit_creation_date              2012-12-10T20:36:41-0500
_audit_creation_method            fapswitch 2.2
_symmetry_space_group_name_H-M    P1
_symmetry_Int_Tables_number       1
_space_group_crystal_system       triclinic
_cell_length_a                    10.518514
_cell_length_b                    10.715758
_cell_length_c                    9.87211
_cell_angle_alpha                 89.293102
_cell_angle_beta                  89.178339
_cell_angle_gamma                 89.47908
_cell_volume                      1112.48021119

loop_
_atom_site_label
_atom_site_type_symbol
_atom_type_description
_atom_site_fract_x
_atom_site_fract_y
_atom_site_fract_z
_atom_type_partial_charge
C1    C     C_R   0.503831 0.260642 0.500700 0.900803
C2    C     C_R   0.486455 0.936052 0.612411 0.019241
C3    C     C_3   0.440922 0.924311 0.756580 -0.007664
C4    C     C_R   0.257422 0.503015 0.500773 0.898018
C5    C     C_3   0.442118 0.068453 0.758333 -0.487296
C6    C     C_R   0.413602 0.430614 0.073369 0.228992
C7    C     C_R   0.593020 0.557899 0.069765 -0.109795
C8    C     C_R   0.592526 0.558658 0.925904 -0.135156
C9    C     C_R   0.413591 0.430739 0.930832 0.220529
C10   C     C_3   0.272834 0.445945 0.927137 -0.521796
C11   C     C_3   0.272644 0.445088 0.080679 -0.523542
C12   C     C_3   0.963533 0.502658 0.371811 0.461476
C13   C     C_R   0.508122 0.739243 0.498988 0.855139
C14   C     C_R   0.742440 0.499937 0.498901 0.876014
C15   C     C_3   0.037332 0.507069 0.629421 -0.169123
C16   C     C_3   0.958459 0.402182 0.565784 -0.242075
C17   C     C_3   0.877029 0.503017 0.496859 -0.085607
C18   C     C_3   0.954122 0.607685 0.559453 0.139495
C19   C     C_3   0.041030 0.607911 0.432299 0.099567
C20   C     C_3   0.890160 0.717795 0.631768 -0.383818
C21   C     C_3   0.986954 0.807255 0.687890 -0.904794
C22   C     C_3   0.097418 0.719366 0.354150 -0.387221
C23   C     C_3   0.046036 0.401148 0.438269 -0.263650
C24   C     C_3   0.995050 0.802833 0.291692 -0.888629
C25   C     C_3   0.638529 0.879822 0.262828 -0.390166
C26   C     C_3   0.550806 0.873740 0.141390 -0.843940
C27   C     C_3   0.307303 0.868649 0.773281 -0.350541
C28   C     C_3   0.270602 0.857121 0.923125 -0.909214
C29   C     C_3   0.122484 0.506481 0.501478 -0.129953
C30   C     C_R   0.487963 0.060307 0.615242 0.080214
C31   C     C_R   0.517602 0.129873 0.501245 -0.132676
C32   C     C_R   0.563751 0.068776 0.385376 -0.250315
C33   C     C_R   0.571343 0.938485 0.383316 0.161625
C34   C     C_R   0.522830 0.870564 0.497626 -0.167425
H1    H     H_    0.920321 0.318797 0.619846 0.160263
H2    H     H_    0.225861 0.361750 0.126482 0.201847
H3    H     H_    0.070009 0.509166 0.735504 0.154591
H4    H     H_    0.087581 0.317915 0.387728 0.149946
H5    H     H_    0.596217 0.122041 0.297578 0.176704
H6    H     H_    0.055673 0.754936 0.751472 0.262570
H7    H     H_    0.038350 0.856259 0.604530 0.261867
H8    H     H_    0.937646 0.878165 0.751226 0.253327
H9    H     H_    0.825837 0.768300 0.561298 0.190129
H10   H     H_    0.831651 0.681001 0.717400 0.211496
H11   H     H_    0.933357 0.748323 0.224444 0.278946
H12   H     H_    0.514094 0.879498 0.821829 0.168828
H13   H     H_    0.935718 0.847209 0.371569 0.257297
H14   H     H_    0.040940 0.877849 0.230324 0.249778
H15   H     H_    0.156759 0.774776 0.422908 0.198572
H16   H     H_    0.160309 0.684285 0.271801 0.204981
H17   H     H_    0.996943 0.498173 0.180561 0.325811
H18   H     H_    0.467139 0.814964 0.165993 0.278373
H19   H     H_    0.517488 0.968724 0.111673 0.252078
H20   H     H_    0.603195 0.832782 0.054046 0.228989
H21   H     H_    0.722686 0.936842 0.233864 0.194194
H22   H     H_    0.677947 0.786133 0.287594 0.216464
H23   H     H_    0.347068 0.114310 0.766383 0.200188
H24   H     H_    0.332582 0.786642 0.973380 0.261424
H25   H     H_    0.280068 0.948380 0.974041 0.271285
H26   H     H_    0.170681 0.826242 0.934685 0.249559
H27   H     H_    0.235993 0.927760 0.719964 0.209291
H28   H     H_    0.304923 0.774280 0.728413 0.228733
H29   H     H_    0.515469 0.106874 0.825783 0.187990
H30   H     H_    0.666782 0.606724 0.122175 0.177759
H31   H     H_    0.665288 0.608944 0.870173 0.140896
H32   H     H_    0.243568 0.537627 0.883137 0.215479
H33   H     H_    0.225819 0.363304 0.883739 0.201220
H34   H     H_    0.242181 0.535756 0.124039 0.207580
N1    N     N_R   0.499140 0.499140 0.142800 -0.114100
N2    N     N_R   0.499140 0.499180 0.857150 -0.108463
O1    O     O_R   0.500020 0.316790 0.614690 -0.613521
O2    O     O_R   0.500000 0.316760 0.385350 -0.622420
O3    O     O_R   0.313960 0.499990 0.614650 -0.624179
O4    O     O_R   0.313940 0.499950 0.385310 -0.632296
O5    O     O_R   0.500000 0.683240 0.614650 -0.633100
O6    O     O_R   0.499980 0.683210 0.385310 -0.618341
O7    O     O_R   0.686060 0.500050 0.614690 -0.639217
O8    O     O_R   0.686040 0.500010 0.385350 -0.580788
O9    O     O_3   0.919523 0.498903 0.238934 -0.772865
Zn1   Zn    Zn3+2 0.500010 0.500020 0.653130 0.927713
Zn2   Zn    Zn3+2 0.499990 0.499980 0.346870 0.946401

loop_
_geom_bond_atom_site_label_1
_geom_bond_atom_site_label_2
_ccdc_geom_bond_type
C15   C18   S    
C6    N1    A    
C25   H22   S    
C6    C9    A    
C7    C8    A    
C10   H33   S    
C12   C23   S    
C1    O1    A    
C24   H11   S    
C23   C29   S    
C11   H2    S    
C16   H1    S    
C30   C31   A    
C28   H25   S    
C15   C16   S    
C12   O9    S    
C1    C31   S    
C5    H29   S    
C18   C19   S    
C14   O7    A    
C15   H3    S    
C27   H27   S    
C13   O5    A    
C16   C17   S    
C12   C17   S    
C15   C29   S    
O5    Zn1   S    
C4    O4    A    
O2    Zn2   S    
C22   H16   S    
C2    C34   A    
C28   H26   S    
C8    H31   S    
C14   C17   S    
C26   H20   S    
O1    Zn1   S    
C20   H10   S    
C33   C34   A    
C10   H32   S    
C1    O2    A    
N2    Zn1   S    
C24   H14   S    
C19   C22   S    
C9    N2    A    
C6    C11   S    
C25   C26   S    
C27   H28   S    
C26   H18   S    
C31   C32   A    
C13   O6    A    
C17   C18   S    
C4    O3    A    
C22   H15   S    
C21   H7    S    
C16   C23   S    
C22   C24   S    
O4    Zn2   S    
C19   C29   S    
C26   H19   S    
C20   H9    S    
C11   H34   S    
C5    C30   S    
C9    C10   S    
O7    Zn1   S    
C24   H13   S    
C25   H21   S    
C3    C5    S    
O6    Zn2   S    
C7    N1    A    
C4    C29   S    
C28   H24   S    
C23   H4    S    
C3    H12   S    
C8    N2    A    
C5    H23   S    
C2    C30   A    
C32   C33   A    
C3    C27   S    
C2    C3    S    
C13   C34   S    
O8    Zn2   S    
C21   H6    S    
C12   C19   S    
O3    Zn1   S    
C18   C20   S    
C14   O8    A    
H17   O9    S    
C7    H30   S    
N1    Zn2   S    
C10   C11   S    
C21   H8    S    
C20   C21   S    
C27   C28   S    
C32   H5    S    
C25   C33   S    
