data_mof_unit_35925.cif
_audit_creation_date              2012-10-26T20:35:46-0400
_audit_creation_method            fapswitch 2.2
_symmetry_space_group_name_H-M    P1
_symmetry_Int_Tables_number       1
_space_group_crystal_system       triclinic
_cell_length_a                    8.773801
_cell_length_b                    15.84518
_cell_length_c                    17.179963
_cell_angle_alpha                 96.019489
_cell_angle_beta                  92.500502
_cell_angle_gamma                 84.99535
_cell_volume                      2364.74289203

loop_
_atom_site_label
_atom_site_type_symbol
_atom_type_description
_atom_site_fract_x
_atom_site_fract_y
_atom_site_fract_z
_atom_type_partial_charge
C1    C     C_R   0.507077 0.489416 0.348603 0.568696
C2    C     C_R   0.347193 0.162850 0.452897 0.024680
C3    C     C_R   0.618044 0.750684 0.561857 0.382961
C4    C     C_R   0.365243 0.250837 0.448481 0.377630
C5    C     C_R   0.206056 0.520951 0.498400 0.562385
C6    C     C_R   0.793902 0.478689 0.499683 0.565358
C7    C     C_2   0.042288 0.528894 0.486030 0.085394
C8    C     C_2   0.957875 0.469204 0.509398 0.101328
C9    C     C_R   0.518622 0.484243 0.262201 -0.012440
C10   C     C_R   0.504207 0.513333 0.738540 -0.012451
C11   C     C_R   0.506816 0.559714 0.223879 0.211286
C12   C     C_R   0.499854 0.510058 0.651712 0.565173
C13   C     C_R   0.488197 0.438120 0.774708 0.205982
C14   C     C_R   0.486837 0.554941 0.142293 0.111311
C15   C     C_R   0.516912 0.436926 0.855472 0.113145
C16   C     C_R   0.499935 0.475245 0.097660 0.200626
C17   C     C_R   0.542663 0.513167 0.902505 0.203019
C18   C     C_R   0.530334 0.400478 0.134641 0.068242
C19   C     C_R   0.550251 0.588839 0.867660 0.067438
C20   C     C_R   0.541570 0.404672 0.216723 0.048959
C21   C     C_R   0.531631 0.589344 0.786200 0.055439
C22   C     C_3   0.294570 0.362661 0.721084 -0.105474
C23   C     C_R   0.424498 0.756739 0.460715 0.189156
C24   C     C_3   0.661831 0.658611 0.278411 -0.107535
C25   C     C_3   0.592962 0.111343 0.664394 -0.097142
C26   C     C_3   0.424948 0.897525 0.341299 -0.109488
C27   C     C_3   0.858122 0.708734 0.613685 -0.107046
C28   C     C_3   0.251984 0.279015 0.328954 -0.107235
C29   C     C_R   0.581052 0.243351 0.536890 0.202365
C30   C     C_R   0.433814 0.845398 0.459721 0.216312
C31   C     C_R   0.566804 0.155898 0.542768 0.221139
C32   C     C_R   0.530470 0.888953 0.515366 0.183124
C33   C     C_R   0.452206 0.113700 0.497219 0.175393
C34   C     C_R   0.620461 0.841236 0.567513 0.028050
Cu1   Cu    Cu3+1 0.492520 0.415770 0.496210 1.051595
Cu2   Cu    Cu3+1 0.507480 0.584230 0.503790 1.043883
H1    H     H_    0.009326 0.652529 0.464055 0.224495
H2    H     H_    0.715821 0.666201 0.222485 0.099313
H3    H     H_    0.420581 0.331350 0.880299 0.238180
H4    H     H_    0.609130 0.315744 0.860599 0.241184
H5    H     H_    0.348745 0.662060 0.128907 0.244587
H6    H     H_    0.536598 0.671021 0.115606 0.235009
H7    H     H_    0.452219 0.310012 0.054472 0.248945
H8    H     H_    0.642267 0.321035 0.052037 0.260504
H9    H     H_    0.679904 0.657529 0.946964 0.244928
H10   H     H_    0.488303 0.680456 0.954247 0.262315
H11   H     H_    0.512640 0.282149 0.231298 0.239419
H12   H     H_    0.022199 0.582249 0.383857 0.218204
H13   H     H_    0.695845 0.306723 0.237207 0.242515
H14   H     H_    0.646694 0.690525 0.768281 0.266257
H15   H     H_    0.454961 0.712034 0.775704 0.241175
H16   H     H_    0.804413 0.252498 0.567262 0.222397
H17   H     H_    0.683474 0.281663 0.641179 0.253701
H18   H     H_    0.324491 0.726202 0.354153 0.267481
H19   H     H_    0.203910 0.743183 0.428590 0.215011
H20   H     H_    0.674590 0.079873 0.705611 0.152978
H21   H     H_    0.491103 0.073774 0.656324 0.150496
H22   H     H_    0.558769 0.176504 0.692102 0.115907
H23   H     H_    0.000687 0.342764 0.518530 0.259205
H24   H     H_    0.529650 0.931375 0.357041 0.133193
H25   H     H_    0.352249 0.936035 0.301427 0.145644
H26   H     H_    0.456224 0.834599 0.308558 0.111232
H27   H     H_    0.686141 0.864135 0.682290 0.240247
H28   H     H_    0.822285 0.877454 0.617377 0.233930
H29   H     H_    0.118176 0.161492 0.430098 0.249772
H30   H     H_    0.229595 0.117052 0.355199 0.219592
H31   H     H_    0.897104 0.745692 0.668259 0.106506
H32   H     H_    0.895420 0.737598 0.562071 0.092342
H33   H     H_    0.916946 0.643895 0.613337 0.150455
H34   H     H_    0.974462 0.403275 0.604887 0.204774
H35   H     H_    0.139946 0.254536 0.310441 0.109643
H36   H     H_    0.345038 0.230764 0.307835 0.086044
H37   H     H_    0.260804 0.337291 0.299413 0.158369
H38   H     H_    0.268200 0.303283 0.684724 0.143514
H39   H     H_    0.244373 0.417178 0.689837 0.138368
H40   H     H_    0.238942 0.363386 0.778117 0.098703
H41   H     H_    0.731229 0.609577 0.309691 0.146202
H42   H     H_    0.664087 0.719858 0.315972 0.127222
N1    N     N_2   0.481766 0.468771 0.015243 -0.188079
N2    N     N_3   0.448124 0.630896 0.104501 -0.599750
N3    N     N_3   0.551443 0.319373 0.089131 -0.639467
N4    N     N_3   0.576788 0.666694 0.914910 -0.643374
N5    N     N_3   0.584774 0.328593 0.253548 -0.592888
N6    N     N_3   0.540349 0.667624 0.752298 -0.541013
N7    N     N_3   0.699066 0.285105 0.581743 -0.534613
N8    N     N_3   0.311395 0.714980 0.412112 -0.521759
N9    N     N_3   0.705878 0.886691 0.628883 -0.603350
N10   N     N_3   0.218219 0.123222 0.415793 -0.580019
N11   N     N_2   0.562465 0.516534 0.985048 -0.200183
N12   N     N_R   0.518730 0.710760 0.509500 -0.225112
N13   N     N_R   0.481270 0.289240 0.490500 -0.221312
N14   N     N_2   0.547552 0.978900 0.518794 -0.145733
N15   N     N_2   0.433502 0.023969 0.495814 -0.137617
N16   N     N_3   0.975643 0.593818 0.439340 -0.644205
N17   N     N_3   0.025589 0.399948 0.550670 -0.619202
N18   N     N_3   0.525934 0.357506 0.889355 -0.599207
O1    O     O_R   0.493000 0.421040 0.382520 -0.462999
O2    O     O_3   0.508053 0.639155 0.265514 -0.574160
O3    O     O_3   0.666102 0.113293 0.593045 -0.543963
O4    O     O_3   0.340476 0.888974 0.407666 -0.540350
O5    O     O_3   0.698711 0.702524 0.615272 -0.517931
O6    O     O_3   0.254937 0.301354 0.410740 -0.527348
O7    O     O_R   0.507000 0.578960 0.617480 -0.433203
O8    O     O_R   0.505640 0.563310 0.388930 -0.450460
O9    O     O_R   0.494360 0.436690 0.611070 -0.455854
O10   O     O_R   0.269980 0.445280 0.497530 -0.429856
O11   O     O_R   0.730020 0.554720 0.502470 -0.464550
O12   O     O_R   0.282610 0.587550 0.503940 -0.507197
O13   O     O_R   0.717390 0.412450 0.496060 -0.492707
O14   O     O_3   0.455071 0.362989 0.731171 -0.573756

loop_
_geom_bond_atom_site_label_1
_geom_bond_atom_site_label_2
_ccdc_geom_bond_type
C30   C32   A    
H6    N2    S    
Cu2   O12   S    
H9    N4    S    
C25   H20   S    
C22   H40   S    
H5    N2    S    
H14   N6    S    
C7    C8    D    
H12   N16   S    
Cu2   O7    S    
C24   O2    S    
H16   N7    S    
C19   C21   A    
C26   H25   S    
H30   N10   S    
C12   O9    A    
C11   C14   A    
C30   O4    S    
C18   N3    S    
C27   H32   S    
H10   N4    S    
C25   O3    S    
Cu1   Cu2   S    
C22   O14   S    
C23   N8    S    
C4    O6    S    
C24   H2    S    
C6    O11   A    
C31   C33   A    
C2    N10   S    
C14   N2    S    
C19   N4    S    
H28   N9    S    
C29   N7    S    
C27   H33   S    
C4    N13   A    
C3    O5    S    
Cu2   O11   S    
C28   H36   S    
C8    N17   S    
H23   N17   S    
C22   H39   S    
H4    N18   S    
C28   H37   S    
C5    O10   A    
C10   C21   A    
Cu1   O13   S    
C25   H21   S    
C23   C30   A    
C17   N11   S    
C12   O7    A    
H8    N3    S    
C1    O1    A    
C15   N18   S    
C5    C7    S    
C6    C8    S    
C3    C34   A    
C27   O5    S    
C32   C34   A    
C2    C4    A    
C13   O14   S    
Cu1   O9    S    
C9    C20   A    
C21   N6    S    
C23   N12   A    
C1    C9    S    
C9    C11   A    
C1    O8    A    
C10   C12   S    
C2    C33   A    
C24   H42   S    
C31   O3    S    
C11   O2    S    
H7    N3    S    
C6    O13   A    
C14   C16   A    
C28   H35   S    
C25   H22   S    
C22   H38   S    
C29   N13   A    
H29   N10   S    
H18   N8    S    
Cu2   N12   S    
C15   C17   A    
C7    N16   S    
H27   N9    S    
C10   C13   A    
C33   N15   S    
Cu2   O8    S    
C16   N1    S    
H13   N5    S    
H19   N8    S    
C13   C15   A    
H34   N17   S    
C26   H26   S    
C29   C31   A    
Cu1   O10   S    
C3    N12   A    
C32   N14   S    
N14   N15   D    
C17   C19   A    
H1    N16   S    
C18   C20   A    
C34   N9    S    
H3    N18   S    
N1    N11   D    
C27   H31   S    
H11   N5    S    
C28   O6    S    
C24   H41   S    
C16   C18   A    
C20   N5    S    
H17   N7    S    
Cu1   O1    S    
C26   H24   S    
H15   N6    S    
C26   O4    S    
C5    O12   A    
Cu1   N13   S    
