data_mof_unit_41034.cif
_audit_creation_date              2012-12-10T17:12:37-0500
_audit_creation_method            fapswitch 2.2
_symmetry_space_group_name_H-M    P1
_symmetry_Int_Tables_number       1
_space_group_crystal_system       triclinic
_cell_length_a                    23.410811
_cell_length_b                    10.686657
_cell_length_c                    10.005239
_cell_angle_alpha                 90.777055
_cell_angle_beta                  91.809113
_cell_angle_gamma                 90.735536
_cell_volume                      2501.44563185

loop_
_atom_site_label
_atom_site_type_symbol
_atom_type_description
_atom_site_fract_x
_atom_site_fract_y
_atom_site_fract_z
_atom_type_partial_charge
C1    C     C_R   0.496024 0.262645 0.498535 0.884620
C2    C     C_R   0.972236 0.240484 0.545848 0.541333
C3    C     C_R   0.031952 0.249322 0.552420 -0.257051
C4    C     C_R   0.060184 0.360021 0.517690 -0.116089
C5    C     C_R   0.028389 0.463805 0.475227 -0.016970
C6    C     C_R   0.056569 0.575410 0.439873 -0.005251
C7    C     C_R   0.024777 0.678376 0.396593 -0.168284
C8    C     C_R   0.965458 0.671491 0.390298 -0.175067
C9    C     C_R   0.119815 0.369777 0.524040 0.599952
C10   C     C_R   0.116139 0.581117 0.449064 0.559155
C11   C     C_R   0.235290 0.487440 0.370128 0.423577
C12   C     C_R   0.389105 0.500694 0.497885 0.935127
C13   C     C_R   0.294775 0.502042 0.370503 0.391330
C14   C     C_R   0.326379 0.499711 0.493317 -0.288784
C15   C     C_R   0.297434 0.494989 0.613961 -0.402093
C16   C     C_R   0.237991 0.492010 0.613720 0.482521
C17   C     C_R   0.207095 0.485504 0.491594 0.031727
C18   C     C_R   0.754164 0.382663 0.405910 0.457771
C19   C     C_R   0.695135 0.388686 0.418588 0.297985
C20   C     C_R   0.672224 0.480377 0.503678 -0.425174
C21   C     C_R   0.708164 0.555751 0.587297 0.372721
C22   C     C_R   0.767589 0.538150 0.586213 0.377234
C23   C     C_R   0.502867 0.737684 0.500977 0.842325
C24   C     C_R   0.790235 0.454932 0.491373 -0.070437
C25   C     C_2   0.476486 0.927776 0.404550 -0.418208
C26   C     C_2   0.508277 0.871393 0.499036 0.342939
C27   C     C_2   0.483395 0.061241 0.384620 0.525764
C28   C     C_2   0.483086 0.131984 0.496182 -0.359328
C29   C     C_2   0.539916 0.553145 0.929029 -0.237687
C30   C     C_2   0.533313 0.574089 0.079870 0.677314
C31   C     C_R   0.610569 0.498054 0.501574 1.026983
C32   C     C_R   0.877512 0.556101 0.429441 0.578505
C33   C     C_R   0.879874 0.346594 0.510608 0.581128
C34   C     C_R   0.939868 0.346176 0.508316 -0.170645
C35   C     C_R   0.968341 0.456932 0.470060 -0.085709
C36   C     C_R   0.936937 0.561963 0.428428 -0.007502
H1    H     H_    0.445959 0.876304 0.339736 0.129455
H2    H     H_    0.474398 0.090516 0.592429 0.148910
H3    H     H_    0.578031 0.585792 0.881808 0.147655
H4    H     H_    0.461182 0.488304 0.892334 0.192640
H5    H     H_    0.055986 0.169055 0.586043 0.204550
H6    H     H_    0.045556 0.764744 0.368211 0.183278
H7    H     H_    0.942060 0.752937 0.357608 0.175965
H8    H     H_    0.320686 0.494374 0.709300 0.211061
N1    N     N_R   0.850573 0.451522 0.474712 -0.314067
N2    N     N_R   0.146238 0.479032 0.489923 -0.312605
N3    N     N_2   0.500610 0.501330 0.852150 -0.182289
N4    N     N_2   0.500630 0.501360 0.147810 0.034726
O1    O     O_R   0.499990 0.319060 0.613040 -0.614899
O2    O     O_2   0.850833 0.245244 0.552261 -0.493081
O3    O     O_2   0.151289 0.270872 0.562598 -0.552921
O4    O     O_2   0.143984 0.687650 0.417715 -0.573052
O5    O     O_R   0.500010 0.319100 0.386900 -0.555876
O6    O     O_R   0.416150 0.499940 0.613100 -0.633240
O7    O     O_R   0.416160 0.499980 0.386960 -0.604374
O8    O     O_R   0.499990 0.680900 0.613100 -0.642647
O9    O     O_R   0.500010 0.680940 0.386960 -0.596906
O10   O     O_R   0.583840 0.500020 0.613040 -0.617396
O11   O     O_R   0.583850 0.500060 0.386900 -0.550219
O12   O     O_2   0.846599 0.654740 0.387465 -0.548669
Zn1   Zn    Zn3+2 0.499990 0.499970 0.650990 0.936623
Zn2   Zn    Zn3+2 0.500010 0.500030 0.349010 1.050292
O13   O     O_3   0.945955 0.131248 0.586104 -0.560022
C37   C     C_3   0.948415 0.041469 0.481862 -0.209197
H9    H     H_    0.928118 0.076208 0.387483 0.168357
H10   H     H_    0.924207 0.956747 0.511063 0.212168
H11   H     H_    0.993160 0.012876 0.464867 0.127565
O14   O     O_3   0.660120 0.313091 0.336692 -0.580636
C38   C     C_3   0.639896 0.210029 0.409892 0.126797
H12   H     H_    0.598414 0.179591 0.363221 0.197337
H13   H     H_    0.631576 0.233048 0.516595 0.110977
C39   C     C_3   0.680536 0.099999 0.401452 -0.744761
H14   H     H_    0.721272 0.122244 0.456975 0.278474
H15   H     H_    0.660751 0.016241 0.446592 0.243836
H16   H     H_    0.689439 0.078368 0.295293 0.261478
O15   O     O_3   0.685432 0.659387 0.649978 -0.564351
C40   C     C_3   0.690114 0.647924 0.789914 -0.258965
H17   H     H_    0.681451 0.550879 0.824237 0.128012
H18   H     H_    0.658259 0.710154 0.834071 0.143855
H19   H     H_    0.732154 0.683151 0.828736 0.208860
O16   O     O_3   0.803644 0.615390 0.663644 -0.545754
C41   C     C_3   0.827226 0.546082 0.771035 0.066854
H20   H     H_    0.856194 0.472461 0.735139 0.159337
H21   H     H_    0.793209 0.501040 0.830048 0.112330
C42   C     C_3   0.862237 0.633628 0.863581 -0.779821
H22   H     H_    0.834757 0.708345 0.903625 0.254160
H23   H     H_    0.880796 0.580195 0.948541 0.206493
H24   H     H_    0.897511 0.677255 0.808054 0.266535
O17   O     O_3   0.553782 0.936319 0.563509 -0.629805
C43   C     C_3   0.564797 0.893609 0.694239 -0.300822
H25   H     H_    0.586987 0.802585 0.691825 0.218731
H26   H     H_    0.525070 0.887823 0.752306 0.155947
H27   H     H_    0.594016 0.961740 0.746932 0.186067
O18   O     O_3   0.489765 0.113244 0.258508 -0.597433
C44   C     C_3   0.518252 0.031044 0.171634 0.102801
H28   H     H_    0.488866 0.954171 0.135959 0.152812
H29   H     H_    0.556925 0.990801 0.221813 0.159366
C45   C     C_3   0.537859 0.102565 0.050627 -0.754759
H30   H     H_    0.566306 0.181937 0.083299 0.289853
H31   H     H_    0.561816 0.039249 0.984388 0.175548
H32   H     H_    0.500378 0.138903 0.993369 0.263288
O19   O     O_3   0.559121 0.673906 0.151404 -0.599915
C46   C     C_3   0.602750 0.734572 0.082749 -0.416466
H33   H     H_    0.585263 0.782062 0.992423 0.146307
H34   H     H_    0.637293 0.668178 0.059124 0.168791
H35   H     H_    0.622102 0.808340 0.149505 0.215684
O20   O     O_3   0.488819 0.388616 0.090544 -0.582615
C47   C     C_3   0.430918 0.361105 0.111810 -0.076320
H36   H     H_    0.403159 0.442065 0.088108 0.136493
H37   H     H_    0.424380 0.329374 0.214897 0.226873
H38   H     H_    0.417115 0.283174 0.043434 0.131858
O21   O     O_3   0.204043 0.483100 0.250574 -0.589498
C48   C     C_3   0.201399 0.357949 0.204191 -0.273738
H39   H     H_    0.180781 0.295659 0.277345 0.170188
H40   H     H_    0.244587 0.323037 0.180799 0.186940
H41   H     H_    0.174867 0.353566 0.110375 0.198602
O22   O     O_3   0.321624 0.510950 0.249902 -0.604966
C49   C     C_3   0.322074 0.637558 0.211807 -0.258107
H42   H     H_    0.344697 0.645444 0.116471 0.160230
H43   H     H_    0.345532 0.697700 0.287556 0.146057
H44   H     H_    0.277952 0.672564 0.194059 0.195986
O23   O     O_3   0.210095 0.487536 0.733189 -0.574185
C50   C     C_3   0.203841 0.611132 0.781532 0.058833
H45   H     H_    0.175178 0.664755 0.712955 0.167021
H46   H     H_    0.245956 0.660681 0.793032 0.137736
C51   C     C_3   0.177315 0.607513 0.918178 -0.742737
H47   H     H_    0.206204 0.558402 0.989541 0.286042
H48   H     H_    0.170857 0.704328 0.955908 0.210848
H49   H     H_    0.135380 0.557663 0.911215 0.258686
O24   O     O_3   0.777003 0.302352 0.312777 -0.555295
C52   C     C_3   0.779120 0.364462 0.189520 -0.252769
H50   H     H_    0.806723 0.449979 0.197502 0.158482
H51   H     H_    0.735598 0.388659 0.150925 0.181704
H52   H     H_    0.798101 0.300694 0.115163 0.183094

loop_
_geom_bond_atom_site_label_1
_geom_bond_atom_site_label_2
_ccdc_geom_bond_type
H4    N3    S    
C4    C9    A    
C51   H47   S    
C33   N1    A    
C32   N1    A    
C44   H28   S    
C9    O3    S    
C8    H7    S    
C52   H52   S    
C10   O4    S    
O16   C41   S    
C44   C45   S    
C23   O8    A    
C40   H17   S    
C26   O17   S    
C21   O15   S    
C29   N3    D    
C18   C24   A    
C24   N1    S    
C32   C36   A    
C31   O10   A    
C30   N4    D    
C15   H8    S    
C18   C19   A    
C38   H12   S    
C5    C6    A    
C23   C26   S    
N4    O20   S    
C15   C16   A    
O7    Zn2   S    
C47   H36   S    
C34   C35   A    
C8    C36   A    
C7    H6    S    
C31   O11   A    
C38   H13   S    
C1    O5    A    
C49   H42   S    
C16   O23   S    
C25   H1    S    
N4    Zn2   S    
C11   C17   A    
C19   C20   A    
C16   C17   A    
C10   N2    A    
C1    C28   S    
O20   C47   S    
C48   H41   S    
C2    C34   A    
O10   Zn1   S    
C40   H18   S    
C9    N2    A    
C21   C22   A    
C29   H3    S    
O18   C44   S    
C39   H16   S    
O21   C48   S    
C42   H23   S    
O1    Zn1   S    
C22   O16   S    
C7    C8    A    
C17   N2    S    
C39   H15   S    
O14   C38   S    
C50   C51   S    
C51   H49   S    
O9    Zn2   S    
C33   O2    S    
C42   H22   S    
C35   C36   A    
C37   H10   S    
C38   C39   S    
C37   H11   S    
C6    C10   A    
C29   C30   S    
O5    Zn2   S    
C43   H26   S    
C28   H2    S    
C30   O19   S    
C33   C34   A    
C19   O14   S    
C46   H34   S    
O15   C40   S    
C12   C14   S    
C45   H30   S    
C50   H45   S    
C22   C24   A    
C18   O24   S    
C32   O12   S    
C52   H50   S    
C45   H32   S    
C46   H33   S    
C2    O13   S    
C43   H27   S    
C48   H39   S    
C42   H24   S    
C23   O9    A    
C3    H5    S    
O11   Zn2   S    
C51   H48   S    
C11   O21   S    
C14   C15   A    
C39   H14   S    
C52   H51   S    
N3    Zn1   S    
C13   O22   S    
C44   H29   S    
C6    C7    A    
O6    Zn1   S    
C25   C27   S    
C41   C42   S    
C41   H21   S    
C47   H38   S    
C37   H9    S    
O24   C52   S    
C25   C26   D    
O22   C49   S    
C11   C13   A    
C43   H25   S    
C40   H19   S    
C5    C35   A    
C47   H37   S    
C2    C3    A    
C46   H35   S    
O19   C46   S    
C45   H31   S    
C49   H43   S    
C12   O7    A    
C50   H46   S    
O13   C37   S    
C4    C5    A    
C20   C21   A    
C41   H20   S    
C27   C28   D    
O23   C50   S    
O8    Zn1   S    
C27   O18   S    
O17   C43   S    
C13   C14   A    
C1    O1    A    
C49   H44   S    
C12   O6    A    
C3    C4    A    
C48   H40   S    
C20   C31   S    
