data_mof_unit_24711.cif
_audit_creation_date              2012-12-10T18:05:58-0500
_audit_creation_method            fapswitch 2.2
_symmetry_space_group_name_H-M    P1
_symmetry_Int_Tables_number       1
_space_group_crystal_system       triclinic
_cell_length_a                    12.57879
_cell_length_b                    13.149803
_cell_length_c                    14.965931
_cell_angle_alpha                 89.881283
_cell_angle_beta                  103.333155
_cell_angle_gamma                 82.22483
_cell_volume                      2385.20195185

loop_
_atom_site_label
_atom_site_type_symbol
_atom_type_description
_atom_site_fract_x
_atom_site_fract_y
_atom_site_fract_z
_atom_type_partial_charge
C1    C     C_R   0.438405 0.691565 0.491350 0.879919
C2    C     C_R   0.413913 0.547582 0.796138 -0.259389
C3    C     C_R   0.505112 0.496264 0.769432 -0.098282
C4    C     C_R   0.501942 0.498326 0.673065 0.875724
C5    C     C_R   0.595161 0.442519 0.833479 -0.060820
C6    C     C_R   0.705508 0.064900 0.633024 0.158098
C7    C     C_R   0.598291 0.199962 0.527952 -0.096966
C8    C     C_R   0.301780 0.836732 0.415615 -0.192085
C9    C     C_R   0.275931 0.940481 0.390036 0.050367
C10   C     C_R   0.349752 0.008369 0.426526 -0.219682
C11   C     C_R   0.448391 0.973872 0.493402 0.095692
C12   C     C_R   0.584654 0.443063 0.111843 0.130307
C13   C     C_R   0.464826 0.872100 0.527768 0.078051
C14   C     C_R   0.530985 0.036665 0.527807 0.062248
C15   C     C_R   0.620290 0.002366 0.604552 0.049521
C16   C     C_R   0.561367 0.308725 0.510180 0.871154
C17   C     C_R   0.617612 0.909457 0.650664 -0.038595
C18   C     C_R   0.543613 0.843786 0.609933 -0.226968
C19   C     C_R   0.526169 0.133497 0.487980 -0.222468
C20   C     C_R   0.691384 0.164522 0.596326 -0.206638
C21   C     C_R   0.398411 0.801586 0.481686 -0.126336
C22   C     C_R   0.069690 0.430754 0.325397 -0.055190
C23   C     C_R   0.316303 0.603315 0.005616 -0.138992
C24   C     C_R   0.819174 0.569390 0.639127 0.079074
C25   C     C_R   0.930173 0.537614 0.680177 0.098337
C26   C     C_R   0.000047 0.499629 0.626112 -0.210443
C27   C     C_R   0.963487 0.505531 0.530211 -0.034872
C28   C     C_R   0.497706 0.502092 0.326832 0.927152
C29   C     C_R   0.849345 0.536333 0.490816 0.107837
C30   C     C_R   0.037790 0.482680 0.473254 -0.025495
C31   C     C_R   0.995933 0.476651 0.377311 0.012911
C32   C     C_R   0.887075 0.526698 0.338068 0.067926
C33   C     C_R   0.817383 0.563132 0.396624 0.144634
C34   C     C_R   0.319563 0.601010 0.913765 -0.184146
C35   C     C_R   0.153476 0.473121 0.507804 -0.022333
C36   C     C_R   0.182968 0.415880 0.365223 -0.014000
C37   C     C_R   0.582864 0.446403 0.203600 -0.259218
C38   C     C_R   0.494034 0.502175 0.230537 -0.102977
C39   C     C_R   0.403918 0.555880 0.166513 0.096152
C40   C     C_R   0.404342 0.552215 0.073001 0.062308
C41   C     C_R   0.495997 0.496489 0.046090 0.041458
C42   C     C_1   0.676545 0.885960 0.744783 0.241933
C43   C     C_1   0.175945 0.976639 0.322659 0.198882
C44   C     C_1   0.033730 0.391120 0.235213 0.215569
C45   C     C_R   0.410704 0.547991 0.887580 0.117967
C46   C     C_1   0.753345 0.619097 0.697144 0.295124
C47   C     C_1   0.687627 0.386852 0.803076 0.194589
C48   C     C_R   0.499656 0.495013 0.953385 0.064245
C49   C     C_R   0.592286 0.441139 0.926616 0.068635
C50   C     C_R   0.678950 0.387273 0.993662 -0.163789
C51   C     C_R   0.674562 0.387732 0.085347 -0.160248
H1    H     H_    0.650907 0.405338 0.254681 0.159028
H2    H     H_    0.250815 0.641340 0.863093 0.174368
H3    H     H_    0.345598 0.588486 0.745201 0.154773
H4    H     H_    0.750740 0.344769 0.976017 0.176058
H5    H     H_    0.742555 0.346153 0.135882 0.164780
H6    H     H_    0.750985 0.215434 0.623634 0.192095
H7    H     H_    0.462931 0.162394 0.428425 0.148138
H8    H     H_    0.248376 0.783136 0.382072 0.189889
H9    H     H_    0.325934 0.087708 0.403566 0.134259
H10   H     H_    0.542366 0.772363 0.645382 0.158667
H11   H     H_    0.240731 0.387947 0.324317 0.148655
H12   H     H_    0.189847 0.497192 0.575500 0.133366
H13   H     H_    0.083556 0.469388 0.660659 0.164880
H14   H     H_    0.244015 0.645445 0.022295 0.200475
I1    I     I_    0.863302 0.018567 0.722459 -0.307594
I2    I     I_    0.838326 0.578040 0.196393 -0.264791
I3    I     I_    0.273296 0.648614 0.212177 -0.335475
I4    I     I_    0.997371 0.542460 0.824146 -0.326902
I5    I     I_    0.699825 0.699258 0.357575 -0.229670
N1    N     N_R   0.222190 0.444670 0.452360 -0.111638
N2    N     N_R   0.776970 0.554790 0.547140 -0.141699
N3    N     N_1   0.722541 0.867223 0.820632 -0.122808
N4    N     N_1   0.095627 0.005699 0.268544 -0.159071
N5    N     N_1   0.005754 0.358496 0.163101 -0.158585
N6    N     N_1   0.703322 0.657227 0.747020 -0.196769
N7    N     N_1   0.761406 0.342658 0.778921 -0.171132
O1    O     O_R   0.366740 0.627160 0.477250 -0.602852
O2    O     O_R   0.544830 0.662520 0.507680 -0.590899
O3    O     O_R   0.410940 0.482340 0.616930 -0.624120
O4    O     O_R   0.589030 0.517700 0.647360 -0.628636
O5    O     O_R   0.455170 0.337480 0.492320 -0.613803
O6    O     O_R   0.633260 0.372840 0.522750 -0.614638
O7    O     O_R   0.410970 0.482300 0.352640 -0.614320
O8    O     O_R   0.589060 0.517660 0.383070 -0.599597
Zn1   Zn    Zn3+2 0.381090 0.476390 0.479680 0.965952
Zn2   Zn    Zn3+2 0.618910 0.523610 0.520320 0.983730

loop_
_geom_bond_atom_site_label_1
_geom_bond_atom_site_label_2
_ccdc_geom_bond_type
O6    Zn2   S    
C1    C21   S    
C28   O7    A    
C39   I3    S    
C12   C51   A    
C46   N6    T    
C5    C47   S    
C26   C27   A    
C37   C38   A    
C30   C35   A    
O7    Zn1   S    
C4    O3    A    
C8    H8    S    
C30   C31   A    
C11   C14   A    
C27   C29   A    
C23   C40   A    
C29   C33   A    
C51   H5    S    
C12   C37   A    
C26   H13   S    
C17   C42   S    
C40   C41   A    
O3    Zn1   S    
C6    C15   A    
C22   C44   S    
C4    O4    A    
C8    C9    A    
C9    C10   A    
C36   N1    A    
C29   N2    A    
O1    Zn1   S    
C43   N4    T    
C35   N1    A    
C2    C45   A    
C27   C30   A    
C1    O1    A    
C5    C49   A    
C36   H11   S    
O2    Zn2   S    
C50   C51   A    
O8    Zn2   S    
C19   H7    S    
C9    C43   S    
C22   C31   A    
C24   C25   A    
C2    H3    S    
C39   C40   A    
C37   H1    S    
C25   C26   A    
O5    Zn1   S    
C16   O6    A    
C44   N5    T    
C10   H9    S    
C12   C41   A    
N1    Zn1   S    
C31   C32   A    
C28   C38   S    
C23   C34   A    
C16   O5    A    
C17   C18   A    
C13   C21   A    
C34   C45   A    
O4    Zn2   S    
C33   I5    S    
C32   I2    S    
C13   C18   A    
C48   C49   A    
C49   C50   A    
C7    C19   A    
C1    O2    A    
C25   I4    S    
C47   N7    T    
C3    C4    S    
N2    Zn2   S    
C22   C36   A    
C24   N2    A    
C45   C48   A    
C15   C17   A    
C7    C16   S    
C42   N3    T    
C14   C19   A    
C3    C5    A    
C8    C21   A    
C18   H10   S    
C6    C20   A    
C50   H4    S    
C24   C46   S    
C32   C33   A    
C23   H14   S    
C2    C3    A    
C11   C13   A    
C38   C39   A    
C41   C48   A    
C10   C11   A    
C6    I1    S    
C34   H2    S    
C7    C20   A    
C28   O8    A    
C14   C15   A    
C35   H12   S    
C20   H6    S    
