data_mof_unit_23690.cif
_audit_creation_date              2012-12-10T16:59:19-0500
_audit_creation_method            fapswitch 2.2
_symmetry_space_group_name_H-M    P1
_symmetry_Int_Tables_number       1
_space_group_crystal_system       triclinic
_cell_length_a                    7.725122
_cell_length_b                    8.553967
_cell_length_c                    27.616136
_cell_angle_alpha                 90.814016
_cell_angle_beta                  86.676246
_cell_angle_gamma                 93.662836
_cell_volume                      1817.99415983

loop_
_atom_site_label
_atom_site_type_symbol
_atom_type_description
_atom_site_fract_x
_atom_site_fract_y
_atom_site_fract_z
_atom_type_partial_charge
C1    C     C_R   0.545915 0.794869 0.498767 0.973593
C2    C     C_R   0.595269 0.641694 0.123900 -0.025382
C3    C     C_R   0.517538 0.494615 0.646770 -0.200146
C4    C     C_R   0.493440 0.506159 0.352702 -0.206878
C5    C     C_R   0.649868 0.629353 0.021942 0.080394
C6    C     C_R   0.587565 0.340687 0.971949 0.080042
C7    C     C_R   0.556252 0.346526 0.023005 -0.027445
C8    C     C_R   0.680992 0.622639 0.970909 -0.025260
C9    C     C_R   0.595226 0.490448 0.047820 0.040236
C10   C     C_R   0.635214 0.480760 0.946208 0.040737
C11   C     C_R   0.653597 0.773304 0.047596 -0.081295
C12   C     C_R   0.454079 0.205130 0.501284 0.966448
C13   C     C_R   0.582411 0.198318 0.945455 -0.081851
C14   C     C_R   0.632097 0.779125 0.097714 -0.108649
C15   C     C_R   0.580372 0.196657 0.895257 -0.105826
C16   C     C_R   0.503976 0.500900 0.594091 0.928639
C17   C     C_R   0.496264 0.499276 0.405825 0.929404
C18   C     C_R   0.758875 0.750188 0.942892 0.326542
C19   C     C_R   0.475333 0.218698 0.050434 0.324250
C20   C     C_2   0.570221 0.958306 0.498065 -0.351523
C21   C     C_2   0.429754 0.041696 0.502089 -0.307375
C22   C     C_R   0.661884 0.614987 0.818723 0.568223
C23   C     C_R   0.638360 0.478099 0.894995 -0.054085
C24   C     C_R   0.503694 0.369897 0.176026 0.558870
C25   C     C_R   0.581720 0.340777 0.819858 0.536679
C26   C     C_R   0.573542 0.645610 0.174537 0.534452
C27   C     C_R   0.685311 0.409449 0.712045 -0.035981
C28   C     C_R   0.661053 0.560532 0.277092 -0.055567
C29   C     C_R   0.656084 0.414248 0.663194 -0.209170
C30   C     C_R   0.649224 0.557676 0.327265 -0.242926
C31   C     C_R   0.404554 0.569385 0.680871 0.427710
C32   C     C_R   0.345079 0.461177 0.326412 0.447785
C33   C     C_R   0.435299 0.561644 0.730167 -0.165332
C34   C     C_R   0.571181 0.497747 0.099016 -0.052136
C35   C     C_R   0.358366 0.469126 0.275833 -0.151203
C36   C     C_R   0.575650 0.483426 0.745501 0.200963
C37   C     C_R   0.516180 0.515388 0.251269 0.202313
C38   C     C_R   0.680170 0.616275 0.868815 -0.086510
C39   C     C_R   0.518420 0.361976 0.125362 -0.084964
C40   C     C_R   0.746613 0.749603 0.892806 -0.160623
C41   C     C_R   0.469892 0.224137 0.100791 -0.159229
C42   C     C_R   0.598707 0.337230 0.869911 -0.024409
Cl1   Cl    Cl    0.906550 0.896318 0.965391 -0.570587
Cl2   Cl    Cl    0.339666 0.065744 0.026396 -0.577594
H1    H     H_    0.012660 0.376558 0.465757 0.253233
H2    H     H_    0.793901 0.348858 0.723973 0.175733
H3    H     H_    0.640217 0.892499 0.115728 0.197467
H4    H     H_    0.565337 0.084987 0.876461 0.199362
H5    H     H_    0.663336 0.884330 0.029512 0.201247
H6    H     H_    0.583886 0.086527 0.962785 0.200491
H7    H     H_    0.702842 0.009441 0.494205 0.185691
H8    H     H_    0.297133 0.990564 0.505964 0.192063
H9    H     H_    0.042382 0.822510 0.701023 0.401475
H10   H     H_    0.900587 0.284079 0.330325 0.391058
H11   H     H_    0.986748 0.620756 0.535266 0.219581
H12   H     H_    0.351643 0.617483 0.757074 0.205553
H13   H     H_    0.247298 0.435756 0.254952 0.204874
H14   H     H_    0.798259 0.851155 0.872401 0.217830
H15   H     H_    0.413222 0.123356 0.120729 0.222992
H16   H     H_    0.763638 0.595147 0.346226 0.235924
H17   H     H_    0.743608 0.355072 0.638067 0.201166
H18   H     H_    0.783693 0.596165 0.258190 0.181458
N1    N     N_R   0.607134 0.479612 0.795795 -0.349770
N2    N     N_R   0.531433 0.510343 0.199482 -0.348072
N3    N     N_2   0.950320 0.457960 0.486880 -0.146658
N4    N     N_2   0.049680 0.542040 0.513120 -0.151382
O1    O     O_R   0.389250 0.738570 0.503220 -0.602344
O2    O     O_2   0.462833 0.238203 0.201721 -0.508607
O3    O     O_2   0.593098 0.783351 0.198697 -0.515189
O4    O     O_2   0.536358 0.207723 0.795578 -0.512297
O5    O     O_2   0.293690 0.794265 0.625621 -0.299608
O6    O     O_2   0.090252 0.568579 0.644940 -0.316672
O7    O     O_3   0.146855 0.776377 0.712497 -0.526493
O8    O     O_2   0.175527 0.259599 0.388622 -0.321203
O9    O     O_2   0.060078 0.518926 0.381016 -0.329281
O10   O     O_3   0.011164 0.314966 0.311960 -0.548695
O11   O     O_R   0.610750 0.261430 0.496780 -0.624459
O12   O     O_R   0.678390 0.711630 0.494810 -0.631790
O13   O     O_R   0.321610 0.288370 0.505190 -0.623845
O14   O     O_R   0.355440 0.513440 0.575450 -0.544286
O15   O     O_R   0.644560 0.486560 0.424550 -0.603481
O16   O     O_R   0.644590 0.486500 0.567040 -0.639838
O17   O     O_R   0.355410 0.513500 0.432960 -0.557371
O18   O     O_2   0.697524 0.747547 0.793104 -0.515409
S1    S     S_3+6 0.230210 0.678638 0.664186 0.033603
S2    S     S_3+6 0.144466 0.387583 0.354007 0.011581
Zn1   Zn    Zn3+2 0.306940 0.517990 0.505620 1.062968
Zn2   Zn    Zn3+2 0.693060 0.482010 0.494380 1.006068

loop_
_geom_bond_atom_site_label_1
_geom_bond_atom_site_label_2
_ccdc_geom_bond_type
O17   Zn1   S    
C31   S1    S    
C27   C29   A    
C33   C36   A    
O13   Zn1   S    
O6    S1    D    
C39   C41   A    
C23   C42   A    
C35   C37   A    
C5    C11   A    
C20   H7    S    
C11   C14   A    
C22   C38   A    
C12   O13   A    
C24   C39   A    
C25   N1    A    
C3    C29   A    
C26   N2    A    
C18   C40   A    
C22   N1    A    
O5    S1    D    
C14   H3    S    
O11   Zn2   S    
C30   H16   S    
C31   C33   A    
C36   N1    S    
C2    C34   A    
C33   H12   S    
C24   N2    A    
C1    O12   A    
C15   H4    S    
C29   H17   S    
C40   H14   S    
C34   C39   A    
C32   C35   A    
C41   H15   S    
N4    Zn1   S    
C12   C21   S    
C8    C18   A    
C16   O14   A    
C22   O18   S    
C5    C9    A    
C11   H5    S    
O9    S2    D    
C32   S2    S    
C12   O11   A    
C16   O16   A    
C2    C26   A    
O8    S2    D    
C3    C31   A    
O7    S1    S    
C4    C32   A    
H10   O10   S    
C4    C17   S    
C27   H2    S    
C7    C19   A    
C13   C15   A    
H1    N3    S    
C9    C34   A    
C10   C23   A    
O10   S2    S    
C37   N2    S    
C19   Cl2   S    
N3    Zn2   S    
O12   Zn2   S    
C7    C9    A    
C1    C20   S    
H9    O7    S    
C15   C42   A    
C25   C42   A    
C6    C10   A    
C5    C8    A    
C6    C7    A    
C27   C36   A    
O14   Zn1   S    
C23   C38   A    
O1    Zn1   S    
C35   H13   S    
C28   C30   A    
C18   Cl1   S    
C6    C13   A    
C38   C40   A    
C28   C37   A    
O16   Zn2   S    
C1    O1    A    
C17   O15   A    
C2    C14   A    
O15   Zn2   S    
C24   O2    S    
C13   H6    S    
C20   C21   D    
C8    C10   A    
N3    N4    D    
C26   O3    S    
C25   O4    S    
C17   O17   A    
C21   H8    S    
C4    C30   A    
C3    C16   S    
C19   C41   A    
H11   N4    S    
C28   H18   S    
