data_mof_unit_8318.cif
_audit_creation_date              2013-03-05T16:08:30-0500
_audit_creation_method            fapswitch 2.2
_symmetry_space_group_name_H-M    P1
_symmetry_Int_Tables_number       1
_space_group_crystal_system       monoclinic
_cell_length_a                    14.807759
_cell_length_b                    6.927483
_cell_length_c                    13.504751
_cell_angle_alpha                 90.0
_cell_angle_beta                  99.807308
_cell_angle_gamma                 90.0
_cell_volume                      1365.07921667

loop_
_atom_site_label
_atom_site_type_symbol
_atom_site_description
_atom_site_fract_x
_atom_site_fract_y
_atom_site_fract_z
_atom_type_partial_charge
O1    O     O_R   0.586930 0.505770 0.416350 -0.615092
O2    O     O_R   0.413070 0.005770 0.583650 -0.615093
O3    O     O_R   0.397900 0.173100 0.389630 -0.577449
O4    O     O_R   0.602100 0.673100 0.610370 -0.577449
C1    C     C_R   0.364298 0.345429 0.362799 0.972289
C2    C     C_R   0.635702 0.845429 0.637201 0.972291
O5    O     O_R   0.585280 0.175870 0.404330 -0.567476
O6    O     O_R   0.414720 0.675870 0.595670 -0.567477
O7    O     O_R   0.601790 0.008380 0.598460 -0.593346
O8    O     O_R   0.398210 0.508380 0.401540 -0.593346
C3    C     C_R   0.614082 0.344749 0.382086 0.957322
C4    C     C_R   0.385917 0.844749 0.617913 0.957324
O9    O     O_3   0.505200 0.340120 0.563670 -0.247355
O10   O     O_3   0.494800 0.840120 0.436330 -0.247351
V1    V     V_3+5 0.499040 0.064180 0.488190 1.227066
V2    V     V_3+5 0.500960 0.564180 0.511810 1.227066
C5    C     C_R   0.322708 0.996924 0.761696 0.116835
C6    C     C_R   0.677291 0.496926 0.238303 0.116827
C7    C     C_R   0.320056 0.851563 0.689072 -0.244627
C8    C     C_R   0.679943 0.351563 0.310928 -0.244629
C9    C     C_R   0.254438 0.703990 0.689851 -0.100822
C10   C     C_R   0.745561 0.203989 0.310148 -0.100821
H1    H     H_    0.251271 0.584769 0.637628 0.108815
H2    H     H_    0.748728 0.084768 0.362370 0.108815
C11   C     C_R   0.188008 0.715713 0.753270 -0.174032
C12   C     C_R   0.811992 0.215712 0.246729 -0.174032
H3    H     H_    0.136178 0.604415 0.748603 0.124849
H4    H     H_    0.863821 0.104413 0.251395 0.124850
C13   C     C_R   0.184864 0.876054 0.817035 -0.211560
C14   C     C_R   0.815136 0.376054 0.182965 -0.211561
C15   C     C_R   0.256229 0.009989 0.822740 0.181201
C16   C     C_R   0.743772 0.509991 0.177261 0.181208
C17   C     C_3   0.256118 0.225127 0.821238 -0.594733
C18   C     C_3   0.743885 0.725129 0.178766 -0.594732
C19   C     C_3   0.330678 0.211452 0.755953 0.173252
C20   C     C_3   0.669323 0.711453 0.244049 0.173251
H5    H     H_    0.279147 0.287979 0.897085 0.240521
H6    H     H_    0.720858 0.787987 0.102919 0.240524
H7    H     H_    0.190422 0.283461 0.780247 0.172323
H8    H     H_    0.809581 0.783458 0.219760 0.172320
H9    H     H_    0.310582 0.269790 0.678653 0.063041
H10   H     H_    0.689418 0.769787 0.321350 0.063043
C21   C     C_1   0.783413 0.877119 0.782928 -0.233341
C22   C     C_1   0.216587 0.377119 0.217072 -0.233343
C23   C     C_1   0.716136 0.860137 0.716875 -0.206763
C24   C     C_1   0.283864 0.360137 0.283125 -0.206765
O11   O     O_R   0.101720 0.231700 0.098560 -0.589208
O12   O     O_R   0.898280 0.731700 0.901440 -0.589208
O13   O     O_R   0.914700 0.558980 0.095690 -0.597961
O14   O     O_R   0.085300 0.058980 0.904310 -0.597961
C25   C     C_R   0.885516 0.389640 0.117398 0.953091
C26   C     C_R   0.114484 0.889640 0.882602 0.953091
O15   O     O_R   0.102080 0.561590 0.110390 -0.588950
O16   O     O_R   0.897920 0.061590 0.889610 -0.588950
O17   O     O_R   0.086950 0.728940 0.916330 -0.593042
O18   O     O_R   0.913050 0.228940 0.083670 -0.593041
C27   C     C_R   0.136120 0.391913 0.137436 0.981233
C28   C     C_R   0.863880 0.891913 0.862564 0.981234
O19   O     O_3   0.994770 0.394510 0.936380 -0.276574
O20   O     O_3   0.005230 0.894510 0.063620 -0.276575
V3    V     V_3+5 0.000970 0.670520 0.011800 1.172372
V4    V     V_3+5 0.999030 0.170520 0.988200 1.172372
N1    N     N_R   0.419705 0.281003 0.807659 0.264595
O21   O     O_R   0.462097 0.416341 0.767162 -0.356895
O22   O     O_R   0.456509 0.211935 0.894935 -0.339581
N2    N     N_R   0.580297 0.781007 0.192341 0.264594
O23   O     O_R   0.537900 0.916327 0.232845 -0.356896
O24   O     O_R   0.543501 0.711961 0.105058 -0.339579

loop_
_geom_bond_atom_site_label_1
_geom_bond_atom_site_label_2
_geom_bond_distance
_ccdc_geom_bond_type
O4    V2    1.976069 S    
N2    O24   1.302428 A    
C14   C25   1.480999 S    
N1    O22   1.302423 A    
O12   C28   1.294534 A    
C7    C9    1.411678 A    
C2    C23   1.466335 S    
C11   H3    1.082123 S    
O16   V4    1.976031 S    
C1    C24   1.466335 S    
C20   N2    1.464251 S    
C20   H10   1.111675 S    
O1    C3    1.297472 A    
C26   O17   1.294717 A    
C22   C27   1.466401 S    
O6    C4    1.297867 A    
O18   V4    2.001561 S    
O2    C4    1.297471 A    
O11   V4    1.985211 S    
O5    V1    2.001177 S    
N2    O23   1.299652 A    
O7    V1    1.977401 S    
O3    V1    1.976070 S    
C1    O8    1.307921 A    
C13   C15   1.398505 A    
O1    V2    2.001336 S    
O8    V2    1.977402 S    
C14   C16   1.398505 A    
O2    V1    2.001336 S    
C21   C23   1.224450 T    
O12   V3    1.985211 S    
C17   H7    1.110242 S    
C6    C20   1.493875 S    
C2    O7    1.307921 A    
C19   H9    1.111672 S    
O17   V3    2.001562 S    
C4    C7    1.481921 S    
O20   V4    2.161001 S    
C12   H4    1.082123 S    
C17   C19   1.528688 S    
C18   C20   1.528688 S    
C8    C10   1.411679 A    
C17   H5    1.111785 S    
O5    C3    1.297867 A    
C10   H2    1.081864 S    
O9    V1    2.160971 S    
C9    H1    1.081864 S    
C11   C13   1.411088 A    
C5    C15   1.390436 A    
O10   V2    2.160971 S    
C3    C8    1.481921 S    
O19   V3    2.161000 S    
O14   V4    2.001376 S    
O13   V3    2.001375 S    
C15   C17   1.490499 S    
N1    O21   1.299650 A    
C6    C16   1.390438 A    
C6    C8    1.401564 A    
O4    C2    1.320084 A    
C25   O18   1.294718 A    
C10   C12   1.412359 A    
O9    V2    1.699617 S    
O16   C28   1.306292 A    
O14   C26   1.300780 A    
O15   C27   1.306292 A    
O10   V1    1.699617 S    
C18   H8    1.110243 S    
O19   V4    1.698945 S    
C9    C11   1.412359 A    
O6    V2    2.001178 S    
C5    C19   1.493876 S    
C21   C28   1.466401 S    
C5    C7    1.401562 A    
C18   H6    1.111786 S    
O15   V3    1.976031 S    
C19   N1    1.464250 S    
C13   C26   1.481000 S    
O11   C27   1.294534 A    
O13   C25   1.300781 A    
C22   C24   1.224450 T    
O20   V3    1.698946 S    
O3    C1    1.320084 A    
C12   C14   1.411088 A    
C16   C18   1.490499 S    
