data_mof_unit_61372.cif
_audit_creation_date              2012-12-10T21:13:06-0500
_audit_creation_method            fapswitch 2.2
_symmetry_space_group_name_H-M    P1
_symmetry_Int_Tables_number       1
_space_group_crystal_system       triclinic
_cell_length_a                    17.587423
_cell_length_b                    16.722405
_cell_length_c                    15.025572
_cell_angle_alpha                 89.980433
_cell_angle_beta                  90.1284
_cell_angle_gamma                 89.89638
_cell_volume                      4419.06239533

loop_
_atom_site_label
_atom_site_type_symbol
_atom_type_description
_atom_site_fract_x
_atom_site_fract_y
_atom_site_fract_z
_atom_type_partial_charge
C1    C     C_R   0.353136 0.500082 0.499061 1.052037
C2    C     C_R   0.229140 0.431910 0.517208 0.513871
C3    C     C_R   0.232539 0.567765 0.458183 0.509675
C4    C     C_R   0.767333 0.432397 0.458310 0.511015
C5    C     C_R   0.729358 0.499783 0.492789 -0.548825
C6    C     C_R   0.270614 0.500218 0.492390 -0.550947
C7    C     C_R   0.886214 0.501366 0.474680 -0.428039
C8    C     C_R   0.113680 0.498809 0.474271 -0.429021
C9    C     C_1   0.966211 0.500586 0.470331 0.296974
C10   C     C_1   0.033657 0.499710 0.470194 0.296825
C11   C     C_R   0.454251 0.832351 0.440148 0.570034
C12   C     C_R   0.646858 0.499917 0.499222 1.051654
C13   C     C_R   0.546788 0.167640 0.558722 0.568996
C14   C     C_R   0.545783 0.832149 0.559794 0.560770
C15   C     C_R   0.453207 0.167859 0.441267 0.560051
C16   C     C_R   0.455123 0.748087 0.441308 -0.063282
C17   C     C_R   0.545899 0.251906 0.557593 -0.056942
C18   C     C_R   0.544909 0.747888 0.558652 -0.078647
C19   C     C_R   0.454097 0.252121 0.442407 -0.069536
C20   C     C_R   0.500012 0.875551 0.499973 -0.218511
C21   C     C_R   0.500000 0.124448 0.499990 -0.209268
C22   C     C_1   0.500007 0.963428 0.499974 0.243529
C23   C     C_R   0.500958 0.354101 0.046642 -0.246586
C24   C     C_1   0.500003 0.036572 0.499980 0.243558
C25   C     C_R   0.499877 0.500018 0.326219 0.892488
C26   C     C_R   0.500123 0.499983 0.673782 0.893954
C27   C     C_R   0.499785 0.572706 0.815238 -0.156665
C28   C     C_R   0.500248 0.427298 0.184770 -0.154690
C29   C     C_R   0.500256 0.499928 0.769561 -0.095303
C30   C     C_R   0.499744 0.500074 0.230446 -0.095862
C31   C     C_R   0.500784 0.427087 0.815264 -0.145990
C32   C     C_R   0.499184 0.572916 0.184745 -0.146211
C33   C     C_R   0.500689 0.426353 0.907451 -0.023297
C34   C     C_R   0.499055 0.645903 0.953368 -0.247890
C35   C     C_R   0.499295 0.573650 0.092559 -0.023151
C36   C     C_R   0.500089 0.499888 0.953683 -0.005470
C37   C     C_R   0.499912 0.500116 0.046326 -0.005805
C38   C     C_R   0.499660 0.573237 0.907264 0.043009
C39   C     C_R   0.500357 0.426767 0.092745 0.041939
C40   C     C_R   0.501131 0.353712 0.954197 0.660566
C41   C     C_R   0.498856 0.646291 0.045813 0.660877
C42   C     C_R   0.849334 0.568508 0.508965 0.572561
C43   C     C_R   0.150668 0.431452 0.508107 0.570844
C44   C     C_R   0.154064 0.566833 0.449312 0.576984
C45   C     C_R   0.845769 0.433420 0.449423 0.574219
C46   C     C_R   0.770895 0.567956 0.518076 0.513902
F1    F     F_    0.501719 0.282542 0.910656 -0.610426
F2    F     F_    0.728782 0.366281 0.431578 -0.563469
F3    F     F_    0.409012 0.871281 0.380979 -0.560135
F4    F     F_    0.593045 0.128699 0.616795 -0.568422
F5    F     F_    0.591041 0.870879 0.618935 -0.570108
F6    F     F_    0.406945 0.129136 0.383195 -0.575931
F7    F     F_    0.498254 0.717461 0.089355 -0.610445
F8    F     F_    0.889460 0.633963 0.534561 -0.539195
F9    F     F_    0.110611 0.365889 0.533349 -0.539139
F10   F     F_    0.117382 0.632274 0.416956 -0.537878
F11   F     F_    0.882353 0.368165 0.416695 -0.539855
F12   F     F_    0.736012 0.633330 0.552937 -0.568199
F13   F     F_    0.264112 0.366309 0.551645 -0.559082
F14   F     F_    0.271008 0.633980 0.431760 -0.571149
H1    H     H_    0.499436 0.628994 0.779325 0.173473
H2    H     H_    0.417930 0.285150 0.397056 0.185839
H3    H     H_    0.500627 0.371010 0.220682 0.175691
H4    H     H_    0.501232 0.371036 0.779026 0.220300
H5    H     H_    0.498706 0.628966 0.220984 0.219814
H6    H     H_    0.501306 0.297671 0.082164 0.202224
H7    H     H_    0.498717 0.702333 0.917847 0.201656
H8    H     H_    0.419781 0.715227 0.395076 0.219502
H9    H     H_    0.582059 0.284767 0.602953 0.188973
H10   H     H_    0.580293 0.714870 0.604848 0.211246
N1    N     N_R   0.500000 0.707230 0.500000 -0.172946
N2    N     N_R   0.500000 0.292770 0.500000 -0.160321
O1    O     O_R   0.389110 0.566570 0.500000 -0.569037
O2    O     O_R   0.610890 0.433430 0.500000 -0.568647
O3    O     O_R   0.610890 0.566570 0.500000 -0.569201
O4    O     O_R   0.389110 0.433430 0.500000 -0.569282
O5    O     O_R   0.499980 0.566550 0.367850 -0.630614
O6    O     O_R   0.500020 0.433450 0.632150 -0.628421
O7    O     O_R   0.500020 0.566550 0.632150 -0.632700
O8    O     O_R   0.499980 0.433450 0.367850 -0.629233
Zn1   Zn    Zn3+2 0.500000 0.588860 0.500000 1.028228
Zn2   Zn    Zn3+2 0.500000 0.411140 0.500000 1.036495

loop_
_geom_bond_atom_site_label_1
_geom_bond_atom_site_label_2
_ccdc_geom_bond_type
C18   H10   S    
C40   F1    S    
C17   H9    S    
C12   O2    A    
C27   C29   A    
C25   O8    A    
C14   C18   A    
C8    C43   A    
C3    C6    A    
C15   C19   A    
C16   N1    A    
C45   F11   S    
C26   O6    A    
C25   O5    A    
C7    C45   A    
C23   H6    S    
C36   C37   A    
C35   C37   A    
C19   H2    S    
C23   C40   A    
C18   N1    A    
C33   C36   A    
C42   C46   A    
C7    C42   A    
C44   F10   S    
C27   H1    S    
C31   C33   A    
C16   H8    S    
C9    C10   T    
C3    F14   S    
C46   F12   S    
C19   N2    A    
C2    C6    A    
C34   C41   A    
O2    Zn2   S    
O1    Zn1   S    
C4    C45   A    
C3    C44   A    
C11   C20   A    
C33   C40   A    
C1    C6    S    
C32   C35   A    
C14   C20   A    
C5    C12   S    
O8    Zn2   S    
O4    Zn2   S    
O7    Zn1   S    
C2    F13   S    
O3    Zn1   S    
C28   C39   A    
C11   F3    S    
C37   C39   A    
C11   C16   A    
O6    Zn2   S    
C14   F5    S    
O5    Zn1   S    
C2    C43   A    
C13   C21   A    
C15   F6    S    
C41   F7    S    
C17   N2    A    
C43   F9    S    
C20   C22   S    
C22   C24   T    
C21   C24   S    
C4    F2    S    
C25   C30   S    
C7    C9    S    
C34   C38   A    
C1    O4    A    
C31   H4    S    
C8    C44   A    
C4    C5    A    
C34   H7    S    
C5    C46   A    
C26   O7    A    
C13   C17   A    
C1    O1    A    
C28   C30   A    
C29   C31   A    
C42   F8    S    
C30   C32   A    
C23   C39   A    
C36   C38   A    
C35   C41   A    
C13   F4    S    
C28   H3    S    
C15   C21   A    
C26   C29   S    
C8    C10   S    
C12   O3    A    
C27   C38   A    
N2    Zn2   S    
C32   H5    S    
N1    Zn1   S    
