data_mof_unit_44009.cif
_audit_creation_date              2012-12-10T17:32:16-0500
_audit_creation_method            fapswitch 2.2
_symmetry_space_group_name_H-M    P1
_symmetry_Int_Tables_number       1
_space_group_crystal_system       triclinic
_cell_length_a                    12.42363
_cell_length_b                    13.15156
_cell_length_c                    15.048607
_cell_angle_alpha                 75.105588
_cell_angle_beta                  101.545296
_cell_angle_gamma                 117.123789
_cell_volume                      2104.99817159

loop_
_atom_site_label
_atom_site_type_symbol
_atom_type_description
_atom_site_fract_x
_atom_site_fract_y
_atom_site_fract_z
_atom_type_partial_charge
C1    C     C_R   0.855683 0.286578 0.503838 0.835548
C2    C     C_R   0.102824 0.507186 0.108433 0.127314
C3    C     C_R   0.793767 0.487525 0.015422 -0.296719
C4    C     C_R   0.793154 0.488474 0.922116 0.487850
C5    C     C_R   0.895825 0.494061 0.890914 -0.015760
C6    C     C_R   0.999344 0.500761 0.953162 -0.001146
C7    C     C_R   0.102822 0.506920 0.922467 0.138666
C8    C     C_R   0.205023 0.513305 0.984692 -0.217917
C9    C     C_R   0.204995 0.513350 0.077246 -0.214475
C10   C     C_R   0.897431 0.493621 0.798589 -0.204596
C11   C     C_R   0.000053 0.499729 0.768058 -0.093946
C12   C     C_R   0.000142 0.499803 0.671138 0.847919
C13   C     C_R   0.102513 0.506786 0.829948 -0.261468
C14   C     C_R   0.276434 0.038357 0.389299 -0.275940
C15   C     C_R   0.228148 0.839169 0.468021 -0.151477
C16   C     C_R   0.817314 0.075377 0.538003 0.502231
C17   C     C_R   0.734670 0.957783 0.543357 -0.259493
C18   C     C_R   0.611408 0.925994 0.520146 -0.265798
C19   C     C_R   0.566476 0.010715 0.482724 0.099994
C20   C     C_R   0.650984 0.128538 0.461202 0.009040
C21   C     C_R   0.440188 0.981474 0.462589 0.093571
C22   C     C_R   0.400807 0.066599 0.410326 0.086099
C23   C     C_R   0.145007 0.714539 0.486202 0.805317
C24   C     C_R   0.486157 0.178152 0.377537 -0.222849
C25   C     C_R   0.609318 0.208273 0.401371 -0.155417
C26   C     C_R   0.351938 0.870036 0.493958 -0.339857
C27   C     C_R   0.189393 0.925233 0.418335 0.486046
C28   C     C_R   0.774715 0.162407 0.498495 -0.238606
C29   C     C_R   0.359791 0.355858 0.667037 -0.385199
C30   C     C_R   0.757294 0.642725 0.370215 0.081072
C31   C     C_R   0.661508 0.674502 0.341248 -0.268137
C32   C     C_R   0.560647 0.622957 0.391335 -0.170737
C33   C     C_R   0.554012 0.538809 0.472402 -0.047571
C34   C     C_R   0.000093 0.500640 0.328811 0.776933
C35   C     C_R   0.654585 0.507372 0.500955 0.172707
C36   C     C_R   0.450717 0.484443 0.525914 -0.034556
C37   C     C_R   0.457305 0.413968 0.612729 0.028199
C38   C     C_R   0.558782 0.394867 0.644312 -0.313426
C39   C     C_R   0.645204 0.421540 0.585349 0.474725
C40   C     C_R   0.340522 0.496409 0.498472 -0.066195
C41   C     C_R   0.252236 0.368295 0.635900 0.726202
C42   C     C_R   0.102116 0.506837 0.200909 -0.242660
C43   C     C_R   0.999814 0.500963 0.231797 -0.055988
C44   C     C_R   0.897348 0.495047 0.169946 -0.219027
C45   C     C_R   0.896414 0.494782 0.077253 0.031440
C46   C     C_R   0.999550 0.501101 0.046239 0.059204
Cu1   Cu    Cu3+1 0.098270 0.475420 0.521130 0.998278
Cu2   Cu    Cu3+1 0.901730 0.524580 0.478870 0.976997
H1    H     H_    0.181631 0.511956 0.248635 0.148549
H2    H     H_    0.457699 0.242671 0.333466 0.143734
H3    H     H_    0.246495 0.103345 0.348403 0.154019
H4    H     H_    0.377771 0.804922 0.538992 0.174059
H5    H     H_    0.554083 0.833848 0.527601 0.156153
H6    H     H_    0.764788 0.889210 0.566793 0.144470
H7    H     H_    0.670929 0.293670 0.369287 0.167498
H8    H     H_    0.564218 0.346483 0.713790 0.192125
H9    H     H_    0.817901 0.489639 0.194013 0.149690
H10   H     H_    0.327517 0.551140 0.434375 0.136787
H11   H     H_    0.835172 0.683759 0.330724 0.156534
H12   H     H_    0.489970 0.652292 0.366277 0.135050
H13   H     H_    0.665629 0.739908 0.279595 0.148812
H14   H     H_    0.713607 0.480696 0.039370 0.158212
H15   H     H_    0.818755 0.488708 0.750276 0.211922
H16   H     H_    0.182588 0.513570 0.805968 0.152228
H17   H     H_    0.284798 0.518020 0.961784 0.137715
H18   H     H_    0.284749 0.518110 0.124438 0.140758
N1    N     N_R   0.246280 0.438190 0.553160 -0.216879
N2    N     N_R   0.754320 0.561190 0.447410 -0.201221
O1    O     O_R   0.972510 0.318130 0.526570 -0.481914
O2    O     O_R   0.806530 0.359650 0.490890 -0.540396
O3    O     O_R   0.082980 0.479210 0.647590 -0.551926
O4    O     O_R   0.917000 0.520730 0.611900 -0.545303
O5    O     O_R   0.193470 0.640350 0.509110 -0.602894
O6    O     O_R   0.027490 0.681870 0.473430 -0.547421
O7    O     O_R   0.083000 0.479270 0.388100 -0.593762
O8    O     O_R   0.917020 0.520790 0.352410 -0.611222
O9    O     O_3   0.941207 0.107719 0.562076 -0.554460
C47   C     C_3   0.964105 0.041169 0.647322 -0.286161
H19   H     H_    0.951887 0.955296 0.638261 0.125534
H20   H     H_    0.907466 0.030990 0.700619 0.151610
H21   H     H_    0.060619 0.086790 0.673262 0.211440
O10   O     O_3   0.148203 0.307603 0.682721 -0.539868
C48   C     C_3   0.173835 0.287727 0.779736 -0.384761
H22   H     H_    0.092019 0.269445 0.811426 0.204881
H23   H     H_    0.249897 0.364935 0.804404 0.152714
H24   H     H_    0.192597 0.209639 0.803783 0.154750
H25   H     H_    0.366864 0.298088 0.731458 0.151516
O11   O     O_3   0.721019 0.366007 0.614065 -0.535087
C49   C     C_3   0.659514 0.245292 0.650605 -0.311194
H26   H     H_    0.571394 0.202602 0.609642 0.166800
H27   H     H_    0.647380 0.230229 0.724671 0.153364
H28   H     H_    0.717251 0.202002 0.649280 0.172053
O12   O     O_3   0.688679 0.475037 0.863202 -0.589741
C50   C     C_3   0.686226 0.584638 0.831667 -0.368955
H29   H     H_    0.767241 0.648192 0.794614 0.157537
H30   H     H_    0.679243 0.619039 0.889510 0.165113
H31   H     H_    0.604597 0.574476 0.781888 0.198997
O13   O     O_3   0.067861 0.897228 0.390440 -0.581654
C51   C     C_3   0.022168 0.931245 0.450641 -0.275803
H32   H     H_    0.033069 0.887293 0.523495 0.148150
H33   H     H_    0.923461 0.904539 0.430741 0.191813
H34   H     H_    0.066184 0.027394 0.445122 0.179644

loop_
_geom_bond_atom_site_label_1
_geom_bond_atom_site_label_2
_ccdc_geom_bond_type
C16   C28   A    
C21   C26   A    
C27   O13   S    
O12   C50   S    
C31   H13   S    
C19   C20   A    
C10   H15   S    
C7    C8    A    
C41   N1    A    
O9    C47   S    
C2    C46   A    
C36   C37   A    
C19   C21   A    
C23   O5    A    
C16   O9    S    
C30   C31   A    
C47   H20   S    
C20   C25   A    
C33   C36   A    
C18   C19   A    
Cu2   O8    S    
C9    H18   S    
Cu1   O1    S    
C18   H5    S    
C14   H3    S    
C16   C17   A    
C40   N1    A    
C1    C28   S    
C14   C27   A    
C49   H27   S    
C34   O7    A    
C15   C23   S    
C12   O4    A    
C8    H17   S    
C21   C22   A    
C39   O11   S    
Cu2   O4    S    
Cu1   N1    S    
C24   H2    S    
C38   C39   A    
C40   H10   S    
Cu1   Cu2   S    
Cu2   O6    S    
C36   C40   A    
C24   C25   A    
Cu1   O5    S    
C47   H19   S    
C8    C9    A    
C15   C26   A    
C20   C28   A    
C50   H31   S    
C45   C46   A    
C3    C45   A    
C1    O1    A    
C35   C39   A    
C43   C44   A    
C37   C38   A    
C26   H4    S    
C15   C27   A    
C48   H22   S    
C44   H9    S    
C30   H11   S    
C51   H34   S    
C17   C18   A    
Cu2   N2    S    
C49   H28   S    
C50   H30   S    
Cu1   O3    S    
C48   H23   S    
C12   O3    A    
O10   C48   S    
C22   C24   A    
C42   C43   A    
C32   H12   S    
C23   O6    A    
C3    C4    A    
C44   C45   A    
C3    H14   S    
C6    C46   A    
C29   C41   A    
C31   C32   A    
C34   C43   S    
C25   H7    S    
Cu2   O2    S    
C4    C5    A    
C11   C12   S    
C6    C7    A    
C1    O2    A    
C51   H32   S    
C32   C33   A    
C14   C22   A    
Cu1   O7    S    
C5    C10   A    
C11   C13   A    
C47   H21   S    
C5    C6    A    
C13   H16   S    
C35   N2    A    
C2    C42   A    
C41   O10   S    
C33   C35   A    
C50   H29   S    
C29   H25   S    
C10   C11   A    
C42   H1    S    
C4    O12   S    
C7    C13   A    
C48   H24   S    
C38   H8    S    
O11   C49   S    
O13   C51   S    
C29   C37   A    
C49   H26   S    
C2    C9    A    
C17   H6    S    
C51   H33   S    
C30   N2    A    
C34   O8    A    
