data_mof_unit_6605.cif
_audit_creation_date              2012-10-26T19:52:49-0400
_audit_creation_method            fapswitch 2.2
_symmetry_space_group_name_H-M    P1
_symmetry_Int_Tables_number       1
_space_group_crystal_system       triclinic
_cell_length_a                    15.043393
_cell_length_b                    10.863619
_cell_length_c                    9.603294
_cell_angle_alpha                 89.540907
_cell_angle_beta                  90.035216
_cell_angle_gamma                 91.331522
_cell_volume                      1568.95065528

loop_
_atom_site_label
_atom_site_type_symbol
_atom_type_description
_atom_site_fract_x
_atom_site_fract_y
_atom_site_fract_z
_atom_type_partial_charge
C1    C     C_R   0.500113 0.262839 0.500216 0.525579
C2    C     C_R   0.185383 0.430679 0.402634 -0.170070
C3    C     C_R   0.232479 0.501569 0.499812 -0.005703
C4    C     C_R   0.329012 0.500294 0.499962 0.569704
C5    C     C_R   0.187614 0.573801 0.595978 0.425395
C6    C     C_R   0.498229 0.060676 0.620537 -0.033659
C7    C     C_R   0.501404 0.130094 0.498734 0.017754
C8    C     C_R   0.506063 0.065734 0.371650 -0.131474
C9    C     C_R   0.506235 0.936568 0.371127 -0.134429
C10   C     C_R   0.502000 0.869768 0.497665 0.034210
C11   C     C_R   0.498858 0.936663 0.619910 0.083655
C12   C     C_R   0.908073 0.577632 0.589525 -0.026050
C13   C     C_3   0.490996 0.925941 0.774106 0.273923
C14   C     C_3   0.489991 0.067494 0.774949 -0.221449
C15   C     C_R   0.549340 0.585335 0.072836 0.027844
C16   C     C_R   0.500578 0.737090 0.499469 0.588766
C17   C     C_R   0.443424 0.426129 0.077024 0.061133
C18   C     C_R   0.441709 0.425899 0.928481 0.118484
C19   C     C_R   0.549138 0.585803 0.926077 0.145751
C20   C     C_3   0.647287 0.610206 0.921774 0.731926
C21   C     C_3   0.647371 0.608433 0.080047 0.369915
C22   C     C_R   0.671086 0.500961 0.499688 0.601313
C23   C     C_R   0.952501 0.349630 0.307086 0.034547
C24   C     C_R   0.815606 0.579621 0.587060 0.436598
C25   C     C_R   0.767854 0.501861 0.498088 0.052718
C26   C     C_R   0.812085 0.426466 0.404773 -0.142829
C27   C     C_R   0.905459 0.424216 0.401890 -0.004383
C28   C     C_R   0.953435 0.500663 0.496633 -0.011009
C29   C     C_2   0.374313 0.343109 0.862254 0.249495
C30   C     C_2   0.671717 0.728770 0.148237 0.330385
C31   C     C_2   0.907255 0.264462 0.207253 0.287303
C32   C     C_R   0.045817 0.354778 0.307959 -0.042893
C33   C     C_R   0.092718 0.428951 0.402293 -0.004451
C34   C     C_R   0.046855 0.501634 0.497998 -0.040624
C35   C     C_R   0.094545 0.575840 0.594707 0.032474
C36   C     C_R   0.048036 0.650598 0.687112 0.421566
C37   C     C_R   0.955744 0.652043 0.683288 -0.039496
Cu1   Cu    Cu3+1 0.500000 0.499980 0.640670 1.117876
Cu2   Cu    Cu3+1 0.500000 0.500020 0.359330 1.029630
F1    F     F_    0.772143 0.661938 0.665677 -0.537983
F2    F     F_    0.410311 0.872729 0.813668 -0.550567
F3    F     F_    0.694667 0.514410 0.866634 -0.515425
F4    F     F_    0.668620 0.723802 0.863054 -0.607332
F5    F     F_    0.693112 0.509054 0.132701 -0.570219
F6    F     F_    0.235095 0.644351 0.687238 -0.504698
F7    F     F_    0.091207 0.723302 0.780915 -0.511277
H1    H     H_    0.509130 0.889824 0.272122 0.143634
H2    H     H_    0.509088 0.114372 0.272811 0.153457
H3    H     H_    0.375034 0.322105 0.753620 0.163012
H4    H     H_    0.638726 0.812530 0.117293 0.064707
H5    H     H_    0.838474 0.235617 0.220167 0.123185
H6    H     H_    0.549839 0.885527 0.825168 0.164298
H7    H     H_    0.425180 0.104269 0.807925 0.195767
H8    H     H_    0.549715 0.110740 0.824238 0.121122
H9    H     H_    0.399795 0.364983 0.136430 0.162720
H10   H     H_    0.771968 0.370651 0.335574 0.158081
H11   H     H_    0.082598 0.298652 0.236145 0.181297
H12   H     H_    0.221141 0.374905 0.329100 0.148916
H13   H     H_    0.921608 0.711005 0.755242 0.229113
N1    N     N_R   0.500570 0.500930 0.147930 -0.244015
N2    N     N_R   0.500570 0.500890 0.852020 -0.257481
O1    O     O_R   0.500000 0.319640 0.618810 -0.554935
O2    O     O_2   0.728461 0.733242 0.239058 -0.429853
O3    O     O_2   0.947526 0.223048 0.108325 -0.440462
O4    O     O_R   0.500010 0.319680 0.381230 -0.523130
O5    O     O_R   0.370250 0.499950 0.618800 -0.475796
O6    O     O_R   0.370260 0.499990 0.381220 -0.516771
O7    O     O_R   0.499990 0.680320 0.618770 -0.442906
O8    O     O_R   0.500000 0.680360 0.381190 -0.523735
O9    O     O_R   0.629740 0.500010 0.618780 -0.408728
O10   O     O_R   0.629750 0.500050 0.381200 -0.449452
O11   O     O_2   0.314621 0.294887 0.931231 -0.503968

loop_
_geom_bond_atom_site_label_1
_geom_bond_atom_site_label_2
_ccdc_geom_bond_type
Cu1   O9    S    
C15   N1    A    
C35   C36   A    
C1    O1    A    
C13   F2    S    
C7    C8    A    
C29   H3    S    
C15   C19   A    
C26   C27   A    
C12   C28   A    
C36   C37   A    
Cu1   Cu2   S    
C13   H6    S    
C34   C35   A    
C12   C37   A    
Cu1   O5    S    
C8    C9    A    
C22   C25   S    
C1    O4    A    
C36   F7    S    
C16   O7    A    
C23   C27   A    
C9    C10   A    
C17   H9    S    
Cu1   N2    S    
C30   H4    S    
C28   C34   A    
C30   O2    D    
Cu2   O4    S    
C32   H11   S    
C33   C34   A    
C24   C25   A    
C6    C11   A    
C25   C26   A    
C5    F6    S    
C23   C31   S    
C8    H2    S    
C6    C14   S    
C21   F5    S    
C17   C18   A    
Cu2   O8    S    
C18   C29   S    
C37   H13   S    
C2    C33   A    
C14   H8    S    
Cu1   O7    S    
C9    H1    S    
C3    C4    S    
C22   O10   A    
C20   F4    S    
C1    C7    S    
Cu2   O6    S    
C31   O3    D    
C16   O8    A    
C31   H5    S    
C3    C5    A    
C26   H10   S    
C4    O6    A    
C20   F3    S    
C2    H12   S    
C18   N2    A    
C6    C7    A    
C21   C30   S    
C12   C24   A    
C23   C32   A    
C29   O11   D    
C19   C20   S    
C2    C3    A    
C10   C16   S    
C32   C33   A    
C4    O5    A    
C11   C13   S    
C19   N2    A    
Cu2   N1    S    
C5    C35   A    
C24   F1    S    
C10   C11   A    
C17   N1    A    
C15   C21   S    
C14   H7    S    
C20   C21   S    
C27   C28   A    
Cu2   O10   S    
C13   C14   S    
C22   O9    A    
Cu1   O1    S    
