data_mof_unit_45524.cif
_audit_creation_date              2012-10-26T19:20:36-0400
_audit_creation_method            fapswitch 2.2
_symmetry_space_group_name_H-M    P1
_symmetry_Int_Tables_number       1
_space_group_crystal_system       triclinic
_cell_length_a                    10.862738
_cell_length_b                    11.049982
_cell_length_c                    9.909445
_cell_angle_alpha                 110.909346
_cell_angle_beta                  98.047398
_cell_angle_gamma                 92.558308
_cell_volume                      1094.41972635

loop_
_atom_site_label
_atom_site_type_symbol
_atom_type_description
_atom_site_fract_x
_atom_site_fract_y
_atom_site_fract_z
_atom_type_partial_charge
C1    C     C_R   0.489724 0.254292 0.440838 0.542760
C2    C     C_R   0.737012 0.500408 0.499177 0.523579
C3    C     C_R   0.164823 0.700613 0.726099 -0.105113
C4    C     C_R   0.835310 0.298762 0.274877 -0.134352
C5    C     C_R   0.120091 0.788322 0.844010 -0.089690
C6    C     C_R   0.880056 0.210650 0.157248 -0.105860
C7    C     C_R   0.991966 0.785794 0.846050 0.253714
C8    C     C_R   0.008167 0.213291 0.155048 0.259703
C9    C     C_R   0.910375 0.700296 0.725271 -0.039017
C10   C     C_R   0.089764 0.299260 0.275469 -0.028602
C11   C     C_R   0.953919 0.599438 0.612208 -0.033836
C12   C     C_R   0.508225 0.745656 0.559310 0.544646
C13   C     C_R   0.046181 0.400296 0.388299 -0.032167
C14   C     C_R   0.083808 0.598724 0.613724 0.014595
C15   C     C_R   0.916300 0.400957 0.386847 0.000987
C16   C     C_R   0.870917 0.500864 0.498386 -0.008549
C17   C     C_R   0.129154 0.499043 0.501898 0.001696
C18   C     C_2   0.361737 0.420594 0.834362 0.269033
C19   C     C_2   0.587320 0.638006 0.180720 0.261892
C20   C     C_2   0.480544 0.114699 0.408206 -0.116711
C21   C     C_2   0.512046 0.885206 0.592757 -0.128393
C22   C     C_2   0.494600 0.069687 0.517156 -0.156010
C23   C     C_2   0.485371 0.930430 0.485162 -0.136721
C24   C     C_2   0.501386 0.522201 0.083723 0.124827
C25   C     C_2   0.478298 0.500845 0.922339 0.120440
C26   C     C_R   0.263008 0.499641 0.500883 0.520792
Cu1   Cu    Cu3+1 0.521920 0.521810 0.644910 0.954772
Cu2   Cu    Cu3+1 0.478080 0.478190 0.355090 0.948014
H1    H     H_    0.263662 0.714992 0.726730 0.161514
H2    H     H_    0.461584 0.048243 0.294474 0.134003
H3    H     H_    0.638644 0.602889 0.924999 0.245573
H4    H     H_    0.390589 0.362999 0.065379 0.234167
H5    H     H_    0.987564 0.092280 0.954176 0.350499
H6    H     H_    0.012522 0.906278 0.047180 0.351438
H7    H     H_    0.361689 0.344038 0.729834 0.137267
H8    H     H_    0.656651 0.633986 0.267506 0.154797
H9    H     H_    0.736488 0.284457 0.274448 0.161606
H10   H     H_    0.185277 0.859658 0.932374 0.133720
H11   H     H_    0.814896 0.138967 0.069204 0.131706
H12   H     H_    0.812966 0.714801 0.725087 0.169649
H13   H     H_    0.187209 0.284932 0.275618 0.167702
H14   H     H_    0.457725 0.864486 0.372103 0.206187
H15   H     H_    0.514606 0.135764 0.631076 0.147993
H16   H     H_    0.537975 0.951519 0.706052 0.110431
N1    N     N_2   0.445130 0.445420 0.137360 -0.362618
N2    N     N_2   0.554870 0.554580 0.862640 -0.358759
O1    O     O_R   0.511700 0.332340 0.577400 -0.524283
O2    O     O_3   0.943133 0.865382 0.963823 -0.702467
O3    O     O_2   0.262754 0.439442 0.879862 -0.501216
O4    O     O_2   0.581912 0.741452 0.162629 -0.540443
O5    O     O_R   0.488300 0.667660 0.422600 -0.495734
O6    O     O_R   0.474680 0.295500 0.332650 -0.503811
O7    O     O_R   0.525320 0.704500 0.667350 -0.489850
O8    O     O_R   0.338170 0.518410 0.622370 -0.506363
O9    O     O_R   0.661830 0.481590 0.377630 -0.543260
O10   O     O_R   0.301150 0.481570 0.377630 -0.490753
O11   O     O_R   0.698850 0.518430 0.622370 -0.499739
O12   O     O_3   0.056975 0.133369 0.037455 -0.705384

loop_
_geom_bond_atom_site_label_1
_geom_bond_atom_site_label_2
_ccdc_geom_bond_type
Cu1   O7    S    
H5    O12   S    
Cu2   O6    S    
C3    C14   A    
C21   H16   S    
C2    C16   S    
H4    N1    S    
C23   H14   S    
C12   O7    A    
C19   O4    D    
C13   C17   A    
C19   H8    S    
C7    O2    S    
C4    C15   A    
C21   C23   D    
C19   C24   S    
Cu2   O10   S    
C2    O11   A    
C20   H2    S    
C5    H10   S    
C4    H9    S    
C10   H13   S    
C9    C11   A    
C14   C17   A    
C3    H1    S    
C18   C25   S    
C24   N1    D    
C26   O8    A    
Cu1   N2    S    
C4    C6    A    
Cu2   O5    S    
Cu2   O9    S    
C20   C22   D    
C2    O9    A    
C13   C15   A    
Cu1   O11   S    
C1    O6    A    
Cu2   N1    S    
Cu1   O8    S    
H6    O2    S    
C17   C26   S    
C15   C16   A    
C12   C21   S    
C7    C9    A    
Cu1   Cu2   S    
C12   O5    A    
C24   C25   S    
C18   H7    S    
C8    C10   A    
C11   C16   A    
Cu1   O1    S    
C11   C14   A    
C5    C7    A    
C6    H11   S    
C1    O1    A    
C1    C20   S    
C6    C8    A    
C8    O12   S    
C22   C23   S    
C25   N2    D    
H3    N2    S    
C9    H12   S    
C22   H15   S    
C18   O3    D    
C3    C5    A    
C10   C13   A    
C26   O10   A    
