data_mof_unit_52788.cif
_audit_creation_date              2012-12-10T20:25:39-0500
_audit_creation_method            fapswitch 2.2
_symmetry_space_group_name_H-M    P1
_symmetry_Int_Tables_number       1
_space_group_crystal_system       triclinic
_cell_length_a                    8.60728
_cell_length_b                    10.688541
_cell_length_c                    9.936155
_cell_angle_alpha                 90.472532
_cell_angle_beta                  98.68358
_cell_angle_gamma                 91.42515
_cell_volume                      903.294441044

loop_
_atom_site_label
_atom_site_type_symbol
_atom_type_description
_atom_site_fract_x
_atom_site_fract_y
_atom_site_fract_z
_atom_type_partial_charge
C1    C     C_R   0.497052 0.260606 0.499123 0.877933
C2    C     C_R   0.406231 0.932032 0.389303 -0.152130
C3    C     C_R   0.490061 0.871567 0.501229 -0.072261
C4    C     C_R   0.556748 0.939705 0.616487 -0.079789
C5    C     C_3   0.720217 0.939848 0.696722 0.251682
C6    C     C_3   0.719968 0.082239 0.692109 0.213684
C7    C     C_R   0.383706 0.438223 0.055418 0.059466
C8    C     C_R   0.603229 0.574026 0.086197 0.267853
C9    C     C_R   0.606545 0.570795 0.943233 0.248929
C10   C     C_R   0.384309 0.437344 0.913638 0.142612
C11   C     C_3   0.344348 0.300018 0.904368 0.240897
C12   C     C_R   0.201533 0.495578 0.464657 0.960287
C13   C     C_3   0.340787 0.302534 0.057085 0.129737
C14   C     C_R   0.500097 0.739685 0.500505 0.927571
C15   C     C_R   0.797837 0.492788 0.535824 0.887736
C16   C     C_2   0.036223 0.493352 0.447916 -0.399515
C17   C     C_2   0.961780 0.472574 0.555153 0.311963
C18   C     C_R   0.556822 0.067518 0.614021 -0.036528
C19   C     C_R   0.487755 0.128824 0.498864 -0.056670
C20   C     C_R   0.404720 0.061681 0.388290 -0.202013
H1    H     H_    0.976074 0.517480 0.347814 0.188507
H2    H     H_    0.229836 0.277285 0.839538 0.194190
H3    H     H_    0.430712 0.244568 0.118281 0.146961
H4    H     H_    0.343494 0.108855 0.300735 0.162998
H5    H     H_    0.346361 0.879590 0.302039 0.180767
H6    H     H_    0.721932 0.905601 0.801758 0.165256
H7    H     H_    0.722685 0.127277 0.793592 0.173290
N1    N     N_R   0.498950 0.499140 0.142680 -0.166109
N2    N     N_R   0.498950 0.499180 0.857030 -0.134895
O1    O     O_R   0.500020 0.316790 0.614690 -0.559924
O2    O     O_R   0.500000 0.316760 0.385350 -0.658574
O3    O     O_R   0.271760 0.500010 0.587850 -0.543485
O4    O     O_R   0.271740 0.499970 0.358500 -0.630644
O5    O     O_R   0.500000 0.683240 0.614650 -0.591298
O6    O     O_R   0.499980 0.683210 0.385310 -0.590189
O7    O     O_R   0.728260 0.500030 0.641500 -0.578835
O8    O     O_R   0.728240 0.499990 0.412150 -0.609665
Zn1   Zn    Zn3+2 0.500010 0.500020 0.653130 1.069190
Zn2   Zn    Zn3+2 0.499990 0.499980 0.346870 0.994968
Br1   Br    Br    0.771970 0.661158 0.874893 -0.395522
O9    O     O_3   0.469407 0.230370 0.871821 -0.777005
H8    H     H_    0.432961 0.141514 0.870585 0.333311
O10   O     O_3   0.188031 0.283193 0.086722 -0.743638
H9    H     H_    0.196327 0.290756 0.187146 0.353119
O11   O     O_3   0.038900 0.429925 0.678607 -0.728045
H10   H     H_    0.961993 0.408976 0.740247 0.373153
O12   O     O_3   0.834668 0.884271 0.629453 -0.674602
H11   H     H_    0.808174 0.897847 0.530044 0.348645
O13   O     O_3   0.831855 0.136503 0.618390 -0.716911
H12   H     H_    0.804850 0.112562 0.520785 0.341937
Br2   Br    Br    0.744189 0.687783 0.198762 -0.448397

loop_
_geom_bond_atom_site_label_1
_geom_bond_atom_site_label_2
_ccdc_geom_bond_type
N2    Zn1   S    
C14   O5    A    
C7    C10   A    
O6    Zn2   S    
O10   H9    S    
C16   H1    S    
O3    Zn1   S    
C11   C13   S    
O9    H8    S    
C11   H2    S    
O12   H11   S    
C10   N2    A    
C6    H7    S    
C1    O2    A    
C4    C18   A    
O7    Zn1   S    
C2    C3    A    
C3    C4    A    
O8    Zn2   S    
O11   H10   S    
C12   O3    A    
C9    N2    A    
C5    O12   S    
C8    Br2   S    
O1    Zn1   S    
O4    Zn2   S    
C3    C14   S    
C8    N1    A    
C1    O1    A    
O2    Zn2   S    
C11   O9    S    
C2    H5    S    
C6    O13   S    
C5    C6    S    
C6    C18   S    
C1    C19   S    
C16   C17   D    
C10   C11   S    
C2    C20   A    
C5    H6    S    
C20   H4    S    
C15   O7    A    
C13   O10   S    
C18   C19   A    
C13   H3    S    
O13   H12   S    
C14   O6    A    
C15   C17   S    
C4    C5    S    
C7    C13   S    
C12   C16   S    
N1    Zn2   S    
C12   O4    A    
O5    Zn1   S    
C9    Br1   S    
C15   O8    A    
C7    N1    A    
C19   C20   A    
C17   O11   S    
C8    C9    A    
