data_mof_unit_10345.cif
_audit_creation_date              2012-12-10T17:33:00-0500
_audit_creation_method            fapswitch 2.2
_symmetry_space_group_name_H-M    P1
_symmetry_Int_Tables_number       1
_space_group_crystal_system       triclinic
_cell_length_a                    12.416985
_cell_length_b                    13.254792
_cell_length_c                    14.268432
_cell_angle_alpha                 93.397693
_cell_angle_beta                  107.774021
_cell_angle_gamma                 117.219882
_cell_volume                      1932.99037633

loop_
_atom_site_label
_atom_site_type_symbol
_atom_type_description
_atom_site_fract_x
_atom_site_fract_y
_atom_site_fract_z
_atom_type_partial_charge
C1    C     C_R   0.651062 0.714201 0.509156 0.773562
C2    C     C_R   0.881506 0.547125 0.924732 0.088948
C3    C     C_R   0.836951 0.570643 0.999241 0.170033
C4    C     C_R   0.997587 0.539740 0.954238 0.064150
C5    C     C_R   0.058417 0.541922 0.057002 0.066712
C6    C     C_R   0.012768 0.568368 0.129424 -0.229833
C7    C     C_R   0.904877 0.583525 0.100826 -0.236701
C8    C     C_R   0.055793 0.531815 0.884848 -0.228412
C9    C     C_R   0.164485 0.517711 0.913653 -0.232447
C10   C     C_R   0.217653 0.508795 0.011768 0.165322
C11   C     C_R   0.164218 0.519376 0.084065 0.088906
C12   C     C_R   0.619748 0.518682 0.686847 0.787995
C13   C     C_R   0.324057 0.489389 0.038508 -0.200072
C14   C     C_R   0.377617 0.479400 0.136304 -0.201543
C15   C     C_R   0.216523 0.504094 0.180565 -0.249514
C16   C     C_R   0.128925 0.964049 0.354587 -0.243715
C17   C     C_R   0.246182 0.160719 0.458823 -0.050503
C18   C     C_R   0.735971 0.922340 0.578855 -0.187858
C19   C     C_R   0.828202 0.039395 0.598915 -0.145179
C20   C     C_R   0.926659 0.073473 0.560519 -0.185594
C21   C     C_R   0.931867 0.990428 0.497384 0.091119
C22   C     C_R   0.828286 0.873154 0.467245 0.081371
C23   C     C_R   0.344323 0.284844 0.483343 0.830127
C24   C     C_R   0.035691 0.019991 0.462336 0.073615
C25   C     C_R   0.027459 0.936003 0.389928 0.140470
C26   C     C_R   0.916897 0.825457 0.351963 -0.226240
C27   C     C_R   0.818036 0.794751 0.389101 -0.197554
C28   C     C_R   0.148499 0.130195 0.498307 -0.304380
C29   C     C_R   0.237909 0.076371 0.387701 0.153457
C30   C     C_R   0.736838 0.837956 0.515387 -0.101817
C31   C     C_R   0.253817 0.690335 0.655140 -0.308609
C32   C     C_R   0.651769 0.346979 0.358848 0.087508
C33   C     C_R   0.727068 0.321725 0.318305 -0.264943
C34   C     C_R   0.382716 0.484767 0.313479 0.790896
C35   C     C_R   0.862366 0.382832 0.366100 -0.206766
C36   C     C_R   0.925980 0.466699 0.459121 0.002211
C37   C     C_R   0.843740 0.495172 0.493334 0.290975
C38   C     C_R   0.066483 0.528140 0.516615 -0.080941
C39   C     C_R   0.119043 0.624231 0.598980 0.151662
C40   C     C_R   0.037206 0.653858 0.626749 -0.279545
C41   C     C_R   0.903037 0.589614 0.576584 -0.199619
C42   C     C_R   0.158961 0.498622 0.501002 0.317142
C43   C     C_R   0.338347 0.661236 0.632270 0.014883
C44   C     C_R   0.692408 0.536200 0.794739 -0.049150
C45   C     C_R   0.323882 0.486828 0.207853 -0.051795
C46   C     C_R   0.723935 0.580113 0.971236 -0.203856
C47   C     C_R   0.652499 0.563763 0.869566 -0.196766
C48   C     C_R   0.805422 0.527336 0.822721 -0.261344
Cu1   Cu    Cu3+1 0.416420 0.526630 0.522910 0.944938
Cu2   Cu    Cu3+1 0.583580 0.473370 0.477090 0.931570
H1    H     H_    0.872895 0.603213 0.158623 0.137674
H2    H     H_    0.366270 0.482588 0.983864 0.130841
H3    H     H_    0.906951 0.762095 0.293550 0.136714
H4    H     H_    0.122192 0.899642 0.299109 0.139130
H5    H     H_    0.162878 0.195156 0.557129 0.158959
H6    H     H_    0.665603 0.897583 0.615161 0.150640
H7    H     H_    0.995113 0.165760 0.579712 0.128569
H8    H     H_    0.825865 0.103936 0.647207 0.144635
H9    H     H_    0.732270 0.709619 0.353730 0.170301
H10   H     H_    0.442420 0.713044 0.674942 0.128740
H11   H     H_    0.173734 0.503416 0.235738 0.142541
H12   H     H_    0.077385 0.726841 0.689860 0.155235
H13   H     H_    0.293800 0.764521 0.716985 0.145981
H14   H     H_    0.546883 0.301284 0.319892 0.147234
H15   H     H_    0.912237 0.365587 0.324080 0.143856
H16   H     H_    0.680680 0.256975 0.247774 0.146973
H17   H     H_    0.849017 0.618649 0.604497 0.205798
H18   H     H_    0.461316 0.466794 0.156008 0.150740
H19   H     H_    0.206052 0.512112 0.858174 0.146598
H20   H     H_    0.690295 0.599335 0.028018 0.130307
H21   H     H_    0.565586 0.571484 0.849591 0.150959
H22   H     H_    0.830240 0.501339 0.763216 0.157231
H23   H     H_    0.060464 0.581366 0.209669 0.143981
H24   H     H_    0.022061 0.539714 0.808049 0.153066
N1    N     N_R   0.290690 0.566960 0.557640 -0.169269
N2    N     N_R   0.709100 0.433710 0.442970 -0.208796
O1    O     O_R   0.545970 0.684450 0.528810 -0.580113
O2    O     O_R   0.687130 0.639470 0.490120 -0.601129
O3    O     O_R   0.519670 0.535100 0.660030 -0.584735
O4    O     O_R   0.660830 0.490120 0.621340 -0.602202
O5    O     O_R   0.312870 0.360530 0.509880 -0.557088
O6    O     O_R   0.454030 0.315550 0.471190 -0.551591
O7    O     O_R   0.339170 0.509880 0.378660 -0.572368
O8    O     O_R   0.480330 0.464900 0.339970 -0.599196
N3    N     N_3   0.336677 0.105171 0.345885 -0.589197
H25   H     H_    0.292647 0.089908 0.267352 0.206637
H26   H     H_    0.373760 0.048636 0.360686 0.220822
N4    N     N_3   0.118682 0.393012 0.433849 -0.541418
H27   H     H_    0.102138 0.403033 0.359753 0.199422
H28   H     H_    0.041091 0.321773 0.442756 0.200648

loop_
_geom_bond_atom_site_label_1
_geom_bond_atom_site_label_2
_ccdc_geom_bond_type
C23   O6    A    
C1    O1    A    
C19   C20   A    
C4    C8    A    
Cu2   O8    S    
C41   H17   S    
N3    H25   S    
C42   N1    A    
C17   C23   S    
C31   C43   A    
C36   C37   A    
C9    H19   S    
C5    C11   A    
C3    C7    A    
C38   C39   A    
C35   H15   S    
C12   O3    A    
C40   H12   S    
C18   C19   A    
Cu1   O5    S    
C11   C15   A    
C35   C36   A    
Cu1   O1    S    
C8    C9    A    
Cu1   N1    S    
C18   C30   A    
C23   O5    A    
C9    C10   A    
C29   N3    S    
C44   C47   A    
C18   H6    S    
C21   C22   A    
C1    O2    A    
C34   O8    A    
C48   H22   S    
Cu2   O2    S    
C28   H5    S    
C33   H16   S    
C14   C45   A    
N3    H26   S    
C19   H8    S    
C43   N1    A    
C31   H13   S    
C24   C25   A    
C32   H14   S    
C39   C40   A    
C2    C48   A    
C25   C26   A    
Cu1   O3    S    
C2    C4    A    
Cu2   N2    S    
C13   H2    S    
C8    H24   S    
C15   H11   S    
C34   C45   S    
C20   C21   A    
C47   H21   S    
C43   H10   S    
C40   C41   A    
C37   N2    A    
N4    H28   S    
C22   C27   A    
C26   C27   A    
C42   N4    S    
C34   O7    A    
C15   C45   A    
C26   H3    S    
Cu2   O6    S    
C6    H23   S    
C16   C25   A    
C46   C47   A    
C22   C30   A    
C17   C28   A    
C24   C28   A    
C4    C5    A    
C10   C13   A    
Cu2   O4    S    
C32   N2    A    
C38   C42   A    
C6    C7    A    
C3    C46   A    
C32   C33   A    
Cu1   O7    S    
C36   C38   A    
C2    C3    A    
C16   C29   A    
C7    H1    S    
C12   C44   S    
C27   H9    S    
C17   C29   A    
C5    C6    A    
C12   O4    A    
C1    C30   S    
C33   C35   A    
C31   C39   A    
C37   C41   A    
C16   H4    S    
C46   H20   S    
C10   C11   A    
N4    H27   S    
Cu1   Cu2   S    
C21   C24   A    
C14   H18   S    
C20   H7    S    
C13   C14   A    
C44   C48   A    
