data_mof_unit_7575.cif
_audit_creation_date              2012-12-11T14:29:35-0500
_audit_creation_method            fapswitch 2.2
_symmetry_space_group_name_H-M    P1
_symmetry_Int_Tables_number       1
_space_group_crystal_system       triclinic
_cell_length_a                    6.935275
_cell_length_b                    14.704512
_cell_length_c                    16.304304
_cell_angle_alpha                 90.361034
_cell_angle_beta                  89.559182
_cell_angle_gamma                 90.06507
_cell_volume                      1662.62702139

loop_
_atom_site_label
_atom_site_type_symbol
_atom_type_description
_atom_site_fract_x
_atom_site_fract_y
_atom_site_fract_z
_atom_type_partial_charge
O1    O     O_R   0.494400 0.416610 0.413880 -0.543010
O2    O     O_R   0.823920 0.406790 0.585520 -0.544659
O3    O     O_R   0.994250 0.583390 0.586120 -0.541462
C1    C     C_R   0.654174 0.386000 0.614210 0.761674
O4    O     O_R   0.824110 0.405730 0.414490 -0.541728
O5    O     O_R   0.994440 0.582310 0.413870 -0.538120
C2    C     C_R   0.655183 0.383707 0.386294 0.741700
O6    O     O_R   0.494210 0.417690 0.586130 -0.540076
O7    O     O_3   0.660810 0.557940 0.500000 -0.370262
V1    V     V_3+5 0.935650 0.489250 0.500000 1.401977
O8    O     O_R   0.324160 0.593210 0.414480 -0.549566
C3    C     C_R   0.156186 0.612719 0.384544 0.729056
O9    O     O_R   0.323970 0.594270 0.585510 -0.534027
C4    C     C_R   0.153970 0.617130 0.613302 0.688976
V2    V     V_3+5 0.435660 0.510750 0.500000 1.408192
O10   O     O_3   0.160630 0.442060 0.500000 -0.373050
H1    H     H_    0.436059 0.917312 0.530363 0.115362
C5    C     C_R   0.985312 0.572202 0.770030 -0.143480
C6    C     C_R   0.901104 0.547702 0.844494 -0.132211
C7    C     C_R   0.890379 0.610084 0.908474 -0.118120
C8    C     C_R   0.963324 0.697514 0.898426 -0.135408
C9    C     C_R   0.044813 0.725521 0.822672 0.071001
C10   C     C_R   0.055540 0.661694 0.756671 0.075693
C11   C     C_R   0.123375 0.813913 0.813537 -0.177203
C12   C     C_R   0.213710 0.838194 0.738169 0.053211
C13   C     C_R   0.202677 0.778967 0.668379 0.030694
C14   C     C_R   0.136216 0.687536 0.679555 -0.188465
C15   C     C_R   0.312096 0.922257 0.730113 -0.151758
C16   C     C_R   0.403852 0.945722 0.657484 -0.174277
C17   C     C_R   0.377386 0.893054 0.587975 -0.102954
C18   C     C_R   0.258463 0.815809 0.590358 0.143502
H2    H     H_    0.994210 0.519597 0.723637 0.119118
H3    H     H_    0.845058 0.479636 0.852849 0.120297
H4    H     H_    0.827495 0.590281 0.966669 0.114487
H5    H     H_    0.957327 0.741959 0.951406 0.111899
H6    H     H_    0.323337 0.970987 0.779443 0.130369
H7    H     H_    0.485409 0.008434 0.653736 0.122644
C19   C     C_2   0.986429 0.705725 0.280443 -0.136083
C20   C     C_2   0.151641 0.679154 0.316567 -0.304555
H8    H     H_    0.850545 0.677381 0.301848 0.137740
H9    H     H_    0.289445 0.706384 0.297031 0.127324
C21   C     C_2   0.973136 0.773392 0.212686 -0.144045
C22   C     C_2   0.125703 0.814218 0.176870 -0.307540
H10   H     H_    0.829102 0.789837 0.191757 0.134996
H11   H     H_    0.270809 0.798668 0.196294 0.130874
C23   C     C_2   0.787438 0.223513 0.790729 0.155620
C24   C     C_2   0.624672 0.177305 0.813791 -0.383933
H12   H     H_    0.495529 0.183218 0.777147 0.128200
C25   C     C_2   0.790554 0.277834 0.713390 -0.135885
C26   C     C_2   0.638905 0.324615 0.685348 -0.365778
H13   H     H_    0.926157 0.283163 0.680234 0.152504
H14   H     H_    0.501864 0.322023 0.717567 0.140157
C27   C     C_2   0.778614 0.209012 0.213510 -0.130716
C28   C     C_2   0.613343 0.181798 0.177455 -0.313490
H15   H     H_    0.914508 0.180445 0.192180 0.137234
H16   H     H_    0.475693 0.209620 0.196679 0.127509
C29   C     C_2   0.791697 0.277310 0.281469 -0.137103
C30   C     C_2   0.638683 0.315589 0.319490 -0.309202
H17   H     H_    0.935861 0.296039 0.300964 0.134471
H18   H     H_    0.493465 0.297512 0.301716 0.129535
O11   O     O_R   0.770210 0.079270 0.910680 -0.544643
O12   O     O_R   0.440150 0.091160 0.082270 -0.544690
O13   O     O_R   0.269970 0.914530 0.082860 -0.540213
C31   C     C_R   0.608489 0.113294 0.110498 0.742371
O14   O     O_R   0.440480 0.090100 0.911240 -0.544678
O15   O     O_R   0.270310 0.913460 0.910610 -0.539524
C32   C     C_R   0.611147 0.112907 0.883736 0.735685
O16   O     O_R   0.769870 0.080340 0.082930 -0.539366
O17   O     O_3   0.603660 0.938980 0.996790 -0.366886
V3    V     V_3+5 0.328750 0.007610 0.996740 1.392985
O18   O     O_R   0.940600 0.902510 0.911180 -0.538730
C33   C     C_R   0.110316 0.881225 0.882346 0.692751
O19   O     O_R   0.940270 0.903570 0.082200 -0.542580
C34   C     C_R   0.109141 0.881698 0.110246 0.740542
V4    V     V_3+5 0.828770 0.986010 0.996670 1.402342
O20   O     O_3   0.103730 0.054750 0.996710 -0.378296
C35   C     C_3   0.971965 0.218723 0.841342 -0.267833
C36   C     C_3   0.127666 0.288295 0.819100 -0.825268
H19   H     H_    0.191675 0.271942 0.758292 0.212021
H20   H     H_    0.067322 0.358085 0.818742 0.233374
H21   H     H_    0.244721 0.285875 0.865139 0.226428
H22   H     H_    0.934544 0.230982 0.906922 0.179953
H23   H     H_    0.036608 0.149930 0.834640 0.190710
C37   C     C_3   0.172339 0.786539 0.509142 -0.361280
C38   C     C_3   0.065498 0.864517 0.467227 -0.768050
H24   H     H_    0.959699 0.895932 0.510359 0.231884
H25   H     H_    0.167450 0.917313 0.445098 0.221124
H26   H     H_    0.985904 0.837981 0.413338 0.228852
H27   H     H_    0.290008 0.761983 0.468295 0.177875
H28   H     H_    0.062308 0.733228 0.516369 0.185292

loop_
_geom_bond_atom_site_label_1
_geom_bond_atom_site_label_2
_ccdc_geom_bond_type
O18   V4    S    
O19   C34   A    
C6    C7    A    
C1    O6    A    
C20   H9    S    
C27   C28   D    
O11   V4    S    
O16   V4    S    
C23   C25   S    
C13   C14   A    
C37   H28   S    
C31   O16   A    
C15   C16   A    
C19   C21   S    
O5    C3    A    
C17   C18   A    
C36   H20   S    
C29   H17   S    
C35   H23   S    
C30   H18   S    
O14   V3    S    
O12   V3    S    
C5    C6    A    
O12   C31   A    
O8    V2    S    
O15   C33   A    
O14   C32   A    
C26   H14   S    
O1    V2    S    
C10   C14   A    
C4    C14   S    
O7    V1    S    
C2    C30   S    
C7    H4    S    
C22   C34   S    
C38   H25   S    
C13   C18   A    
C8    C9    A    
H1    C17   S    
O19   V4    S    
C21   H10   S    
C24   C32   S    
C27   H15   S    
C19   C20   D    
C28   H16   S    
C5    C10   A    
C11   C12   A    
C6    H3    S    
O4    C2    A    
C27   C29   S    
C36   H19   S    
C25   H13   S    
C12   C13   A    
C35   C36   S    
C18   C37   S    
C1    C26   S    
C12   C15   A    
O2    C1    A    
V4    O20   S    
C16   C17   A    
O11   C32   A    
C24   H12   S    
O13   V3    S    
C37   C38   S    
C22   H11   S    
C38   H24   S    
O3    C4    A    
O6    V2    S    
O9    V2    S    
V3    O20   S    
C9    C11   A    
C5    H2    S    
C21   C22   D    
O2    V1    S    
C11   C33   S    
C38   H26   S    
C23   C24   D    
O1    C2    A    
O5    V1    S    
C23   C35   S    
O8    C3    A    
C8    H5    S    
O13   C34   A    
C3    C20   S    
O7    V2    S    
O18   C33   A    
O3    V1    S    
V1    O10   S    
C19   H8    S    
C36   H21   S    
C29   C30   D    
O15   V3    S    
C28   C31   S    
C35   H22   S    
O17   V4    S    
O17   V3    S    
O4    V1    S    
C7    C8    A    
C15   H6    S    
C25   C26   D    
C37   H27   S    
C16   H7    S    
C9    C10   A    
O9    C4    A    
V2    O10   S    
