data_mof_unit_46578.cif
_audit_creation_date              2012-12-10T19:11:05-0500
_audit_creation_method            fapswitch 2.2
_symmetry_space_group_name_H-M    P1
_symmetry_Int_Tables_number       1
_space_group_crystal_system       triclinic
_cell_length_a                    10.976522
_cell_length_b                    9.065591
_cell_length_c                    7.943059
_cell_angle_alpha                 89.79726
_cell_angle_beta                  88.218169
_cell_angle_gamma                 89.946099
_cell_volume                      790.015748108

loop_
_atom_site_label
_atom_site_type_symbol
_atom_type_description
_atom_site_fract_x
_atom_site_fract_y
_atom_site_fract_z
_atom_type_partial_charge
C1    C     C_R   0.501682 0.220793 0.500173 0.836942
C2    C     C_R   0.259395 0.504185 0.501806 0.909876
C3    C     C_R   0.740284 0.499804 0.496933 0.898446
C4    C     C_R   0.501067 0.779345 0.499949 0.753672
C5    C     C_1   0.504187 0.065820 0.500454 -0.189507
C6    C     C_3   0.069124 0.380185 0.625908 0.705230
C7    C     C_3   0.074746 0.466098 0.314359 0.631367
C8    C     C_3   0.925682 0.371314 0.604708 0.628166
C9    C     C_3   0.932066 0.480483 0.305750 0.705435
C10   C     C_1   0.504566 0.934736 0.500155 -0.239798
C11   C     C_3   0.066962 0.665322 0.574222 0.714027
C12   C     C_3   0.921599 0.668740 0.552635 0.712451
C13   C     C_3   0.120559 0.508499 0.502900 -0.466210
C14   C     C_3   0.878608 0.506699 0.490357 -0.430418
Cu1   Cu    Cu3+1 0.500000 0.500010 0.669080 0.988950
Cu2   Cu    Cu3+1 0.500000 0.500010 0.330920 0.971075
N1    N     N_1   0.500000 0.499970 0.076820 -0.079076
N2    N     N_1   0.500000 0.499970 0.923180 -0.071856
O1    O     O_R   0.500000 0.288400 0.642760 -0.599189
O2    O     O_R   0.500000 0.288400 0.357240 -0.577632
O3    O     O_R   0.317700 0.499990 0.642790 -0.557162
O4    O     O_R   0.317700 0.499990 0.357210 -0.592982
O5    O     O_R   0.682300 0.499990 0.642790 -0.524700
O6    O     O_R   0.682300 0.499990 0.357210 -0.577461
O7    O     O_R   0.500000 0.711620 0.642810 -0.590670
O8    O     O_R   0.500000 0.711620 0.357190 -0.594171
O9    O     O_3   0.095195 0.413202 0.798117 -0.532464
C15   C     C_3   0.178564 0.316286 0.876799 -0.123969
H1    H     H_    0.252423 0.272535 0.792373 0.163910
H2    H     H_    0.128263 0.224075 0.939399 0.125235
H3    H     H_    0.228779 0.377359 0.972108 0.222597
O10   O     O_3   0.130330 0.532522 0.167253 -0.575281
C16   C     C_3   0.161284 0.681838 0.165092 -0.131862
H4    H     H_    0.238056 0.706268 0.243534 0.179368
H5    H     H_    0.081982 0.755611 0.184711 0.233664
H6    H     H_    0.203158 0.703140 0.040089 0.184298
O11   O     O_3   0.865481 0.375417 0.766927 -0.578239
C17   C     C_3   0.833613 0.234919 0.834391 -0.262154
H7    H     H_    0.914869 0.162990 0.845851 0.148497
H8    H     H_    0.761773 0.180582 0.761573 0.156542
H9    H     H_    0.790198 0.248885 0.960538 0.180817
O12   O     O_3   0.902017 0.604919 0.206220 -0.627054
C18   C     C_3   0.844215 0.576475 0.054940 -0.077638
H10   H     H_    0.916107 0.554570 0.958769 0.293127
H11   H     H_    0.792984 0.675302 0.021280 0.156351
H12   H     H_    0.772633 0.490535 0.062390 0.203171
O13   O     O_3   0.122470 0.242990 0.578054 -0.724253
H13   H     H_    0.083631 0.163602 0.647207 0.326380
O14   O     O_3   0.101187 0.314745 0.289986 -0.669879
H14   H     H_    0.189692 0.301840 0.265500 0.352874
O15   O     O_3   0.899483 0.236278 0.522198 -0.692652
H15   H     H_    0.810911 0.231213 0.501527 0.321801
O16   O     O_3   0.882027 0.348835 0.240308 -0.717494
H16   H     H_    0.927957 0.323643 0.134808 0.358959
O17   O     O_3   0.095289 0.681816 0.748800 -0.535583
C19   C     C_3   0.071807 0.824589 0.817604 -0.230556
H17   H     H_    0.008278 0.815115 0.927749 0.186029
H18   H     H_    0.034835 0.905547 0.728688 0.180058
H19   H     H_    0.157539 0.873698 0.861581 0.110228
O18   O     O_3   0.117157 0.785313 0.475914 -0.601969
C20   C     C_3   0.227080 0.849033 0.527621 -0.274672
H20   H     H_    0.277849 0.779035 0.615189 0.190777
H21   H     H_    0.209498 0.957907 0.585745 0.185752
H22   H     H_    0.283387 0.876045 0.414411 0.161091
O19   O     O_3   0.860917 0.696930 0.712584 -0.589084
C21   C     C_3   0.803267 0.836583 0.737031 -0.334116
H23   H     H_    0.806117 0.869259 0.870706 0.135522
H24   H     H_    0.705715 0.829520 0.708296 0.190833
H25   H     H_    0.848098 0.929590 0.669721 0.192841
O20   O     O_3   0.905245 0.786942 0.430887 -0.547547
C22   C     C_3   0.787772 0.828837 0.381368 -0.139842
H26   H     H_    0.769214 0.944553 0.418878 0.144472
H27   H     H_    0.717335 0.758380 0.433690 0.137400
H28   H     H_    0.783548 0.830470 0.242725 0.178909

loop_
_geom_bond_atom_site_label_1
_geom_bond_atom_site_label_2
_ccdc_geom_bond_type
C2    O4    A    
C22   H28   S    
C21   H24   S    
C9    C14   S    
O15   H15   S    
O20   C22   S    
C7    O10   S    
C20   H22   S    
C18   H11   S    
C12   O19   S    
Cu1   N2    S    
C3    O5    A    
C6    O9    S    
C19   H19   S    
Cu2   O2    S    
C11   C12   S    
C22   H26   S    
O10   C16   S    
O17   C19   S    
Cu1   O5    S    
C16   H4    S    
C9    O12   S    
C5    C10   T    
Cu2   O6    S    
C20   H21   S    
O16   H16   S    
C6    C13   S    
Cu1   O1    S    
C11   C13   S    
C8    O15   S    
C3    O6    A    
O11   C17   S    
C3    C14   S    
C2    O3    A    
C1    C5    S    
C6    C8    S    
C15   H2    S    
C15   H1    S    
C17   H8    S    
C12   C14   S    
C4    O7    A    
C7    C9    S    
C18   H10   S    
Cu2   O8    S    
C20   H20   S    
C18   H12   S    
C8    C14   S    
C4    O8    A    
Cu1   O7    S    
C21   H25   S    
C9    O16   S    
O12   C18   S    
C4    C10   S    
C11   O18   S    
O13   H13   S    
C6    O13   S    
Cu1   O3    S    
C16   H6    S    
C11   O17   S    
C19   H17   S    
C7    O14   S    
C17   H9    S    
N1    N2    T    
O19   C21   S    
C8    O11   S    
C22   H27   S    
C21   H23   S    
O14   H14   S    
C2    C13   S    
C12   O20   S    
O18   C20   S    
C1    O2    A    
Cu2   O4    S    
C7    C13   S    
C16   H5    S    
C1    O1    A    
C15   H3    S    
Cu1   Cu2   S    
C19   H18   S    
Cu2   N1    S    
O9    C15   S    
C17   H7    S    
