data_mof_unit_51316.cif
_audit_creation_date              2013-03-05T16:02:59-0500
_audit_creation_method            fapswitch 2.2
_symmetry_space_group_name_H-M    P1
_symmetry_Int_Tables_number       1
_space_group_crystal_system       triclinic
_cell_length_a                    14.89981
_cell_length_b                    14.177667
_cell_length_c                    10.651285
_cell_angle_alpha                 90.229871
_cell_angle_beta                  88.560109
_cell_angle_gamma                 89.952819
_cell_volume                      2249.29630984

loop_
_atom_site_label
_atom_site_type_symbol
_atom_site_description
_atom_site_fract_x
_atom_site_fract_y
_atom_site_fract_z
_atom_type_partial_charge
O1    O     O_R   0.367850 0.580280 0.500030 -0.586732
O2    O     O_R   0.632150 0.419720 0.499970 -0.586731
O3    O     O_R   0.632150 0.580280 0.499970 -0.578370
O4    O     O_R   0.367850 0.419720 0.500030 -0.578372
C1    C     C_R   0.327551 0.500004 0.498518 0.875124
C2    C     C_R   0.672449 0.499996 0.501482 0.875126
O5    O     O_R   0.499970 0.580260 0.313950 -0.594631
O6    O     O_R   0.500030 0.419740 0.686050 -0.594613
O7    O     O_R   0.500030 0.580260 0.686050 -0.598501
O8    O     O_R   0.499970 0.419740 0.313950 -0.598496
C3    C     C_R   0.498480 0.499867 0.258066 0.911830
C4    C     C_R   0.501520 0.500133 0.741934 0.911835
Zn1   Zn    Zn3+2 0.500000 0.607200 0.500000 1.044421
Zn2   Zn    Zn3+2 0.500000 0.392800 0.500000 1.044428
C5    C     C_3   0.454057 0.575205 0.042100 0.014379
C6    C     C_3   0.545942 0.424796 0.957899 0.014382
C7    C     C_3   0.539841 0.578931 0.959429 0.062006
C8    C     C_3   0.460158 0.421070 0.040571 0.062008
C9    C     C_3   0.416238 0.496506 0.959415 0.089899
C10   C     C_3   0.583761 0.503495 0.040585 0.089886
C11   C     C_3   0.502016 0.500253 0.875767 -0.086073
C12   C     C_3   0.497982 0.499748 0.124233 -0.086082
C13   C     C_R   0.813616 0.514930 0.393429 -0.135551
C14   C     C_R   0.186384 0.485070 0.606571 -0.135551
C15   C     C_R   0.767447 0.500148 0.505147 -0.083756
C16   C     C_R   0.232552 0.499852 0.494853 -0.083756
C17   C     C_R   0.810634 0.486096 0.618350 0.060894
C18   C     C_R   0.189366 0.513904 0.381650 0.060894
C19   C     C_R   0.905221 0.487584 0.618503 0.119211
C20   C     C_R   0.094779 0.512416 0.381497 0.119211
C21   C     C_R   0.953002 0.500256 0.502109 -0.058694
C22   C     C_R   0.046998 0.499745 0.497891 -0.058694
C23   C     C_R   0.906483 0.513639 0.389630 0.105501
C24   C     C_R   0.093517 0.486361 0.610370 0.105500
C25   C     C_R   0.953286 0.477447 0.730437 0.076329
C26   C     C_R   0.046713 0.522554 0.269563 0.076329
C27   C     C_R   0.047420 0.476075 0.725590 0.045002
C28   C     C_R   0.952580 0.523925 0.274410 0.045001
H1    H     H_    0.775738 0.526178 0.309194 0.189635
H2    H     H_    0.224262 0.473822 0.690806 0.189635
C29   C     C_R   0.563694 0.797576 0.430537 0.334588
C30   C     C_R   0.436306 0.202424 0.569463 0.334594
C31   C     C_R   0.436216 0.798117 0.569228 0.340212
C32   C     C_R   0.563784 0.201882 0.430771 0.340215
N1    N     N_R   0.500000 0.750030 0.500000 -0.228714
N2    N     N_R   0.500000 0.249970 0.500000 -0.228713
C33   C     C_R   0.437128 0.899048 0.575987 -0.081497
C34   C     C_R   0.562872 0.100952 0.424012 -0.081497
C35   C     C_R   0.562806 0.898482 0.423858 -0.080975
C36   C     C_R   0.437194 0.101518 0.576142 -0.080976
C37   C     C_R   0.499988 0.949426 0.499968 -0.036439
C38   C     C_R   0.500012 0.050574 0.500032 -0.036440
C39   C     C_R   0.378185 0.950670 0.657632 0.080593
C40   C     C_R   0.621815 0.049329 0.342368 0.080593
C41   C     C_R   0.621755 0.949536 0.342253 0.079105
C42   C     C_R   0.378245 0.050464 0.657748 0.079106
N3    N     N_3   0.325131 0.491673 0.913488 -0.412683
H3    H     H_    0.281513 0.491754 0.991843 0.216890
H4    H     H_    0.313184 0.554063 0.864832 0.219039
N4    N     N_3   0.674868 0.508328 0.086511 -0.412681
H5    H     H_    0.718486 0.508244 0.008157 0.216887
H6    H     H_    0.686814 0.445939 0.135171 0.219030
N5    N     N_3   0.403189 0.656465 0.088540 -0.455796
H7    H     H_    0.379958 0.692519 0.010409 0.219333
H8    H     H_    0.448138 0.701578 0.132554 0.224348
N6    N     N_3   0.596809 0.343536 0.911456 -0.455791
H9    H     H_    0.620075 0.307504 0.989582 0.219331
H10   H     H_    0.551853 0.298405 0.867491 0.224340
N7    N     N_3   0.584628 0.664104 0.914546 -0.438716
H11   H     H_    0.605890 0.701179 0.993345 0.229983
H12   H     H_    0.536367 0.706132 0.872443 0.223226
N8    N     N_3   0.415371 0.335896 0.085455 -0.438718
H13   H     H_    0.394105 0.298823 0.006656 0.229981
H14   H     H_    0.463633 0.293867 0.127553 0.223230
N9    N     N_3   0.758129 0.470190 0.731419 -0.428202
H15   H     H_    0.719269 0.409600 0.719653 0.216425
H16   H     H_    0.715301 0.527763 0.747004 0.187573
N10   N     N_3   0.241871 0.529811 0.268581 -0.428199
H17   H     H_    0.284699 0.472237 0.252996 0.187572
H18   H     H_    0.280732 0.590400 0.280347 0.216424
N11   N     N_3   0.906992 0.472261 0.849653 -0.434806
H19   H     H_    0.925902 0.530439 0.903117 0.175886
H20   H     H_    0.924743 0.409804 0.894495 0.185032
N12   N     N_3   0.093008 0.527740 0.150347 -0.434804
H21   H     H_    0.075256 0.590197 0.105505 0.185034
H22   H     H_    0.074098 0.469562 0.096883 0.175885
N13   N     N_3   0.097256 0.467622 0.838454 -0.464876
H23   H     H_    0.078400 0.405714 0.884931 0.195018
H24   H     H_    0.082711 0.526261 0.894816 0.179517
N14   N     N_3   0.902744 0.532378 0.161546 -0.464876
H25   H     H_    0.917290 0.473740 0.105183 0.179516
H26   H     H_    0.921599 0.594287 0.115070 0.195019
N15   N     N_R   0.633804 0.744278 0.369703 0.251105
O9    O     O_R   0.713785 0.744745 0.416094 -0.388189
O10   O     O_R   0.622595 0.710328 0.257607 -0.405994
N16   N     N_R   0.366196 0.255721 0.630298 0.251104
O11   O     O_R   0.377406 0.289671 0.742395 -0.405992
O12   O     O_R   0.286216 0.255256 0.583908 -0.388191
N17   N     N_R   0.366042 0.745309 0.629812 0.251310
O13   O     O_R   0.286149 0.745497 0.583137 -0.391823
O14   O     O_R   0.377151 0.711988 0.741886 -0.437326
N18   N     N_R   0.633957 0.254691 0.370186 0.251310
O15   O     O_R   0.622846 0.288010 0.258111 -0.437328
O16   O     O_R   0.713850 0.254504 0.416860 -0.391823
N19   N     N_3   0.320030 0.902070 0.745276 -0.380716
H27   H     H_    0.336471 0.920720 0.836868 0.176351
H28   H     H_    0.253374 0.920396 0.729166 0.206181
N20   N     N_3   0.679970 0.097930 0.254724 -0.380715
H29   H     H_    0.746626 0.079604 0.270834 0.206180
H30   H     H_    0.663529 0.079280 0.163132 0.176352
N21   N     N_3   0.679789 0.900344 0.254412 -0.380414
H31   H     H_    0.663294 0.918612 0.162890 0.176719
H32   H     H_    0.746482 0.918540 0.270456 0.206804
N22   N     N_3   0.320212 0.099656 0.745589 -0.380414
H33   H     H_    0.253518 0.081460 0.729544 0.206803
H34   H     H_    0.336706 0.081388 0.837110 0.176718

loop_
_geom_bond_atom_site_label_1
_geom_bond_atom_site_label_2
_geom_bond_distance
_ccdc_geom_bond_type
N6    H10   1.044730 S    
N13   H23   1.044644 S    
N5    H8    1.044742 S    
C7    N7    1.456714 S    
C6    C11   1.540539 S    
C17   C19   1.409550 A    
C24   C27   1.399423 A    
N21   H31   1.044852 S    
O3    C2    1.286818 A    
N11   H19   1.043406 S    
C25   N11   1.431925 S    
Zn2   N2    2.024998 S    
C9    N3    1.456015 S    
C34   C40   1.420785 A    
N19   H28   1.044906 S    
N15   O9    1.301503 A    
C30   N16   1.429274 S    
C25   C27   1.402339 A    
C31   N17   1.428796 S    
N7    H11   1.044606 S    
N10   H18   1.045222 S    
N3    H4    1.044386 S    
C2    C15   1.416983 S    
C7    C10   1.534273 S    
N20   H29   1.044907 S    
N4    H6    1.044386 S    
C8    C9    1.534275 S    
C30   N2    1.368299 A    
N7    H12   1.044452 S    
O7    Zn1   2.019659 S    
C5    C9    1.534994 S    
C5    C12   1.540541 S    
C29   N15   1.429274 S    
N17   O13   1.301514 A    
C13   C23   1.383376 A    
N16   O12   1.301503 A    
C36   C38   1.418090 A    
C21   C23   1.412467 A    
C10   N4    1.456014 S    
C18   N10   1.438193 S    
O3    Zn1   2.005342 S    
C6    C10   1.534995 S    
C33   C39   1.420785 A    
N6    H9    1.044608 S    
N15   O10   1.300258 A    
O2    C2    1.287471 A    
C17   N9    1.438191 S    
C29   C35   1.432733 A    
N11   H20   1.044762 S    
C32   N2    1.367991 A    
N22   H33   1.044908 S    
C8    N8    1.456713 S    
C37   C38   1.434038 A    
N12   H21   1.044763 S    
N8    H14   1.044451 S    
O8    Zn2   2.019660 S    
C32   N18   1.428796 S    
N10   H17   1.045834 S    
O4    C1    1.286818 A    
C33   C37   1.417968 A    
C35   C37   1.418090 A    
C35   C41   1.420780 A    
C4    C11   1.425697 S    
C14   C24   1.383376 A    
C1    C16   1.416983 S    
N4    H5    1.044805 S    
C22   C24   1.412468 A    
O5    C3    1.284192 A    
N9    H15   1.045222 S    
N9    H16   1.045833 S    
N14   H26   1.044645 S    
C21   C22   1.400130 A    
C34   C38   1.417969 A    
O6    C4    1.284193 A    
N16   O11   1.300258 A    
N21   H32   1.044906 S    
N18   O16   1.301514 A    
C31   N1    1.367991 A    
C30   C36   1.432732 A    
C42   N22   1.436171 S    
N17   O14   1.299958 A    
C10   C12   1.540588 S    
N13   H24   1.042915 S    
O1    C1    1.287471 A    
O1    Zn1   2.005961 S    
N14   H25   1.042914 S    
Zn1   N1    2.024996 S    
C39   C42   1.414830 A    
C5    C7    1.534857 S    
C28   N14   1.434140 S    
C40   C41   1.414831 A    
O6    Zn2   2.016650 S    
C41   N21   1.436172 S    
C8    C12   1.540862 S    
C27   N13   1.434141 S    
C14   C16   1.376299 A    
N8    H13   1.044607 S    
N22   H34   1.044852 S    
C20   C26   1.413895 A    
C15   C17   1.395822 A    
N19   H27   1.044849 S    
C19   C25   1.413896 A    
C3    C12   1.425698 S    
C16   C18   1.395821 A    
C23   C28   1.399424 A    
C40   N20   1.436165 S    
C18   C20   1.409550 A    
C19   C21   1.426084 A    
C29   N1    1.368298 A    
C20   C22   1.426084 A    
N3    H3    1.044805 S    
C26   N12   1.431925 S    
C13   H1    1.084148 S    
C26   C28   1.402339 A    
C14   H2    1.084148 S    
N20   H30   1.044849 S    
C13   C15   1.376299 A    
O4    Zn2   2.005343 S    
N18   O15   1.299958 A    
O2    Zn2   2.005959 S    
O7    C4    1.285060 A    
C36   C42   1.420781 A    
O8    C3    1.285061 A    
N5    H7    1.044623 S    
C39   N19   1.436165 S    
O5    Zn1   2.016651 S    
C6    N6    1.456562 S    
C6    C8    1.534857 S    
C5    N5    1.456560 S    
N12   H22   1.043407 S    
C31   C33   1.432572 A    
C32   C34   1.432570 A    
C9    C11   1.540585 S    
C7    C11   1.540861 S    
