data_mof_unit_56431.cif
_audit_creation_date              2012-12-10T18:47:01-0500
_audit_creation_method            fapswitch 2.2
_symmetry_space_group_name_H-M    P1
_symmetry_Int_Tables_number       1
_space_group_crystal_system       triclinic
_cell_length_a                    10.715717
_cell_length_b                    9.831906
_cell_length_c                    14.98633
_cell_angle_alpha                 90.207856
_cell_angle_beta                  89.934456
_cell_angle_gamma                 89.933099
_cell_volume                      1578.88611173

loop_
_atom_site_label
_atom_site_type_symbol
_atom_type_description
_atom_site_fract_x
_atom_site_fract_y
_atom_site_fract_z
_atom_type_partial_charge
C1    C     C_R   0.259848 0.500047 0.499955 0.859995
C2    C     C_R   0.740152 0.499953 0.500045 0.859995
C3    C     C_R   0.354039 0.307095 0.041818 -0.225642
C4    C     C_R   0.645961 0.692905 0.958182 -0.225642
C5    C     C_R   0.064071 0.378139 0.484445 -0.201159
C6    C     C_R   0.935929 0.621861 0.515555 -0.201159
C7    C     C_R   0.936266 0.378068 0.484541 -0.197668
C8    C     C_R   0.063734 0.621932 0.515459 -0.197668
C9    C     C_R   0.872580 0.499929 0.500096 -0.009311
C10   C     C_R   0.127420 0.500071 0.499904 -0.009310
C11   C     C_R   0.579883 0.072159 0.553675 -0.079517
C12   C     C_R   0.420117 0.927841 0.446325 -0.079517
C13   C     C_R   0.420110 0.071808 0.446324 -0.074875
C14   C     C_R   0.579890 0.928192 0.553675 -0.074874
C15   C     C_R   0.497523 0.499670 0.326848 0.922689
C16   C     C_R   0.502477 0.500330 0.673151 0.922689
C17   C     C_R   0.577648 0.598832 0.814779 0.154094
C18   C     C_R   0.422352 0.401168 0.185221 0.154094
C19   C     C_R   0.506636 0.501016 0.768747 -0.110027
C20   C     C_R   0.493364 0.498984 0.231253 -0.110027
C21   C     C_R   0.436230 0.403805 0.813331 -0.321829
C22   C     C_R   0.563770 0.596195 0.186669 -0.321829
C23   C     C_R   0.432476 0.403492 0.905280 0.124910
C24   C     C_R   0.567524 0.596508 0.094720 0.124910
C25   C     C_R   0.502023 0.500693 0.953385 0.039767
C26   C     C_R   0.497977 0.499307 0.046615 0.039767
C27   C     C_R   0.575661 0.598870 0.908401 0.054594
C28   C     C_R   0.424339 0.401130 0.091599 0.054594
C29   C     C_R   0.358840 0.307956 0.949455 -0.203279
C30   C     C_R   0.641160 0.692044 0.050545 -0.203279
H1    H     H_    0.381686 0.330097 0.775969 0.167956
H2    H     H_    0.618314 0.669903 0.224030 0.167957
H3    H     H_    0.304329 0.234060 0.912447 0.144954
H4    H     H_    0.695670 0.765940 0.087553 0.144954
H5    H     H_    0.294317 0.232637 0.073066 0.152415
H6    H     H_    0.705683 0.767363 0.926934 0.152415
H7    H     H_    0.112850 0.283377 0.471843 0.152751
H8    H     H_    0.887150 0.716623 0.528157 0.152751
H9    H     H_    0.887756 0.283280 0.471977 0.156405
H10   H     H_    0.112244 0.716720 0.528023 0.156405
H11   H     H_    0.643718 0.126925 0.596563 0.128224
H12   H     H_    0.356282 0.873075 0.403437 0.128224
H13   H     H_    0.356250 0.126283 0.403465 0.137044
H14   H     H_    0.643750 0.873717 0.596534 0.137044
N1    N     N_R   0.500000 0.857200 0.500000 -0.079611
N2    N     N_R   0.500000 0.142800 0.500000 -0.079611
O1    O     O_R   0.316770 0.614620 0.499990 -0.633058
O2    O     O_R   0.683230 0.385380 0.500010 -0.633057
O3    O     O_R   0.683230 0.614620 0.500010 -0.624840
O4    O     O_R   0.316770 0.385380 0.499990 -0.624840
O5    O     O_R   0.499980 0.614680 0.367850 -0.631233
O6    O     O_R   0.500020 0.385320 0.632150 -0.631233
O7    O     O_R   0.500020 0.614680 0.632150 -0.594256
O8    O     O_R   0.499980 0.385320 0.367850 -0.594256
Zn1   Zn    Zn3+2 0.500000 0.653120 0.500000 0.951781
Zn2   Zn    Zn3+2 0.500000 0.346880 0.500000 0.951781
N3    N     N_2   0.650091 0.694929 0.765888 -0.298296
H15   H     H_    0.644983 0.794102 0.788077 0.214703
C31   C     C_3   0.775027 0.650126 0.743949 -0.782631
H16   H     H_    0.830991 0.636958 0.805679 0.236640
H17   H     H_    0.820957 0.727269 0.701160 0.228282
H18   H     H_    0.772044 0.552378 0.706574 0.240027
N4    N     N_2   0.349910 0.305071 0.234112 -0.298297
H19   H     H_    0.355017 0.205898 0.211923 0.214703
C32   C     C_3   0.224973 0.349874 0.256051 -0.782632
H20   H     H_    0.169009 0.363042 0.194321 0.236640
H21   H     H_    0.227956 0.447622 0.293426 0.240027
H22   H     H_    0.179043 0.272731 0.298840 0.228282

loop_
_geom_bond_atom_site_label_1
_geom_bond_atom_site_label_2
_ccdc_geom_bond_type
C6    C8    A    
N4    C32   S    
C19   C21   A    
C2    O3    A    
C15   O5    A    
C25   C27   A    
O4    Zn2   S    
C1    O4    A    
O7    Zn1   S    
C26   C28   A    
C32   H21   S    
C3    H5    S    
C13   H13   S    
C32   H22   S    
C6    C9    A    
C4    H6    S    
C20   C22   A    
O1    Zn1   S    
C31   H16   S    
C21   H1    S    
N3    H15   S    
C15   C20   S    
C22   H2    S    
C16   C19   S    
C23   C29   A    
C22   C24   A    
C14   H14   S    
C3    C28   A    
C17   C19   A    
C24   C26   A    
C11   H11   S    
C14   N1    A    
C5    C7    A    
C23   C25   A    
C21   C23   A    
C13   N2    A    
C11   C14   A    
O8    Zn2   S    
C18   N4    S    
C31   H17   S    
C24   C30   A    
N3    C31   S    
C5    H7    S    
C30   H4    S    
N4    H19   S    
C17   C27   A    
C15   O8    A    
C7    C9    A    
C5    C10   A    
C4    C27   A    
C18   C28   A    
C12   C13   A    
N1    Zn1   S    
C18   C20   A    
O2    Zn2   S    
C32   H20   S    
N2    Zn2   S    
C16   O6    A    
C3    C29   A    
C7    H9    S    
C16   O7    A    
C1    O1    A    
C11   N2    A    
C12   H12   S    
C8    H10   S    
O5    Zn1   S    
C2    O2    A    
C25   C26   A    
O3    Zn1   S    
C2    C9    S    
C6    H8    S    
C8    C10   A    
C4    C30   A    
C1    C10   S    
O6    Zn2   S    
C29   H3    S    
C17   N3    S    
C12   N1    A    
C31   H18   S    
