data_mof_unit_30463.cif
_audit_creation_date              2012-10-26T18:48:19-0400
_audit_creation_method            fapswitch 2.2
_symmetry_space_group_name_H-M    P1
_symmetry_Int_Tables_number       1
_space_group_crystal_system       triclinic
_cell_length_a                    10.641299
_cell_length_b                    8.69161
_cell_length_c                    7.471254
_cell_angle_alpha                 102.513831
_cell_angle_beta                  94.647114
_cell_angle_gamma                 92.26739
_cell_volume                      671.223341181

loop_
_atom_site_label
_atom_site_type_symbol
_atom_type_description
_atom_site_fract_x
_atom_site_fract_y
_atom_site_fract_z
_atom_type_partial_charge
C1    C     C_R   0.496237 0.200010 0.453690 0.542849
C2    C     C_3   0.123451 0.498943 0.502518 -0.071541
C3    C     C_3   0.969000 0.529751 0.671862 0.394450
C4    C     C_3   0.031000 0.470250 0.328139 0.394454
C5    C     C_2   0.494519 0.032364 0.427470 -0.126952
C6    C     C_2   0.505481 0.967636 0.572530 -0.126954
C7    C     C_2   0.087097 0.265760 0.682500 0.652480
C8    C     C_2   0.912914 0.734239 0.317489 0.652485
C9    C     C_R   0.503763 0.799990 0.546309 0.542849
C10   C     C_R   0.259734 0.498713 0.501164 0.569069
C11   C     C_R   0.740266 0.501288 0.498836 0.569067
C12   C     C_3   0.040686 0.387674 0.583232 0.008222
C13   C     C_3   0.959316 0.612327 0.416767 0.008216
C14   C     C_3   0.947199 0.357029 0.407547 -0.163533
C15   C     C_3   0.052802 0.642972 0.592453 -0.163534
C16   C     C_3   0.876550 0.501059 0.497482 -0.071545
Cu1   Cu    Cu3+1 0.514140 0.517380 0.684380 1.053465
Cu2   Cu    Cu3+1 0.485860 0.482620 0.315620 1.053469
F1    F     F_    0.935743 0.558882 0.850332 -0.514112
F2    F     F_    0.064257 0.441121 0.149669 -0.514107
H1    H     H_    0.902727 0.241281 0.330867 0.182841
H2    H     H_    0.097274 0.758720 0.669134 0.182845
H3    H     H_    0.408944 0.369771 0.947840 0.263250
H4    H     H_    0.591056 0.630228 0.052160 0.263256
H5    H     H_    0.484229 0.961748 0.287266 0.138573
H6    H     H_    0.515770 0.038252 0.712733 0.138571
H7    H     H_    0.197799 0.217722 0.892660 0.338187
H8    H     H_    0.802206 0.782278 0.107335 0.338192
N1    N     N_2   0.464560 0.456420 0.038510 -0.237552
N2    N     N_2   0.535440 0.543580 0.961490 -0.237551
O1    O     O_R   0.509190 0.286130 0.619780 -0.513929
O2    O     O_R   0.174634 0.310137 0.836343 -0.611063
O3    O     O_2   0.952587 0.871585 0.370223 -0.470770
O4    O     O_R   0.825359 0.689865 0.163663 -0.611085
O5    O     O_R   0.490810 0.713870 0.380220 -0.513927
O6    O     O_R   0.485310 0.256770 0.308360 -0.509941
O7    O     O_R   0.514690 0.743230 0.691640 -0.509941
O8    O     O_R   0.328790 0.514640 0.655680 -0.483715
O9    O     O_R   0.671210 0.485360 0.344320 -0.483710
O10   O     O_R   0.304910 0.485280 0.344260 -0.440268
O11   O     O_R   0.695090 0.514720 0.655740 -0.440271
O12   O     O_2   0.047455 0.128408 0.629738 -0.470790

loop_
_geom_bond_atom_site_label_1
_geom_bond_atom_site_label_2
_ccdc_geom_bond_type
C7    O2    S    
C2    C4    S    
Cu2   O9    S    
C3    F1    S    
N1    N2    D    
C2    C15   S    
C11   C16   S    
C10   O8    A    
C2    C12   S    
C6    C9    S    
C9    O7    A    
Cu1   Cu2   S    
H8    O4    S    
Cu2   N1    S    
C8    O4    S    
C11   O9    A    
Cu1   N2    S    
C6    H6    S    
C1    C5    S    
H3    N1    S    
C14   H1    S    
C12   C14   S    
C11   O11   A    
C14   C16   S    
C8    O3    D    
C13   C15   S    
C4    C14   S    
C5    C6    D    
Cu1   O1    S    
C5    H5    S    
C7    C12   S    
C7    O12   D    
Cu1   O11   S    
H4    N2    S    
C4    F2    S    
C8    C13   S    
C1    O1    A    
C3    C15   S    
Cu1   O8    S    
C10   O10   A    
Cu2   O5    S    
C13   C16   S    
C4    C13   S    
C9    O5    A    
Cu2   O10   S    
Cu1   O7    S    
C3    C12   S    
H7    O2    S    
Cu2   O6    S    
C15   H2    S    
C3    C16   S    
C1    O6    A    
C2    C10   S    
