data_mof_unit_41149.cif
_audit_creation_date              2012-10-26T20:48:41-0400
_audit_creation_method            fapswitch 2.2
_symmetry_space_group_name_H-M    P1
_symmetry_Int_Tables_number       1
_space_group_crystal_system       triclinic
_cell_length_a                    15.102748
_cell_length_b                    13.838201
_cell_length_c                    9.047909
_cell_angle_alpha                 90.001677
_cell_angle_beta                  89.997217
_cell_angle_gamma                 89.99988
_cell_volume                      1890.96649411

loop_
_atom_site_label
_atom_site_type_symbol
_atom_type_description
_atom_site_fract_x
_atom_site_fract_y
_atom_site_fract_z
_atom_type_partial_charge
C1    C     C_R   0.329835 0.500001 0.500014 0.541122
C2    C     C_R   0.530423 0.892795 0.622782 -0.151501
C3    C     C_R   0.499996 0.499999 0.220509 0.548971
C4    C     C_R   0.499996 0.500001 0.779491 0.549048
C5    C     C_R   0.499993 0.054445 0.499997 0.018298
C6    C     C_R   0.499994 0.945550 0.499999 0.018291
C7    C     C_1   0.499989 0.499998 0.065561 -0.098252
C8    C     C_1   0.499989 0.500001 0.934439 -0.098201
C9    C     C_R   0.093633 0.571614 0.577411 -0.128821
C10   C     C_R   0.906350 0.428526 0.577688 -0.128817
C11   C     C_R   0.906372 0.571486 0.422514 -0.128808
C12   C     C_R   0.670161 0.499999 0.500001 0.541354
C13   C     C_R   0.093618 0.428393 0.422801 -0.128804
C14   C     C_R   0.185862 0.571280 0.580915 -0.037096
C15   C     C_R   0.814121 0.428856 0.581160 -0.037147
C16   C     C_R   0.814145 0.571138 0.418937 -0.037129
C17   C     C_R   0.185846 0.428734 0.419196 -0.037076
C18   C     C_R   0.232814 0.500006 0.500038 -0.001422
C19   C     C_R   0.767179 0.499995 0.500025 -0.001362
C20   C     C_R   0.048050 0.500000 0.500130 0.002569
C21   C     C_R   0.951938 0.500010 0.500127 0.002564
C22   C     C_R   0.231363 0.643887 0.674135 0.048556
C23   C     C_R   0.469369 0.208953 0.620065 0.052512
C24   C     C_R   0.276926 0.615042 0.802169 -0.067403
C25   C     C_R   0.323431 0.683061 0.886118 -0.098139
C26   C     C_R   0.325098 0.779939 0.842468 -0.101473
C27   C     C_R   0.279540 0.809156 0.715595 -0.104843
C28   C     C_R   0.232341 0.741514 0.631954 -0.082557
C29   C     C_R   0.768600 0.356430 0.674655 0.048528
C30   C     C_R   0.723345 0.385469 0.802901 -0.067900
C31   C     C_R   0.676839 0.317622 0.887172 -0.098306
C32   C     C_R   0.674835 0.220731 0.843603 -0.101478
C33   C     C_R   0.720067 0.191329 0.716484 -0.104773
C34   C     C_R   0.469161 0.791041 0.380083 0.052508
C35   C     C_R   0.767284 0.258793 0.632538 -0.082174
C36   C     C_R   0.768656 0.643554 0.325377 0.048521
C37   C     C_R   0.723275 0.614474 0.197286 -0.067732
C38   C     C_R   0.676809 0.682322 0.112954 -0.098235
C39   C     C_R   0.674981 0.779258 0.156304 -0.101439
C40   C     C_R   0.720343 0.808704 0.283257 -0.104830
C41   C     C_R   0.767516 0.741236 0.367266 -0.082357
C42   C     C_R   0.231316 0.356165 0.325850 0.048571
C43   C     C_R   0.276970 0.385082 0.197933 -0.067270
C44   C     C_R   0.323381 0.317078 0.113803 -0.098150
C45   C     C_R   0.530625 0.208948 0.379931 0.052412
C46   C     C_R   0.324860 0.220135 0.157147 -0.101568
C47   C     C_R   0.279209 0.190845 0.283895 -0.104899
C48   C     C_R   0.232104 0.258474 0.367720 -0.082648
C49   C     C_R   0.530836 0.791047 0.619917 0.052469
C50   C     C_R   0.469782 0.107206 0.622928 -0.151488
C51   C     C_R   0.469568 0.892789 0.377217 -0.151475
C52   C     C_R   0.530205 0.107201 0.377065 -0.151479
Cu1   Cu    Cu3+1 0.500000 0.596430 0.500000 0.947649
Cu2   Cu    Cu3+1 0.500000 0.403570 0.500000 0.947649
H1    H     H_    0.444230 0.247753 0.714834 0.117857
H2    H     H_    0.444707 0.929961 0.280421 0.081045
H3    H     H_    0.554887 0.070026 0.280145 0.081014
H4    H     H_    0.555280 0.929971 0.719579 0.080994
H5    H     H_    0.277103 0.539923 0.835880 0.087128
H6    H     H_    0.358699 0.660578 0.984406 0.101889
H7    H     H_    0.361799 0.832327 0.906788 0.090036
H8    H     H_    0.281206 0.884137 0.681647 0.101663
H9    H     H_    0.198090 0.764720 0.532967 0.096073
H10   H     H_    0.723426 0.460606 0.836557 0.087135
H11   H     H_    0.641827 0.340253 0.985664 0.101907
H12   H     H_    0.443858 0.752231 0.285442 0.117777
H13   H     H_    0.638128 0.168477 0.908181 0.089962
H14   H     H_    0.718134 0.116339 0.682584 0.101631
H15   H     H_    0.801291 0.235446 0.533369 0.096097
H16   H     H_    0.723225 0.539305 0.163804 0.087093
H17   H     H_    0.641701 0.659662 0.014590 0.101933
H18   H     H_    0.638310 0.831517 0.091675 0.090003
H19   H     H_    0.718553 0.883731 0.316976 0.101613
H20   H     H_    0.801628 0.764617 0.466302 0.096099
H21   H     H_    0.277278 0.460247 0.164434 0.087079
H22   H     H_    0.358716 0.339619 0.015598 0.101927
H23   H     H_    0.555763 0.247745 0.285162 0.117804
H24   H     H_    0.361481 0.167753 0.092673 0.090030
H25   H     H_    0.280718 0.115808 0.317601 0.101597
H26   H     H_    0.197762 0.235201 0.466594 0.096102
H27   H     H_    0.556138 0.752240 0.714559 0.117754
H28   H     H_    0.057103 0.626064 0.638399 0.114215
H29   H     H_    0.942872 0.374181 0.638904 0.114245
H30   H     H_    0.942914 0.625829 0.361320 0.114228
H31   H     H_    0.057073 0.373952 0.361822 0.114210
H32   H     H_    0.445096 0.070035 0.719845 0.081018
N1    N     N_R   0.500000 0.258690 0.500000 -0.208273
N2    N     N_R   0.500000 0.741310 0.500000 -0.208250
O1    O     O_R   0.371460 0.581430 0.500010 -0.489859
O2    O     O_R   0.628540 0.418570 0.499990 -0.489844
O3    O     O_R   0.628540 0.581430 0.499990 -0.489862
O4    O     O_R   0.371460 0.418570 0.500010 -0.489800
O5    O     O_R   0.500000 0.581420 0.288390 -0.504366
O6    O     O_R   0.500000 0.418580 0.711610 -0.504396
O7    O     O_R   0.500000 0.581420 0.711610 -0.504488
O8    O     O_R   0.500000 0.418580 0.288390 -0.504561

loop_
_geom_bond_atom_site_label_1
_geom_bond_atom_site_label_2
_ccdc_geom_bond_type
C30   H10   S    
Cu1   O7    S    
C14   C18   A    
C12   O3    A    
C47   H25   S    
C4    C8    S    
C34   H12   S    
C7    C8    T    
Cu1   Cu2   S    
C15   C19   A    
C1    C18   S    
C29   C30   A    
C12   O2    A    
C36   C37   A    
C2    C49   A    
C26   H7    S    
Cu2   O2    S    
C3    C7    S    
C10   C15   A    
C24   H5    S    
C5    C6    S    
C10   H29   S    
C40   H19   S    
C51   H2    S    
C49   H27   S    
C44   H22   S    
C17   C42   S    
C41   H20   S    
C46   C47   A    
C47   C48   A    
Cu1   O3    S    
C39   H18   S    
C5    C52   A    
C3    O8    A    
C25   H6    S    
C6    C51   A    
Cu2   O8    S    
C9    H28   S    
C23   N1    A    
C37   H16   S    
C49   N2    A    
C36   C41   A    
C2    C6    A    
C22   C28   A    
C44   C46   A    
C15   C29   S    
C10   C21   A    
C43   H21   S    
C38   C39   A    
Cu1   O5    S    
C24   C25   A    
C39   C40   A    
C46   H24   S    
C9    C14   A    
C23   C50   A    
C34   N2    A    
C45   C52   A    
C25   C26   A    
C11   C21   A    
C34   C51   A    
C43   C44   A    
Cu2   O4    S    
C37   C38   A    
C27   H8    S    
C4    O7    A    
C11   C16   A    
C9    C20   A    
C31   C32   A    
C30   C31   A    
C17   C18   A    
C26   C27   A    
C3    O5    A    
C42   C48   A    
C32   H13   S    
C4    O6    A    
C40   C41   A    
C1    O4    A    
Cu1   O1    S    
C22   C24   A    
C5    C50   A    
C42   C43   A    
C31   H11   S    
C38   H17   S    
C1    O1    A    
C13   C20   A    
C45   N1    A    
C2    H4    S    
C23   H1    S    
C11   H30   S    
C29   C35   A    
C13   C17   A    
C32   C33   A    
C48   H26   S    
C16   C36   S    
C14   C22   S    
Cu2   N1    S    
C16   C19   A    
C12   C19   S    
C33   C35   A    
Cu1   N2    S    
Cu2   O6    S    
C52   H3    S    
C50   H32   S    
C28   H9    S    
C20   C21   S    
C35   H15   S    
C13   H31   S    
C27   C28   A    
C45   H23   S    
C33   H14   S    
