data_mof_unit_58135.cif
_audit_creation_date              2012-12-10T16:42:30-0500
_audit_creation_method            fapswitch 2.2
_symmetry_space_group_name_H-M    P1
_symmetry_Int_Tables_number       1
_space_group_crystal_system       triclinic
_cell_length_a                    7.65782
_cell_length_b                    8.837551
_cell_length_c                    11.082817
_cell_angle_alpha                 86.399871
_cell_angle_beta                  73.861832
_cell_angle_gamma                 103.114522
_cell_volume                      695.318369648

loop_
_atom_site_label
_atom_site_type_symbol
_atom_type_description
_atom_site_fract_x
_atom_site_fract_y
_atom_site_fract_z
_atom_type_partial_charge
C1    C     C_R   0.453263 0.201174 0.504064 0.816667
C2    C     C_R   0.546738 0.798826 0.495933 0.816686
C3    C     C_R   0.426241 0.496890 0.740373 0.852638
C4    C     C_R   0.573752 0.503090 0.259632 0.852626
C5    C     C_2   0.384554 0.494174 0.876658 -0.020185
C6    C     C_2   0.615402 0.505698 0.123363 -0.020116
C7    C     C_2   0.518399 0.532146 0.932453 0.232346
C8    C     C_2   0.481518 0.467748 0.067604 0.232355
C9    C     C_2   0.433838 0.036986 0.492878 0.037184
C10   C     C_2   0.566165 0.963015 0.507115 0.037163
Cu1   Cu    Cu3+1 0.688910 0.517800 0.485820 1.152017
Cu2   Cu    Cu3+1 0.311090 0.482200 0.514180 1.152009
N1    N     N_2   0.027170 0.455360 0.535550 0.086709
N2    N     N_2   0.972830 0.544640 0.464450 0.086703
O1    O     O_R   0.622710 0.286400 0.490790 -0.562592
O2    O     O_R   0.377290 0.713600 0.509210 -0.562581
O3    O     O_R   0.303660 0.256330 0.514730 -0.516586
O4    O     O_R   0.696340 0.743670 0.485270 -0.516586
O5    O     O_R   0.600900 0.509520 0.671740 -0.543499
O6    O     O_R   0.399100 0.490480 0.328260 -0.543535
O7    O     O_R   0.281840 0.479450 0.695690 -0.568092
O8    O     O_R   0.718160 0.520550 0.304310 -0.568067
Br1   Br    Br    0.280521 0.280872 0.148560 -0.408841
Br2   Br    Br    0.719507 0.718958 0.851500 -0.408828
C11   C     C_3   0.812478 0.514329 0.052922 -0.798206
H1    H     H_    0.856904 0.426372 0.105363 0.261884
H2    H     H_    0.827177 0.478745 0.957274 0.275762
H3    H     H_    0.900759 0.634348 0.048568 0.281624
C12   C     C_3   0.187412 0.485253 0.947111 -0.798292
H4    H     H_    0.142841 0.573099 0.894695 0.261915
H5    H     H_    0.099332 0.365181 0.951420 0.281678
H6    H     H_    0.172598 0.520807 0.042778 0.275745
Br3   Br    Br    0.218231 0.945855 0.439738 -0.288160
Br4   Br    Br    0.781779 0.054145 0.560246 -0.288186
Br5   Br    Br    0.875386 0.373141 0.701643 -0.290699
Br6   Br    Br    0.124604 0.626835 0.298349 -0.290658

loop_
_geom_bond_atom_site_label_1
_geom_bond_atom_site_label_2
_ccdc_geom_bond_type
Cu2   O3    S    
Cu1   Cu2   S    
Cu1   O4    S    
C3    O5    A    
C12   H4    S    
C1    O1    A    
C2    O4    A    
C2    O2    A    
C9    C10   D    
Cu1   O8    S    
C1    O3    A    
Cu2   O6    S    
C1    C9    S    
C7    C8    S    
C12   H5    S    
N1    N2    D    
C11   H3    S    
C9    Br3   S    
Cu1   O5    S    
C4    C6    S    
N1    Br5   S    
C12   H6    S    
C5    C12   S    
N2    Br6   S    
Cu1   N2    S    
C3    O7    A    
C6    C11   S    
C11   H2    S    
C7    Br2   S    
C2    C10   S    
C8    Br1   S    
C4    O8    A    
Cu2   N1    S    
C10   Br4   S    
C5    C7    D    
C6    C8    D    
C11   H1    S    
Cu1   O1    S    
Cu2   O7    S    
Cu2   O2    S    
C3    C5    S    
C4    O6    A    
