data_mof_unit_27499.cif
_audit_creation_date              2012-12-11T15:19:36-0500
_audit_creation_method            fapswitch 2.2
_symmetry_space_group_name_H-M    P1
_symmetry_Int_Tables_number       1
_space_group_crystal_system       triclinic
_cell_length_a                    19.92699
_cell_length_b                    6.873388
_cell_length_c                    18.259527
_cell_angle_alpha                 89.737481
_cell_angle_beta                  104.155987
_cell_angle_gamma                 90.175217
_cell_volume                      2424.95829146

loop_
_atom_site_label
_atom_site_type_symbol
_atom_type_description
_atom_site_fract_x
_atom_site_fract_y
_atom_site_fract_z
_atom_type_partial_charge
O1    O     O_R   0.312200 0.620210 0.189560 -0.517251
O2    O     O_R   0.687800 0.379790 0.810440 -0.517251
O3    O     O_R   0.187800 0.120210 0.310440 -0.537860
O4    O     O_R   0.812200 0.879790 0.689560 -0.537860
O5    O     O_R   0.171590 0.286140 0.165000 -0.540780
O6    O     O_R   0.828410 0.713860 0.835000 -0.540781
O7    O     O_R   0.328410 0.786140 0.335000 -0.526587
O8    O     O_R   0.671590 0.213860 0.665000 -0.526586
C1    C     C_R   0.145751 0.459592 0.143695 0.760709
C2    C     C_R   0.854249 0.540408 0.856305 0.760711
C3    C     C_R   0.354145 0.959603 0.356471 0.774709
C4    C     C_R   0.645855 0.040397 0.643529 0.774709
O9    O     O_R   0.310670 0.290220 0.180540 -0.538433
O10   O     O_R   0.689330 0.709780 0.819460 -0.538433
O11   O     O_R   0.189330 0.790220 0.319460 -0.520362
O12   O     O_R   0.810670 0.209780 0.680540 -0.520362
O13   O     O_R   0.327870 0.124170 0.326080 -0.534183
O14   O     O_R   0.672130 0.875830 0.673920 -0.534184
O15   O     O_R   0.172130 0.624170 0.173920 -0.520209
O16   O     O_R   0.827870 0.375830 0.826080 -0.520208
C5    C     C_R   0.334621 0.459276 0.168075 0.805775
C6    C     C_R   0.665379 0.540724 0.831925 0.805774
C7    C     C_R   0.165986 0.958686 0.332704 0.803416
C8    C     C_R   0.834013 0.041314 0.667296 0.803416
O17   O     O_3   0.255480 0.455050 0.297740 -0.370720
O18   O     O_3   0.744520 0.544950 0.702260 -0.370720
O19   O     O_3   0.244520 0.955050 0.202260 -0.368516
O20   O     O_3   0.755480 0.044950 0.797740 -0.368516
V1    V     V_3+5 0.248980 0.178550 0.241140 1.580026
V2    V     V_3+5 0.751020 0.821450 0.758860 1.580026
V3    V     V_3+5 0.251020 0.678550 0.258860 1.618795
V4    V     V_3+5 0.748980 0.321450 0.741140 1.618797
C9    C     C_R   0.940750 0.169156 0.628089 0.393510
C10   C     C_R   0.059250 0.830844 0.371911 0.393511
C11   C     C_R   0.560167 0.384238 0.865437 0.396370
C12   C     C_R   0.439833 0.615762 0.134563 0.396372
C13   C     C_R   0.886007 0.031495 0.620972 -0.194343
C14   C     C_R   0.113993 0.968505 0.379028 -0.194344
C15   C     C_R   0.612618 0.530165 0.877399 -0.190066
C16   C     C_R   0.387382 0.469835 0.122601 -0.190065
C17   C     C_R   0.881607 0.876327 0.570217 -0.213198
C18   C     C_R   0.118393 0.123673 0.429783 -0.213199
C19   C     C_R   0.614483 0.671073 0.933346 -0.237998
C20   C     C_R   0.385516 0.328926 0.066654 -0.237998
C21   C     C_R   0.928060 0.859845 0.524189 0.108573
C22   C     C_R   0.071940 0.140156 0.475811 0.108573
C23   C     C_R   0.568403 0.663426 0.980160 0.098722
C24   C     C_R   0.431597 0.336574 0.019839 0.098722
C25   C     C_R   0.977600 0.006644 0.524790 0.026543
C26   C     C_R   0.022400 0.993356 0.475210 0.026543
C27   C     C_R   0.522016 0.506132 0.974786 0.027400
C28   C     C_R   0.477984 0.493868 0.025213 0.027400
C29   C     C_R   0.982832 0.165559 0.575181 -0.035352
C30   C     C_R   0.017168 0.834442 0.424819 -0.035352
C31   C     C_R   0.519113 0.362239 0.918774 -0.036122
C32   C     C_R   0.480887 0.637762 0.081225 -0.036123
C33   C     C_R   0.925439 0.698199 0.477254 -0.176019
C34   C     C_R   0.074560 0.301801 0.522746 -0.176019
C35   C     C_R   0.568523 0.810582 0.032887 -0.179352
C36   C     C_R   0.431477 0.189419 0.967113 -0.179352
C37   C     C_R   0.970013 0.684020 0.429280 -0.090588
C38   C     C_R   0.029986 0.315981 0.570720 -0.090589
C39   C     C_R   0.524724 0.799632 0.081844 -0.082470
C40   C     C_R   0.475276 0.200368 0.918156 -0.082470
H1    H     H_    0.841719 0.766605 0.566748 0.152178
H2    H     H_    0.158282 0.233394 0.433252 0.152177
H3    H     H_    0.652288 0.787733 0.940673 0.152677
H4    H     H_    0.347712 0.212267 0.059326 0.152677
H5    H     H_    0.889228 0.580761 0.478208 0.135688
H6    H     H_    0.110772 0.419239 0.521792 0.135688
H7    H     H_    0.602281 0.935801 0.035945 0.137123
H8    H     H_    0.397718 0.064200 0.964055 0.137123
H9    H     H_    0.968188 0.551161 0.397519 0.203414
H10   H     H_    0.031812 0.448840 0.602480 0.203414
H11   H     H_    0.524615 0.921912 0.118767 0.203526
H12   H     H_    0.475384 0.078089 0.881232 0.203526
C41   C     C_1   0.583331 0.027310 0.581370 -0.161126
C42   C     C_1   0.416669 0.972690 0.418630 -0.161129
C43   C     C_1   0.916715 0.527451 0.918553 -0.159373
C44   C     C_1   0.083285 0.472549 0.081447 -0.159375
C45   C     C_1   0.530917 0.010812 0.530096 0.037961
C46   C     C_1   0.469083 0.989188 0.469903 0.037961
C47   C     C_1   0.969096 0.510898 0.969886 0.028598
C48   C     C_1   0.030904 0.489102 0.030114 0.028598
S1    S     S_3+6 0.963556 0.319125 0.710161 -0.013303
O21   O     O_2   0.039988 0.361072 0.731240 -0.337999
O22   O     O_2   0.924467 0.507538 0.695180 -0.345780
O23   O     O_3   0.943624 0.204217 0.783672 -0.513157
H13   H     H_    0.977047 0.253946 0.829142 0.356275
S2    S     S_3+6 0.036443 0.680877 0.289839 -0.013303
O24   O     O_2   0.075532 0.492462 0.304819 -0.345781
O25   O     O_2   0.960011 0.638933 0.268759 -0.337998
O26   O     O_3   0.056376 0.795784 0.216328 -0.513157
H14   H     H_    0.022955 0.746050 0.170857 0.356275
S3    S     S_3+6 0.538173 0.255304 0.778105 -0.016314
O27   O     O_2   0.577959 0.067833 0.786473 -0.349543
O28   O     O_2   0.461904 0.211385 0.755710 -0.337334
O29   O     O_3   0.557414 0.391054 0.709017 -0.511635
H15   H     H_    0.527705 0.339761 0.661392 0.353986
S4    S     S_3+6 0.461826 0.744696 0.221894 -0.016313
O30   O     O_2   0.538095 0.788618 0.244290 -0.337333
O31   O     O_2   0.422040 0.932166 0.213527 -0.349544
O32   O     O_3   0.442587 0.608946 0.290982 -0.511635
H16   H     H_    0.472293 0.660244 0.338608 0.353986

loop_
_geom_bond_atom_site_label_1
_geom_bond_atom_site_label_2
_ccdc_geom_bond_type
C34   C38   A    
O1    C5    A    
O26   H14   S    
O19   V1    S    
O13   V1    S    
O3    C7    A    
S3    O27   D    
C44   C48   T    
O15   V3    S    
C45   C46   S    
S3    O29   S    
S1    O21   D    
O7    C3    A    
C21   C33   A    
C26   C30   A    
O9    V1    S    
C14   C18   A    
O4    C8    A    
C36   H8    S    
O29   H15   S    
O1    V3    S    
O2    V4    S    
C18   C22   A    
O3    V1    S    
C9    S1    S    
C12   C16   A    
C1    O15   A    
C23   C27   A    
C2    O16   A    
O2    C6    A    
O14   V2    S    
C21   C25   A    
C16   C20   A    
O11   C7    A    
O12   C8    A    
C22   C34   A    
O17   V1    S    
O10   V2    S    
C24   C36   A    
O5    V1    S    
S1    O22   D    
C9    C29   A    
O7    V3    S    
O19   V3    S    
C27   C28   A    
O8    V4    S    
O20   V4    S    
C4    C41   S    
O18   V4    S    
C34   H6    S    
C15   C19   A    
C37   H9    S    
C11   C31   A    
S4    O32   S    
C9    C13   A    
C1    C44   S    
C11   C15   A    
C10   S2    S    
O5    C1    A    
C12   C32   A    
C3    C42   S    
C29   C38   A    
C42   C46   T    
S2    O25   D    
C47   C48   S    
C41   C45   T    
O8    C4    A    
C31   C40   A    
S4    O31   D    
C8    C13   S    
C40   H12   S    
C32   C39   A    
O9    C5    A    
C12   S4    S    
C33   C37   A    
O6    V2    S    
C10   C30   A    
C20   H4    S    
S2    O26   S    
O16   V4    S    
S1    O23   S    
C3    O13   A    
C10   C14   A    
O17   V3    S    
O6    C2    A    
C17   H1    S    
C2    C43   S    
S3    O28   D    
O11   V3    S    
C30   C37   A    
C11   S3    S    
O12   V4    S    
C7    C14   S    
C22   C26   A    
C35   C39   A    
C36   C40   A    
O10   C6    A    
O20   V2    S    
C43   C47   T    
S2    O24   D    
C5    C16   S    
C39   H11   S    
C25   C29   A    
C6    C15   S    
S4    O30   D    
C27   C31   A    
C13   C17   A    
C23   C35   A    
C28   C32   A    
C24   C28   A    
O23   H13   S    
C19   H3    S    
C25   C26   A    
C4    O14   A    
O32   H16   S    
C18   H2    S    
C17   C21   A    
C38   H10   S    
C33   H5    S    
C19   C23   A    
O4    V2    S    
C20   C24   A    
C35   H7    S    
O18   V2    S    
