data_mof_unit_51859.cif
_audit_creation_date              2012-12-10T20:25:44-0500
_audit_creation_method            fapswitch 2.2
_symmetry_space_group_name_H-M    P1
_symmetry_Int_Tables_number       1
_space_group_crystal_system       triclinic
_cell_length_a                    8.589324
_cell_length_b                    10.748863
_cell_length_c                    9.895393
_cell_angle_alpha                 90.473424
_cell_angle_beta                  98.516929
_cell_angle_gamma                 90.475754
_cell_volume                      903.448998997

loop_
_atom_site_label
_atom_site_type_symbol
_atom_type_description
_atom_site_fract_x
_atom_site_fract_y
_atom_site_fract_z
_atom_type_partial_charge
C1    C     C_R   0.497629 0.260613 0.499108 0.871155
C2    C     C_R   0.422819 0.408736 0.917998 0.123722
C3    C     C_3   0.252677 0.376741 0.887473 -0.540630
C4    C     C_R   0.201300 0.501142 0.464246 0.959612
C5    C     C_3   0.248407 0.379487 0.040857 0.364943
C6    C     C_R   0.497397 0.739440 0.499683 0.874594
C7    C     C_R   0.798543 0.502612 0.535625 0.961237
C8    C     C_2   0.036063 0.501255 0.444986 -0.344876
C9    C     C_2   0.963387 0.509840 0.554181 -0.392101
C10   C     C_R   0.497950 0.063571 0.616149 0.042291
C11   C     C_R   0.489595 0.129439 0.496119 -0.068790
C12   C     C_R   0.473249 0.934231 0.371575 -0.193711
C13   C     C_R   0.473808 0.063572 0.371227 -0.232753
C14   C     C_3   0.999260 0.446295 0.060946 -0.306672
C15   C     C_2   0.383367 0.875246 0.822659 0.382675
C16   C     C_3   0.795289 0.892089 0.761907 -0.275164
C17   C     C_3   0.725225 0.771130 0.126292 -0.288716
C18   C     C_R   0.489459 0.870676 0.496813 -0.124693
C19   C     C_R   0.499284 0.939156 0.616371 0.050504
C20   C     C_3   0.523011 0.933302 0.769784 0.467346
C21   C     C_3   0.521137 0.077270 0.768278 -0.517436
C22   C     C_R   0.420487 0.409961 0.059485 0.022924
C23   C     C_R   0.595157 0.580148 0.086946 0.544207
C24   C     C_R   0.594812 0.579204 0.940966 -0.288538
H1    H     H_    0.974328 0.491424 0.341493 0.197824
H2    H     H_    0.635519 0.122482 0.808844 0.198978
H3    H     H_    0.976914 0.367341 0.127719 0.148636
H4    H     H_    0.955231 0.423015 0.952161 0.163290
H5    H     H_    0.931238 0.526941 0.089311 0.215521
H6    H     H_    0.400630 0.798931 0.894027 0.084111
H7    H     H_    0.811700 0.987523 0.723886 0.172575
H8    H     H_    0.781199 0.823583 0.676336 0.173087
H9    H     H_    0.904658 0.868085 0.830704 0.214043
H10   H     H_    0.776660 0.831745 0.213057 0.192755
H11   H     H_    0.614119 0.815454 0.079178 0.169457
H12   H     H_    0.670775 0.641041 0.894613 0.196151
H13   H     H_    0.813106 0.766070 0.054773 0.196497
H14   H     H_    0.184652 0.452225 0.831999 0.229040
H15   H     H_    0.231217 0.282572 0.841133 0.165943
H16   H     H_    0.224641 0.287973 0.086391 0.067070
H17   H     H_    0.024186 0.522932 0.657192 0.173461
H18   H     H_    0.463839 0.111010 0.274183 0.163923
H19   H     H_    0.462302 0.885037 0.274640 0.176650
H20   H     H_    0.417715 0.120040 0.805149 0.196855
N1    N     N_R   0.498950 0.499140 0.142680 -0.117915
N2    N     N_R   0.498950 0.499180 0.857030 -0.105236
O1    O     O_R   0.500020 0.316790 0.614690 -0.613223
O2    O     O_2   0.249672 0.911210 0.784257 -0.626224
O3    O     O_3   0.667504 0.883610 0.836815 -0.680177
O4    O     O_3   0.698046 0.652532 0.177671 -0.600970
O5    O     O_R   0.500000 0.316760 0.385350 -0.645667
O6    O     O_R   0.271760 0.500010 0.587850 -0.618691
O7    O     O_R   0.271740 0.499970 0.358500 -0.573771
O8    O     O_R   0.500000 0.683240 0.614650 -0.621821
O9    O     O_R   0.499980 0.683210 0.385310 -0.580908
O10   O     O_R   0.728260 0.500030 0.641500 -0.634530
O11   O     O_R   0.728240 0.499990 0.412150 -0.576418
O12   O     O_3   0.160015 0.480132 0.080287 -0.556762
Zn1   Zn    Zn3+2 0.500010 0.500020 0.653130 0.951638
Zn2   Zn    Zn3+2 0.499990 0.499980 0.346870 1.013676

loop_
_geom_bond_atom_site_label_1
_geom_bond_atom_site_label_2
_ccdc_geom_bond_type
C17   O4    S    
C2    C22   A    
C21   H2    S    
N1    Zn2   S    
C14   H4    S    
C20   O3    S    
C23   N1    A    
O6    Zn1   S    
C16   H9    S    
C16   H8    S    
C21   H20   S    
C11   C13   A    
C10   C19   A    
C9    H17   S    
C19   C20   S    
C1    C11   S    
O10   Zn1   S    
C4    C8    S    
C6    O9    A    
C23   C24   A    
C24   N2    A    
C2    C3    S    
C3    H15   S    
C17   H13   S    
O9    Zn2   S    
C2    N2    A    
C16   H7    S    
C8    H1    S    
C1    O5    A    
N2    Zn1   S    
C24   H12   S    
C5    O12   S    
C6    O8    A    
C14   O12   S    
C7    O10   A    
C13   H18   S    
O7    Zn2   S    
C4    O6    A    
C12   H19   S    
O8    Zn1   S    
C10   C21   S    
C15   C20   S    
C14   H3    S    
C6    C18   S    
C4    O7    A    
C10   C11   A    
C14   H5    S    
O1    Zn1   S    
C16   O3    S    
C3    C5    S    
C22   N1    A    
C20   C21   S    
C15   H6    S    
C18   C19   A    
C17   H10   S    
C5    H16   S    
C12   C18   A    
C7    C9    S    
C1    O1    A    
C23   O4    S    
O5    Zn2   S    
C17   H11   S    
C12   C13   A    
C15   O2    D    
C7    O11   A    
C5    C22   S    
C3    H14   S    
C8    C9    D    
O11   Zn2   S    
