data_mof_unit_7096.cif
_audit_creation_date              2012-12-10T20:28:13-0500
_audit_creation_method            fapswitch 2.2
_symmetry_space_group_name_H-M    P1
_symmetry_Int_Tables_number       1
_space_group_crystal_system       triclinic
_cell_length_a                    18.724722
_cell_length_b                    18.511816
_cell_length_c                    18.932202
_cell_angle_alpha                 109.347811
_cell_angle_beta                  109.733991
_cell_angle_gamma                 109.01358
_cell_volume                      5071.36632536

loop_
_atom_site_label
_atom_site_type_symbol
_atom_type_description
_atom_site_fract_x
_atom_site_fract_y
_atom_site_fract_z
_atom_type_partial_charge
C1    C     C_R   0.382269 0.501945 0.381014 0.875066
C2    C     C_R   0.819351 0.825773 0.575034 -0.199881
C3    C     C_R   0.262235 0.324581 0.710742 -0.120911
C4    C     C_R   0.317906 0.304173 0.760336 -0.181078
C5    C     C_R   0.075311 0.320622 0.817747 -0.187343
C6    C     C_R   0.997175 0.312386 0.812931 -0.173961
C7    C     C_R   0.915761 0.241597 0.742603 -0.170799
C8    C     C_R   0.913521 0.175991 0.676414 0.400198
C9    C     C_R   0.994459 0.184546 0.683547 -0.196120
C10   C     C_R   0.762052 0.808793 0.861897 0.083609
C11   C     C_R   0.828609 0.871049 0.947781 -0.158075
C12   C     C_R   0.832080 0.853077 0.014661 -0.098692
C13   C     C_R   0.814474 0.808837 0.495598 -0.080381
C14   C     C_R   0.769140 0.773018 0.996419 -0.105218
C15   C     C_R   0.703190 0.710548 0.911204 -0.159408
C16   C     C_R   0.699401 0.728487 0.844206 -0.159570
C17   C     C_R   0.743143 0.733914 0.418043 -0.021531
C18   C     C_R   0.683703 0.671637 0.423974 -0.253344
C19   C     C_R   0.687740 0.688799 0.503330 -0.079730
C20   C     C_R   0.752044 0.770453 0.579153 -0.026425
C21   C     C_R   0.643849 0.699453 0.269561 -0.140976
C22   C     C_R   0.625876 0.683186 0.186204 -0.115483
C23   C     C_R   0.689441 0.686258 0.162640 -0.126091
C24   C     C_R   0.621643 0.621031 0.502157 0.867863
C25   C     C_R   0.740927 0.906834 0.804754 -0.181849
C26   C     C_R   0.771153 0.706047 0.222560 -0.125006
C27   C     C_R   0.789515 0.723072 0.306231 -0.114103
C28   C     C_R   0.726049 0.719552 0.330501 0.117346
C29   C     C_R   0.452958 0.816011 0.506315 -0.133416
C30   C     C_R   0.384113 0.730672 0.444849 -0.138637
C31   C     C_R   0.397509 0.669715 0.390907 0.137432
C32   C     C_R   0.480535 0.695150 0.399246 -0.133588
C33   C     C_R   0.548933 0.780911 0.460087 -0.120493
C34   C     C_R   0.535113 0.841308 0.513492 -0.077958
C35   C     C_R   0.257487 0.578191 0.255090 -0.236796
C36   C     C_R   0.074966 0.257524 0.753552 0.040208
C37   C     C_R   0.617694 0.497340 0.619027 0.920193
C38   C     C_R   0.187692 0.496941 0.185814 -0.080722
C39   C     C_R   0.181040 0.417071 0.180682 -0.001582
C40   C     C_R   0.247495 0.421289 0.245882 -0.231820
C41   C     C_R   0.317221 0.502724 0.315338 -0.079174
C42   C     C_R   0.322867 0.582147 0.320852 -0.010467
C43   C     C_R   0.059600 0.268571 0.127286 -0.148425
C44   C     C_R   0.990382 0.185332 0.060273 -0.124909
C45   C     C_R   0.968006 0.161643 0.974547 -0.161186
C46   C     C_R   0.015002 0.221040 0.955756 -0.089753
C47   C     C_R   0.792609 0.197467 0.772778 -0.020655
C48   C     C_R   0.084402 0.304315 0.022570 -0.016009
C49   C     C_R   0.378304 0.379718 0.498070 0.871214
C50   C     C_R   0.106961 0.329066 0.108973 0.108418
C51   C     C_R   0.206196 0.517242 0.547798 -0.135164
C52   C     C_R   0.222648 0.450379 0.553650 -0.139620
C53   C     C_R   0.220128 0.388716 0.483940 0.136974
C54   C     C_R   0.199855 0.394005 0.408013 -0.145971
C55   C     C_R   0.182249 0.460317 0.402032 -0.130154
C56   C     C_R   0.185991 0.522198 0.472021 -0.103034
C57   C     C_R   0.172896 0.250545 0.488504 -0.247281
C58   C     C_R   0.716121 0.196449 0.768110 -0.149717
C59   C     C_R   0.186337 0.182969 0.496309 -0.063567
C60   C     C_R   0.263264 0.180293 0.505072 0.019303
C61   C     C_R   0.751544 0.832923 0.793508 0.064198
C62   C     C_R   0.324609 0.245520 0.503563 -0.217643
C63   C     C_R   0.311091 0.312993 0.496189 -0.076130
C64   C     C_R   0.235591 0.316936 0.489737 -0.017884
C65   C     C_R   0.359563 0.133667 0.583962 -0.159708
C66   C     C_R   0.378704 0.068570 0.591098 -0.125657
C67   C     C_R   0.320457 0.980133 0.528534 -0.143634
C68   C     C_R   0.242952 0.956721 0.458935 -0.072911
C69   C     C_R   0.680912 0.237526 0.728179 -0.085908
C70   C     C_R   0.223248 0.021516 0.451917 -0.010009
C71   C     C_R   0.281461 0.110612 0.514286 0.106514
C72   C     C_2   0.742008 0.490550 0.817809 -0.182525
C73   C     C_R   0.751786 0.784231 0.718137 -0.149604
C74   C     C_2   0.819497 0.508425 0.823231 -0.348531
C75   C     C_2   0.680279 0.502049 0.756656 -0.180303
C76   C     C_2   0.678012 0.488213 0.681857 -0.342201
C77   C     C_R   0.000594 0.878709 0.381069 0.835511
C78   C     C_R   0.880106 0.876076 0.496298 0.916216
C79   C     C_R   0.996693 0.118358 0.618891 0.989526
C80   C     C_R   0.722204 0.279801 0.692955 -0.102467
C81   C     C_R   0.120280 0.118664 0.498431 0.852380
C82   C     C_R   0.002111 0.379575 0.882483 0.886459
C83   C     C_R   0.122334 0.498453 0.121203 0.860865
C84   C     C_R   0.001770 0.620591 0.121304 0.874843
C85   C     C_R   0.742361 0.810969 0.655377 0.118666
C86   C     C_R   0.883738 0.501734 0.884838 0.936224
C87   C     C_R   0.089707 0.759910 0.545922 -0.148099
C88   C     C_R   0.087270 0.776400 0.478457 -0.087590
C89   C     C_R   0.010902 0.725949 0.397248 0.111825
C90   C     C_R   0.939046 0.655286 0.383299 -0.199081
C91   C     C_R   0.798932 0.281362 0.697795 -0.117460
C92   C     C_R   0.941545 0.639142 0.450947 -0.123170
C93   C     C_R   0.016683 0.691730 0.532356 -0.107143
C94   C     C_R   0.005824 0.677951 0.257667 -0.249934
C95   C     C_R   0.002544 0.687681 0.186963 -0.059331
C96   C     C_R   0.002083 0.761315 0.181049 0.079814
C97   C     C_R   0.731627 0.885270 0.668780 -0.124107
C98   C     C_R   0.001312 0.823240 0.246178 -0.197742
C99   C     C_R   0.003973 0.813391 0.317084 -0.116758
C100  C     C_R   0.008312 0.741090 0.324391 -0.014443
C101  C     C_R   0.067316 0.837398 0.110561 0.516975
C102  C     C_R   0.834284 0.239796 0.737335 0.215441
C103  C     C_R   0.056998 0.845287 0.036991 -0.199528
C104  C     C_R   0.978774 0.788565 0.958770 -0.206942
C105  C     C_R   0.910038 0.723163 0.953041 -0.076208
C106  C     C_R   0.918896 0.714398 0.025575 -0.224270
C107  C     C_R   0.996806 0.771779 0.105224 -0.045462
C108  C     C_R   0.295383 0.268803 0.809230 -0.218511
C109  C     C_R   0.730518 0.932448 0.742445 -0.169891
C110  C     C_R   0.216492 0.252889 0.808695 0.526149
C111  C     C_R   0.159631 0.273029 0.757716 -0.006919
C112  C     C_R   0.183235 0.308585 0.708850 -0.251185
H1    H     H_    0.740252 0.944551 0.861945 0.134393
H2    H     H_    0.260937 0.638833 0.257836 0.170149
H3    H     H_    0.244457 0.360808 0.243171 0.162708
H4    H     H_    0.075879 0.286120 0.193385 0.123677
H5    H     H_    0.954043 0.139197 0.074811 0.131615
H6    H     H_    0.914382 0.097242 0.922708 0.136704
H7    H     H_    0.997621 0.202365 0.889339 0.166442
H8    H     H_    0.120590 0.349456 0.007067 0.127835
H9    H     H_    0.172714 0.573641 0.467334 0.125626
H10   H     H_    0.208618 0.564910 0.601822 0.128564
H11   H     H_    0.237556 0.446762 0.612436 0.116768
H12   H     H_    0.675342 0.673207 0.097967 0.118459
H13   H     H_    0.196633 0.346222 0.353409 0.112079
H14   H     H_    0.165234 0.463655 0.343090 0.142850
H15   H     H_    0.761559 0.728065 0.709696 0.120617
H16   H     H_    0.114274 0.252745 0.483605 0.160445
H17   H     H_    0.383847 0.244434 0.509177 0.154512
H18   H     H_    0.405500 0.202003 0.632750 0.118761
H19   H     H_    0.438883 0.086742 0.644923 0.128241
H20   H     H_    0.335395 0.929762 0.533875 0.121917
H21   H     H_    0.198196 0.888292 0.410255 0.162713
H22   H     H_    0.162895 0.002373 0.397807 0.144303
H23   H     H_    0.820066 0.707961 0.203953 0.136775
H24   H     H_    0.725663 0.471912 0.861297 0.166234
H25   H     H_    0.840022 0.536790 0.786969 0.154043
H26   H     H_    0.634507 0.518337 0.771496 0.159628
H27   H     H_    0.725679 0.907889 0.622404 0.169756
H28   H     H_    0.716312 0.461700 0.662300 0.153313
H29   H     H_    0.018642 0.679066 0.584649 0.128398
H30   H     H_    0.148382 0.799751 0.608625 0.128310
H31   H     H_    0.144824 0.828448 0.489701 0.123469
H32   H     H_    0.880800 0.613269 0.320192 0.140681
H33   H     H_    0.885378 0.585588 0.440123 0.139368
H34   H     H_    0.852947 0.739022 0.352196 0.104909
H35   H     H_    0.007798 0.621294 0.261398 0.157372
H36   H     H_    0.998506 0.879235 0.241565 0.164020
H37   H     H_    0.109659 0.895676 0.040081 0.196192
H38   H     H_    0.722526 0.989638 0.751656 0.143231
H39   H     H_    0.971261 0.795592 0.902563 0.155655
H40   H     H_    0.849074 0.680496 0.892611 0.168260
H41   H     H_    0.864327 0.663655 0.020014 0.133339
H42   H     H_    0.378866 0.316180 0.761230 0.142862
H43   H     H_    0.339977 0.254190 0.847862 0.177012
H44   H     H_    0.140409 0.324231 0.669452 0.145845
H45   H     H_    0.587783 0.907926 0.560042 0.157830
H46   H     H_    0.280448 0.352842 0.673725 0.147817
H47   H     H_    0.137041 0.376702 0.871978 0.169862
H48   H     H_    0.870988 0.887784 0.632842 0.185157
H49   H     H_    0.819399 0.165374 0.803699 0.103716
H50   H     H_    0.684085 0.163718 0.795327 0.112689
H51   H     H_    0.621649 0.236620 0.724529 0.116541
H52   H     H_    0.694869 0.311587 0.662124 0.139226
H53   H     H_    0.830657 0.314607 0.670662 0.122985
H54   H     H_    0.630840 0.611173 0.365312 0.164145
H55   H     H_    0.593761 0.696718 0.286728 0.126921
H56   H     H_    0.442352 0.862890 0.547605 0.123717
H57   H     H_    0.562539 0.667897 0.139796 0.137986
H58   H     H_    0.876896 0.934018 0.963024 0.128898
H59   H     H_    0.883449 0.901230 0.080615 0.134072
H60   H     H_    0.771878 0.759209 0.048244 0.119354
H61   H     H_    0.654161 0.648838 0.897280 0.123654
H62   H     H_    0.645530 0.681750 0.779431 0.167645
H63   H     H_    0.301696 0.988259 0.239138 0.391697
H64   H     H_    0.078638 0.110612 0.858872 0.378861
H65   H     H_    0.756664 0.944499 0.516004 0.371643
H66   H     H_    0.320229 0.712270 0.438641 0.121429
H67   H     H_    0.491608 0.649359 0.357239 0.107499
H68   H     H_    0.612328 0.800822 0.465061 0.133512
O1    O     O_R   0.408620 0.551720 0.460350 -0.605820
O2    O     O_R   0.952100 0.356700 0.912170 -0.629475
O3    O     O_R   0.145980 0.551740 0.094190 -0.612320
O4    O     O_R   0.409320 0.448300 0.357580 -0.616225
O5    O     O_R   0.042530 0.448320 0.094220 -0.621824
O6    O     O_R   0.054350 0.643370 0.094170 -0.587507
O7    O     O_R   0.950900 0.539950 0.094200 -0.636949
O8    O     O_R   0.963910 0.551750 0.912120 -0.618787
O9    O     O_R   0.860470 0.448330 0.912150 -0.616317
O10   O     O_R   0.591270 0.643330 0.551380 -0.614403
O11   O     O_R   0.591970 0.539910 0.448620 -0.622622
O12   O     O_R   0.949210 0.908400 0.357560 -0.627163
O13   O     O_R   0.590680 0.551700 0.642420 -0.644217
O14   O     O_R   0.591380 0.448280 0.539650 -0.618733
O15   O     O_R   0.408030 0.460090 0.551380 -0.621462
O16   O     O_R   0.408730 0.356670 0.448620 -0.611912
O17   O     O_R   0.051990 0.908360 0.460320 -0.634316
O18   O     O_2   0.165122 0.988387 0.259322 -0.352581
O19   O     O_2   0.190185 0.865710 0.257794 -0.321119
O20   O     O_3   0.247924 0.944892 0.182532 -0.556000
O21   O     O_2   0.245248 0.166026 0.894463 -0.308578
O22   O     O_2   0.213754 0.282960 0.955028 -0.335686
O23   O     O_R   0.959770 0.908340 0.551360 -0.615128
O24   O     O_3   0.085450 0.134323 0.820300 -0.570584
O25   O     O_2   0.734225 0.075628 0.597530 -0.336177
O26   O     O_2   0.797068 0.096202 0.507401 -0.278246
O27   O     O_3   0.814684 0.991497 0.566415 -0.604444
O28   O     O_R   0.856990 0.908380 0.448600 -0.587747
O29   O     O_R   0.050790 0.091560 0.642400 -0.586343
O30   O     O_R   0.948010 0.091600 0.539640 -0.563427
O31   O     O_R   0.143010 0.091580 0.551350 -0.619134
O32   O     O_R   0.040230 0.091620 0.448600 -0.628988
O33   O     O_R   0.055540 0.460120 0.912140 -0.624247
S1    S     S_3+6 0.169138 0.910301 0.206663 -0.008895
S2    S     S_3+6 0.191862 0.209060 0.872813 0.000283
S3    S     S_3+6 0.811198 0.084869 0.585160 -0.000722
Zn1   Zn    Zn3+2 0.499530 0.569060 0.568620 0.955457
Zn2   Zn    Zn3+2 0.500470 0.430940 0.431380 0.986222
Zn3   Zn    Zn3+2 0.068630 0.999950 0.568590 1.014103
Zn4   Zn    Zn3+2 0.931370 0.000000 0.431370 1.031130
Zn5   Zn    Zn3+2 0.072290 0.569090 0.003150 1.002680
Zn6   Zn    Zn3+2 0.934150 0.430980 0.003190 0.948844

loop_
_geom_bond_atom_site_label_1
_geom_bond_atom_site_label_2
_ccdc_geom_bond_type
C45   H6    S    
O28   Zn4   S    
C79   O30   A    
C4    H42   S    
C87   C88   A    
C72   C74   D    
C86   O8    A    
C6    C82   S    
C31   C42   S    
C38   C83   S    
O19   S1    D    
C41   C42   A    
H64   O24   S    
C84   O6    A    
C111  C112  A    
C55   C56   A    
C57   H16   S    
C24   O10   A    
C65   H18   S    
C18   H54   S    
C7    C8    A    
O14   Zn2   S    
C53   C54   A    
C52   C53   A    
O13   Zn1   S    
C4    C108  A    
O24   S2    S    
C26   C27   A    
C62   C63   A    
C49   C63   S    
C5    C6    A    
C104  H39   S    
C68   H21   S    
C18   C19   A    
C38   C39   A    
C53   C64   S    
C57   C59   A    
C40   H3    S    
C106  C107  A    
C16   H62   S    
C15   C16   A    
C5    C36   A    
O30   Zn4   S    
C35   H2    S    
C60   C62   A    
C51   C56   A    
C9    C79   S    
C23   C26   A    
C2    C13   A    
C35   C42   A    
C110  C111  A    
O21   S2    D    
C26   H23   S    
C103  C104  A    
C13   C78   S    
O33   Zn5   S    
C80   H52   S    
C95   C96   A    
O25   S3    D    
C8    C9    A    
C5    H47   S    
C7    C102  S    
C96   C98   A    
C9    C36   A    
O20   S1    S    
C32   H67   S    
C70   C71   A    
O22   S2    D    
C101  S1    S    
C88   H31   S    
C25   C109  A    
O8    Zn5   S    
C48   C50   A    
C66   C67   A    
C59   C60   A    
C101  C103  A    
C47   C102  A    
C21   C22   A    
C33   H68   S    
C77   O12   A    
C62   H17   S    
C72   C75   S    
O11   Zn2   S    
C104  C105  A    
C74   H25   S    
C1    O4    A    
C91   H53   S    
C17   C18   A    
C12   H59   S    
C76   H28   S    
C54   H13   S    
C46   C48   A    
O2    Zn6   S    
C15   H61   S    
C89   C100  S    
C2    C20   A    
C67   C68   A    
O29   Zn3   S    
C59   C81   S    
C35   C38   A    
C85   C97   A    
C78   O23   A    
C48   H8    S    
C49   O15   A    
C39   C40   A    
C1    O1    A    
O9    Zn6   S    
O32   Zn4   S    
C60   C71   S    
C61   C73   A    
C65   C71   A    
C29   C34   A    
C51   C52   A    
C84   C95   S    
C37   O13   A    
C51   H10   S    
C75   C76   D    
C29   C30   A    
C25   H1    S    
C43   H4    S    
C3    H46   S    
C82   O33   A    
C97   C109  A    
C90   C92   A    
C31   C32   A    
C55   H14   S    
C94   C100  A    
C3    C112  A    
O3    Zn5   S    
C106  H41   S    
O27   S3    S    
C20   C85   S    
C39   C50   S    
C36   C111  S    
C33   C34   A    
C30   H66   S    
C83   O3    A    
C43   C50   A    
C25   C61   A    
C74   C86   S    
C73   C85   A    
C6    C7    A    
C14   H60   S    
C40   C41   A    
C81   O31   A    
C37   C76   S    
C12   C14   A    
C65   C66   A    
O5    Zn6   S    
C43   C44   A    
O1    Zn1   S    
O7    Zn6   S    
C45   C46   A    
C10   C61   S    
C56   H9    S    
O12   Zn4   S    
C91   C102  A    
C3    C4    A    
C58   H50   S    
O10   Zn1   S    
O15   Zn1   S    
C93   H29   S    
C44   C45   A    
C29   H56   S    
C57   C64   A    
C66   H19   S    
O26   S3    D    
C94   H35   S    
C79   O29   A    
C105  H40   S    
C84   O7    A    
C54   C55   A    
C86   O9    A    
C92   H33   S    
C22   C23   A    
C17   C28   S    
C19   C24   S    
C21   C28   A    
C69   H51   S    
C8    S3    S    
C75   H26   S    
C1    C41   S    
O16   Zn2   S    
C11   C12   A    
C58   C69   A    
C23   H12   S    
C49   O16   A    
O23   Zn3   S    
O31   Zn3   S    
C105  C106  A    
C82   O2    A    
C21   H55   S    
C99   C100  A    
C13   C17   A    
C32   C33   A    
C19   C20   A    
C110  S2    S    
C109  H38   S    
C73   H15   S    
C37   O14   A    
C47   C58   A    
C30   C31   A    
C108  H43   S    
C98   H36   S    
C44   H5    S    
C80   C91   A    
C27   H34   S    
C87   C93   A    
O4    Zn2   S    
C92   C93   A    
C52   H11   S    
C67   H20   S    
C108  C110  A    
C46   H7    S    
C77   C99   S    
C24   O11   A    
C87   H30   S    
C94   C95   A    
C96   C107  S    
C78   O28   A    
H63   O20   S    
C22   H57   S    
C72   H24   S    
C10   C11   A    
C103  H37   S    
O6    Zn5   S    
C63   C64   A    
C47   H49   S    
C34   H45   S    
H65   O27   S    
C81   O32   A    
C88   C89   A    
C11   H58   S    
C2    H48   S    
C98   C99   A    
C112  H44   S    
C101  C107  A    
C70   H22   S    
C68   C70   A    
C14   C15   A    
C83   O5    A    
C69   C80   A    
C10   C16   A    
C89   C90   A    
O17   Zn3   S    
C77   O17   A    
C97   H27   S    
C90   H32   S    
C27   C28   A    
O18   S1    D    
