data_mof_unit_22180.cif
_audit_creation_date              2012-10-26T20:59:14-0400
_audit_creation_method            fapswitch 2.2
_symmetry_space_group_name_H-M    P1
_symmetry_Int_Tables_number       1
_space_group_crystal_system       triclinic
_cell_length_a                    15.916052
_cell_length_b                    9.150717
_cell_length_c                    7.80411
_cell_angle_alpha                 89.78464
_cell_angle_beta                  89.38186
_cell_angle_gamma                 89.973028
_cell_volume                      1136.54195674

loop_
_atom_site_label
_atom_site_type_symbol
_atom_type_description
_atom_site_fract_x
_atom_site_fract_y
_atom_site_fract_z
_atom_type_partial_charge
C1    C     C_1   0.500000 0.065270 0.500267 -0.000362
C2    C     C_3   0.971251 0.631265 0.548890 0.146449
C3    C     C_1   0.250227 0.500206 0.503466 0.080531
C4    C     C_1   0.749773 0.499794 0.496534 0.080536
C5    C     C_3   0.025442 0.527903 0.657548 0.142091
C6    C     C_3   0.974558 0.472096 0.342452 0.142066
C7    C     C_3   0.083671 0.500081 0.502557 -0.032023
C8    C     C_3   0.916328 0.499918 0.497444 -0.032010
C9    C     C_1   0.174993 0.500254 0.504761 0.112120
C10   C     C_1   0.825007 0.499745 0.495239 0.112132
C11   C     C_1   0.500000 0.934730 0.499733 -0.000361
C12   C     C_R   0.500000 0.220003 0.500196 0.557777
C13   C     C_R   0.500000 0.779997 0.499804 0.557780
C14   C     C_R   0.339554 0.500074 0.500934 0.550895
C15   C     C_R   0.660446 0.499926 0.499066 0.550895
C16   C     C_3   0.970626 0.396702 0.607520 0.151671
C17   C     C_3   0.029374 0.603298 0.392482 0.151798
C18   C     C_3   0.028748 0.368734 0.451112 0.146290
Cu1   Cu    Cu3+1 0.500010 0.500000 0.669080 1.110588
Cu2   Cu    Cu3+1 0.499990 0.500000 0.330920 1.110587
H1    H     H_    0.959431 0.136857 0.236611 0.386131
H2    H     H_    0.040493 0.863230 0.763576 0.386166
H3    H     H_    0.050957 0.253077 0.868228 0.364752
H4    H     H_    0.949109 0.746848 0.131494 0.364724
H5    H     H_    0.996340 0.411920 0.112384 0.373580
H6    H     H_    0.003657 0.588051 0.887622 0.373497
N1    N     N_1   0.499990 0.500000 0.076820 -0.060970
N2    N     N_1   0.500010 0.500000 0.923180 -0.060970
O1    O     O_R   0.500000 0.288400 0.642760 -0.494737
O2    O     O_2   0.120483 0.131188 0.520159 -0.174790
O3    O     O_3   0.988874 0.087334 0.331709 -0.331772
O4    O     O_2   0.879521 0.868818 0.479844 -0.174682
O5    O     O_2   0.876111 0.779315 0.775996 -0.253543
O6    O     O_3   0.011125 0.912658 0.668311 -0.331879
O7    O     O_2   0.869160 0.339490 0.876368 -0.231234
O8    O     O_2   0.879480 0.153816 0.653008 -0.135482
O9    O     O_3   0.004854 0.180812 0.861662 -0.404724
O10   O     O_2   0.120529 0.846174 0.347017 -0.135424
O11   O     O_2   0.130824 0.660538 0.123611 -0.231300
O12   O     O_R   0.500000 0.711600 0.357240 -0.494736
O13   O     O_3   0.995136 0.819229 0.138411 -0.404681
O14   O     O_3   0.945850 0.442937 0.177889 -0.639324
O15   O     O_3   0.054150 0.557063 0.822110 -0.639288
O16   O     O_R   0.500000 0.288400 0.357240 -0.494642
O17   O     O_R   0.500000 0.711600 0.642760 -0.494641
O18   O     O_R   0.379080 0.500000 0.642760 -0.494507
O19   O     O_R   0.620920 0.500000 0.357240 -0.494505
O20   O     O_R   0.379070 0.500000 0.357190 -0.487164
O21   O     O_R   0.620930 0.500000 0.642810 -0.487161
O22   O     O_2   0.123881 0.220678 0.223998 -0.253413
S1    S     S_3+6 0.069125 0.198185 0.379929 0.137274
S2    S     S_3+6 0.930874 0.801812 0.620076 0.137270
S3    S     S_3+6 0.927894 0.264807 0.752860 0.121345
S4    S     S_3+6 0.072103 0.735205 0.247158 0.121378

loop_
_geom_bond_atom_site_label_1
_geom_bond_atom_site_label_2
_ccdc_geom_bond_type
H5    O14   S    
H6    O15   S    
C6    C8    S    
O2    S1    D    
Cu1   O17   S    
C3    C9    T    
Cu2   N1    S    
C12   O1    A    
O7    S3    D    
C11   C13   S    
Cu1   O21   S    
O6    S2    S    
Cu1   Cu2   S    
O10   S4    D    
C15   O19   A    
C7    C18   S    
O9    S3    S    
C4    C15   S    
O22   S1    D    
C5    O15   S    
Cu1   O18   S    
C14   O18   A    
C1    C11   T    
C2    C17   S    
C13   O17   A    
H4    O13   S    
H1    O3    S    
Cu2   O20   S    
C3    C14   S    
C2    S2    S    
H2    O6    S    
C16   C18   S    
Cu2   O16   S    
C18   S1    S    
C5    C7    S    
C15   O21   A    
Cu1   N2    S    
Cu2   O12   S    
C6    C18   S    
C2    C8    S    
O13   S4    S    
C2    C5    S    
C13   O12   A    
C4    C10   T    
O11   S4    D    
O4    S2    D    
C8    C16   S    
C6    O14   S    
N1    N2    T    
C7    C9    S    
C6    C17   S    
C16   S3    S    
C12   O16   A    
C5    C16   S    
C14   O20   A    
O8    S3    D    
C7    C17   S    
H3    O9    S    
C17   S4    S    
C8    C10   S    
C1    C12   S    
Cu2   O19   S    
O3    S1    S    
O5    S2    D    
Cu1   O1    S    
