data_mof_unit_20317.cif
_audit_creation_date              2012-10-26T20:44:05-0400
_audit_creation_method            fapswitch 2.2
_symmetry_space_group_name_H-M    P1
_symmetry_Int_Tables_number       1
_space_group_crystal_system       triclinic
_cell_length_a                    10.847332
_cell_length_b                    9.535666
_cell_length_c                    19.33588
_cell_angle_alpha                 90.015406
_cell_angle_beta                  90.20693
_cell_angle_gamma                 90.058425
_cell_volume                      2000.02226921

loop_
_atom_site_label
_atom_site_type_symbol
_atom_type_description
_atom_site_fract_x
_atom_site_fract_y
_atom_site_fract_z
_atom_type_partial_charge
C1    C     C_R   0.869411 0.491507 0.470973 -0.020911
C2    C     C_R   0.736838 0.498561 0.490540 0.542637
C3    C     C_R   0.499918 0.499978 0.368009 0.522770
C4    C     C_R   0.500019 0.500012 0.632028 0.551633
C5    C     C_R   0.063462 0.361608 0.470113 0.005847
C6    C     C_R   0.931203 0.611849 0.447539 0.002143
C7    C     C_R   0.933041 0.361674 0.467368 -0.003794
C8    C     C_R   0.061241 0.618412 0.454685 -0.003527
C9    C     C_R   0.388707 0.483744 0.742702 -0.136036
C10   C     C_R   0.388358 0.514173 0.257051 -0.142929
C11   C     C_R   0.610832 0.485499 0.257291 -0.139175
C12   C     C_R   0.126940 0.494083 0.474636 -0.015562
C13   C     C_R   0.610758 0.516233 0.743351 -0.140565
C14   C     C_R   0.388389 0.484425 0.814760 -0.131869
C15   C     C_R   0.388053 0.513517 0.185003 -0.131288
C16   C     C_R   0.610704 0.486077 0.185247 -0.130934
C17   C     C_R   0.610675 0.515435 0.815412 -0.132069
C18   C     C_R   0.499430 0.499896 0.851288 0.033334
C19   C     C_R   0.499276 0.499806 0.148936 0.033980
C20   C     C_R   0.476008 0.074008 0.440861 -0.011708
C21   C     C_R   0.525278 0.925901 0.559016 -0.006120
C22   C     C_R   0.524125 0.074177 0.559172 -0.009911
C23   C     C_R   0.498821 0.629665 0.963480 0.024155
C24   C     C_R   0.474677 0.925788 0.441004 -0.011598
C25   C     C_R   0.499831 0.500025 0.707067 0.023800
C26   C     C_R   0.499709 0.499908 0.293072 0.026500
C27   C     C_3   0.131721 0.220836 0.462734 -0.236424
C28   C     C_3   0.188944 0.206635 0.390932 -0.422822
C29   C     C_3   0.860368 0.713643 0.401328 -0.250279
C30   C     C_3   0.829491 0.851088 0.437134 -0.404911
C31   C     C_3   0.862820 0.225387 0.453954 -0.235817
C32   C     C_3   0.837376 0.147271 0.521992 -0.401677
C33   C     C_3   0.127844 0.755983 0.439425 -0.240519
C34   C     C_R   0.499600 0.370031 0.036773 0.024268
C35   C     C_3   0.142082 0.844525 0.505131 -0.399940
C36   C     C_3   0.496765 0.767656 0.923054 -0.268933
C37   C     C_3   0.364956 0.815953 0.908584 -0.443680
C38   C     C_3   0.498506 0.232049 0.077225 -0.268565
C39   C     C_3   0.367052 0.182268 0.091214 -0.445005
C40   C     C_3   0.499527 0.767599 0.077330 -0.268629
C41   C     C_3   0.630937 0.817545 0.091861 -0.444733
C42   C     C_3   0.501474 0.232077 0.922960 -0.268744
C43   C     C_3   0.633262 0.183592 0.909104 -0.444257
C44   C     C_R   0.498554 0.629638 0.036822 0.024269
C45   C     C_R   0.499458 0.370047 0.963430 0.024147
C46   C     C_R   0.499091 0.499825 0.072725 0.009573
C47   C     C_R   0.499220 0.499867 0.927515 0.009769
C48   C     C_R   0.261647 0.499088 0.492334 0.539803
Cu1   Cu    Cu3+1 0.500000 0.640660 0.500000 0.903417
Cu2   Cu    Cu3+1 0.500000 0.359340 0.500000 0.896098
H1    H     H_    0.457176 0.128439 0.393067 0.114607
H2    H     H_    0.301702 0.524472 0.157228 0.099314
H3    H     H_    0.696891 0.475076 0.157661 0.099150
H4    H     H_    0.696746 0.527734 0.843347 0.100549
H5    H     H_    0.116332 0.217135 0.350620 0.129060
H6    H     H_    0.260021 0.288060 0.381829 0.179166
H7    H     H_    0.231467 0.101445 0.385462 0.113055
H8    H     H_    0.196890 0.199090 0.505355 0.175885
H9    H     H_    0.073286 0.128260 0.469480 0.120118
H10   H     H_    0.748863 0.900621 0.411412 0.138406
H11   H     H_    0.808218 0.834571 0.492607 0.181605
H12   H     H_    0.547102 0.871374 0.606428 0.118192
H13   H     H_    0.907771 0.924266 0.432965 0.125591
H14   H     H_    0.911853 0.733879 0.352812 0.111335
H15   H     H_    0.772999 0.665224 0.382858 0.152990
H16   H     H_    0.918546 0.086733 0.539581 0.108724
H17   H     H_    0.812866 0.220349 0.564438 0.175374
H18   H     H_    0.759566 0.074021 0.514481 0.143355
H19   H     H_    0.776826 0.243325 0.424172 0.168160
H20   H     H_    0.910223 0.158371 0.415761 0.106784
H21   H     H_    0.175385 0.781714 0.549648 0.181043
H22   H     H_    0.208754 0.930624 0.495773 0.134295
H23   H     H_    0.545251 0.128770 0.606690 0.117988
H24   H     H_    0.052219 0.889689 0.520306 0.121392
H25   H     H_    0.217756 0.737121 0.414085 0.157469
H26   H     H_    0.080761 0.819856 0.399801 0.118378
H27   H     H_    0.316321 0.739155 0.875131 0.157505
H28   H     H_    0.312521 0.828150 0.957376 0.138708
H29   H     H_    0.366890 0.918602 0.881501 0.128917
H30   H     H_    0.547670 0.851937 0.950304 0.135204
H31   H     H_    0.546201 0.758713 0.873230 0.148038
H32   H     H_    0.317806 0.258648 0.124350 0.156088
H33   H     H_    0.314757 0.169150 0.042213 0.139238
H34   H     H_    0.453318 0.871197 0.393515 0.111931
H35   H     H_    0.369733 0.079819 0.118465 0.127022
H36   H     H_    0.549956 0.148314 0.050193 0.135259
H37   H     H_    0.547935 0.241614 0.127234 0.147285
H38   H     H_    0.680247 0.741250 0.125193 0.156089
H39   H     H_    0.683241 0.830685 0.043082 0.139058
H40   H     H_    0.628158 0.920011 0.119109 0.127598
H41   H     H_    0.447977 0.851270 0.050121 0.135191
H42   H     H_    0.450119 0.757949 0.127137 0.146863
H43   H     H_    0.682048 0.260309 0.875893 0.157018
H44   H     H_    0.685585 0.171345 0.958139 0.138954
H45   H     H_    0.302663 0.471200 0.714740 0.100717
H46   H     H_    0.631275 0.080934 0.881996 0.128113
H47   H     H_    0.450394 0.147870 0.949933 0.135253
H48   H     H_    0.452174 0.241121 0.872900 0.148281
H49   H     H_    0.302193 0.525227 0.284710 0.088461
H50   H     H_    0.697159 0.474368 0.285122 0.086233
H51   H     H_    0.696955 0.528794 0.715894 0.098854
H52   H     H_    0.302164 0.472079 0.842187 0.100382
N1    N     N_R   0.500000 0.852070 0.500000 -0.223186
N2    N     N_R   0.500000 0.147930 0.500000 -0.225098
O1    O     O_R   0.319640 0.618740 0.500000 -0.499441
O2    O     O_R   0.680360 0.381260 0.500000 -0.504132
O3    O     O_R   0.680360 0.618740 0.500000 -0.493874
O4    O     O_R   0.319640 0.381260 0.500000 -0.502225
O5    O     O_R   0.500020 0.618830 0.400190 -0.517287
O6    O     O_R   0.499980 0.381170 0.599810 -0.502194
O7    O     O_R   0.499980 0.618830 0.599810 -0.501359
O8    O     O_R   0.500020 0.381170 0.400190 -0.520663

loop_
_geom_bond_atom_site_label_1
_geom_bond_atom_site_label_2
_ccdc_geom_bond_type
C41   H39   S    
C35   H24   S    
Cu2   N2    S    
C14   C18   A    
C12   C48   S    
C18   C47   S    
C4    C25   S    
C28   H6    S    
C19   C46   S    
C9    C25   A    
Cu1   O3    S    
C31   C32   S    
C28   H7    S    
C15   C19   A    
C37   H29   S    
C38   H36   S    
C32   H16   S    
C36   C37   S    
C20   H1    S    
C10   C15   A    
C42   H48   S    
C38   C39   S    
C14   H52   S    
C2    O3    A    
Cu2   O6    S    
C43   H44   S    
C22   N2    A    
C3    O8    A    
C1    C2    S    
C16   H3    S    
C43   H43   S    
C5    C27   S    
C33   H25   S    
C31   H20   S    
C20   C24   A    
C30   H10   S    
C34   C46   A    
C9    H45   S    
Cu1   O7    S    
C10   C26   A    
C41   H40   S    
C29   H14   S    
C35   H21   S    
C1    C7    A    
C21   C22   A    
Cu2   O4    S    
C13   C25   A    
C28   H5    S    
C44   C46   A    
C43   H46   S    
C45   C47   A    
C23   C47   A    
C1    C6    A    
C7    C31   S    
C5    C12   A    
C36   H30   S    
C42   H47   S    
C5    C7    A    
C6    C8    A    
C11   C26   A    
C37   H27   S    
C2    O2    A    
C23   C44   A    
C11   H50   S    
C42   C45   S    
C9    C14   A    
C29   C30   S    
C11   C16   A    
C33   H26   S    
C48   O1    A    
C31   H19   S    
C36   H31   S    
C8    C12   A    
Cu2   O8    S    
C17   C18   A    
C34   C45   A    
C15   H2    S    
C40   H42   S    
C21   H12   S    
C32   H17   S    
C29   H15   S    
C40   C41   S    
C4    O7    A    
C35   H22   S    
Cu1   Cu2   S    
C42   C43   S    
C39   H35   S    
C13   H51   S    
Cu1   O5    S    
C41   H38   S    
C4    O6    A    
C34   C38   S    
C3    C26   S    
C39   H32   S    
C27   H8    S    
Cu1   N1    S    
Cu1   O1    S    
C20   N2    A    
C37   H28   S    
C13   C17   A    
C38   H37   S    
C24   N1    A    
C24   H34   S    
C39   H33   S    
C27   H9    S    
C32   H18   S    
C48   O4    A    
C3    O5    A    
C16   C19   A    
C33   C35   S    
C8    C33   S    
C40   H41   S    
C10   H49   S    
C21   N1    A    
C40   C44   S    
C6    C29   S    
C23   C36   S    
C30   H11   S    
C27   C28   S    
Cu2   O2    S    
C22   H23   S    
C30   H13   S    
C17   H4    S    
