data_mof_unit_8854.cif
_audit_creation_date              2013-03-05T15:40:44-0500
_audit_creation_method            fapswitch 2.2
_symmetry_space_group_name_H-M    P1
_symmetry_Int_Tables_number       1
_space_group_crystal_system       triclinic
_cell_length_a                    6.922401
_cell_length_b                    17.324985
_cell_length_c                    24.09674
_cell_angle_alpha                 104.503964
_cell_angle_beta                  90.313268
_cell_angle_gamma                 90.072392
_cell_volume                      2797.78047232

loop_
_atom_site_label
_atom_site_type_symbol
_atom_site_description
_atom_site_fract_x
_atom_site_fract_y
_atom_site_fract_z
_atom_type_partial_charge
O1    O     O_R   0.494290 0.391990 0.999150 -0.562396
O2    O     O_R   0.827170 0.534410 0.082350 -0.527370
O3    O     O_R   0.994360 0.608010 0.000850 -0.551560
C1    C     C_R   0.658792 0.551243 0.105989 0.890414
O4    O     O_R   0.824210 0.388010 0.004470 -0.569816
O5    O     O_R   0.991370 0.460560 0.922410 -0.565656
C2    C     C_R   0.654435 0.354894 0.001476 0.847806
O6    O     O_R   0.497270 0.539440 0.077590 -0.546906
O7    O     O_3   0.659770 0.523970 0.973170 -0.283844
V1    V     V_3+5 0.935840 0.495550 0.004980 1.176011
O8    O     O_R   0.320910 0.465590 0.917650 -0.567858
C3    C     C_R   0.151574 0.450163 0.893901 0.820650
O9    O     O_R   0.323870 0.611990 0.995530 -0.568146
C4    C     C_R   0.154998 0.644858 0.997660 0.834944
V2    V     V_3+5 0.435470 0.504450 0.995020 1.158569
O10   O     O_3   0.161670 0.476030 0.026830 -0.267333
C5    C     C_2   0.146869 0.729658 0.995140 0.218946
C6    C     C_2   0.976456 0.769878 0.002245 -0.191575
H1    H     H_    0.843997 0.739911 0.009067 0.069075
C7    C     C_R   0.072952 0.247058 0.627324 0.578322
N1    N     N_R   0.105736 0.327054 0.648892 -0.452797
C8    C     C_R   0.123835 0.376998 0.613172 0.550748
C9    C     C_R   0.107178 0.347014 0.553314 -0.015466
C10   C     C_R   0.072677 0.264882 0.530479 -0.043672
C11   C     C_R   0.056143 0.214445 0.567730 -0.090498
C12   C     C_R   0.122600 0.397234 0.515943 -0.082629
C13   C     C_R   0.103918 0.366490 0.456808 -0.065901
C14   C     C_R   0.070475 0.284652 0.433473 -0.010745
C15   C     C_R   0.054546 0.233340 0.470383 -0.082145
C16   C     C_R   0.020552 0.150911 0.447360 -0.119683
C17   C     C_R   0.997576 0.100998 0.485684 0.347399
C18   C     C_R   0.019404 0.133024 0.544904 -0.091476
C19   C     C_R   0.051589 0.253038 0.373963 0.560152
N2    N     N_R   0.025465 0.172787 0.351701 -0.451102
C20   C     C_R   0.015696 0.121582 0.386841 0.597323
O11   O     O_2   0.057001 0.199133 0.663422 -0.511425
O12   O     O_2   0.155913 0.455513 0.635479 -0.541849
H2    H     H_    0.148696 0.460558 0.532250 0.127060
H3    H     H_    0.116477 0.407158 0.429410 0.137709
O13   O     O_2   0.058549 0.302308 0.338619 -0.545933
O14   O     O_2   0.007907 0.042461 0.362996 -0.460927
H4    H     H_    0.001070 0.093945 0.573272 0.180951
C21   C     C_R   0.841047 0.100250 0.266282 0.018206
H5    H     H_    0.723702 0.092809 0.294076 0.120989
C22   C     C_R   0.825652 0.065914 0.207182 0.355039
C23   C     C_R   0.977277 0.076802 0.170065 -0.175866
C24   C     C_R   0.144668 0.118249 0.194778 -0.135175
H6    H     H_    0.263872 0.127308 0.168148 0.126527
C25   C     C_R   0.160550 0.149513 0.254033 0.005029
H7    H     H_    0.291755 0.180289 0.271809 0.104959
C26   C     C_R   0.008436 0.141343 0.290262 0.187082
C27   C     C_R   0.950290 0.366361 0.743608 -0.005288
H8    H     H_    0.811555 0.348473 0.723438 0.071147
C28   C     C_R   0.961159 0.396434 0.803119 -0.117554
H9    H     H_    0.829310 0.400925 0.827708 0.093670
C29   C     C_R   0.140079 0.419630 0.830456 -0.102361
C30   C     C_R   0.307501 0.412470 0.796515 -0.119712
H10   H     H_    0.447572 0.429699 0.815961 0.091861
C31   C     C_R   0.296033 0.382742 0.736901 0.000939
H11   H     H_    0.426278 0.377348 0.711526 0.073467
C32   C     C_R   0.117499 0.359218 0.710134 0.280229
C33   C     C_R   0.472530 0.872942 0.612646 0.660448
N3    N     N_R   0.499827 0.823573 0.648531 -0.431701
C34   C     C_R   0.536732 0.743885 0.626918 0.606492
C35   C     C_R   0.552639 0.711435 0.567263 -0.018208
C36   C     C_R   0.528775 0.761745 0.529992 -0.039622
C37   C     C_R   0.486866 0.843083 0.552697 -0.053067
C38   C     C_R   0.593784 0.630281 0.544066 -0.063558
C39   C     C_R   0.612571 0.599721 0.484820 -0.078204
C40   C     C_R   0.590464 0.649486 0.447189 -0.022781
C41   C     C_R   0.547670 0.730721 0.469896 -0.042895
C42   C     C_R   0.524202 0.781054 0.432646 -0.057829
C43   C     C_R   0.479317 0.861850 0.455759 0.043389
C44   C     C_R   0.461667 0.892548 0.515011 0.016479
C45   C     C_R   0.610902 0.620185 0.387337 0.555995
N4    N     N_R   0.589679 0.670067 0.351526 -0.447417
C46   C     C_R   0.546266 0.749208 0.373120 0.591708
O15   O     O_2   0.432811 0.950728 0.634873 -0.494428
O16   O     O_2   0.560513 0.696372 0.663032 -0.540468
H12   H     H_    0.612633 0.590127 0.571635 0.137167
H13   H     H_    0.645158 0.536993 0.468650 0.125822
O17   O     O_2   0.653340 0.542626 0.365243 -0.545995
O18   O     O_2   0.523354 0.796964 0.337131 -0.488442
H14   H     H_    0.458164 0.901762 0.428133 0.173591
H15   H     H_    0.428648 0.955240 0.531159 0.146779
C47   C     C_R   0.769846 0.662088 0.261759 -0.044855
H16   H     H_    0.875473 0.703033 0.286394 0.136807
C48   C     C_R   0.788539 0.635449 0.201710 0.301425
C49   C     C_R   0.647776 0.582665 0.169518 -0.183125
C50   C     C_R   0.490854 0.559621 0.198802 -0.120239
H17   H     H_    0.380932 0.519635 0.175490 0.113348
C51   C     C_R   0.473388 0.587320 0.258322 0.030545
H18   H     H_    0.350235 0.569224 0.279598 0.098838
C52   C     C_R   0.612159 0.638946 0.290271 0.213972
C53   C     C_R   0.323444 0.847114 0.739603 -0.001262
H19   H     H_    0.201317 0.815254 0.716387 0.142551
C54   C     C_R   0.309738 0.878916 0.798910 -0.083144
H20   H     H_    0.177036 0.870584 0.820326 0.104265
C55   C     C_R   0.467023 0.919263 0.830362 -0.156767
C56   C     C_R   0.637012 0.928424 0.800826 -0.171361
H21   H     H_    0.759265 0.959467 0.824613 0.136396
C57   C     C_R   0.652027 0.897881 0.740938 0.373231
C58   C     C_R   0.492791 0.856101 0.709997 0.200421
C59   C     C_2   0.642803 0.269797 0.001889 -0.248702
H22   H     H_    0.777453 0.239078 0.005244 0.102620
C60   C     C_2   0.472701 0.230164 0.997980 -0.248886
H23   H     H_    0.338050 0.260883 0.994628 0.102422
O19   O     O_R   0.618210 0.960470 0.922400 -0.564510
O20   O     O_R   0.291310 0.111960 0.995450 -0.568102
O21   O     O_R   0.124210 0.039530 0.077580 -0.554192
C61   C     C_R   0.461078 0.145078 0.998425 0.854311
O22   O     O_R   0.288310 0.965490 0.917650 -0.557042
O23   O     O_R   0.121180 0.892010 0.999220 -0.495763
C62   C     C_R   0.456868 0.950022 0.893875 0.861388
O24   O     O_R   0.621230 0.107990 0.000760 -0.560518
O25   O     O_3   0.455770 0.976060 0.026840 -0.241796
V3    V     V_3+5 0.179680 0.004440 0.995020 1.181952
O26   O     O_R   0.791670 0.888040 0.004570 -0.564535
C63   C     C_R   0.961499 0.854846 0.001396 0.877378
O27   O     O_R   0.794680 0.034510 0.082370 -0.555619
C64   C     C_R   0.964241 0.048001 0.106295 0.823633
V4    V     V_3+5 0.680070 0.995560 0.005010 1.177350
O28   O     O_3   0.953840 0.023940 0.973160 -0.285802
O29   O     O_3   0.313947 0.768395 0.985210 -0.701481
H24   H     H_    0.424095 0.730974 0.978153 0.312089
N5    N     N_R   0.944122 0.666277 0.174277 0.096308
O30   O     O_R   0.910351 0.692635 0.129130 -0.361975
O31   O     O_R   0.111024 0.681163 0.199861 -0.350298
N6    N     N_R   0.828597 0.909982 0.712706 0.091476
O32   O     O_R   0.878320 0.862028 0.664218 -0.372415
O33   O     O_R   0.946416 0.967302 0.736929 -0.336229
N7    N     N_R   0.939544 0.019090 0.466180 0.120694
O34   O     O_R   0.776538 0.001590 0.438748 -0.330918
O35   O     O_R   0.024346 0.965087 0.486660 -0.363844
O36   O     O_3   0.662991 0.020952 0.188099 -0.691858
H25   H     H_    0.701488 0.975238 0.156459 0.328004

loop_
_geom_bond_atom_site_label_1
_geom_bond_atom_site_label_2
_geom_bond_distance
_ccdc_geom_bond_type
C38   H12   1.083100 S    
N5    O30   1.301152 A    
C43   C44   1.399287 A    
C1    C49   1.493195 S    
C53   H19   1.082277 S    
C57   N6    1.442438 S    
C1    O6    1.296635 A    
C55   C62   1.491310 S    
C59   C60   1.353233 D    
C54   H20   1.083141 S    
C50   H17   1.083295 S    
O20   V3    2.013406 S    
O36   H25   0.989886 S    
C24   C25   1.398197 A    
C22   C23   1.425303 A    
C29   C30   1.409750 A    
C12   C13   1.395922 A    
C17   N7    1.434721 S    
O25   V4    1.702446 S    
C33   C37   1.411254 A    
N1    C8    1.370836 A    
C14   C15   1.410796 A    
N2    C20   1.373075 A    
C27   C32   1.402242 A    
O20   C61   1.300856 A    
O21   C64   1.297882 A    
O5    C3    1.296572 A    
C16   C17   1.423763 A    
C47   C48   1.411106 A    
C30   C31   1.401130 A    
C7    C11   1.409436 A    
C46   O18   1.349086 S    
O4    V1    2.013288 S    
V2    O10   2.150564 S    
O25   V3    2.158141 S    
C6    H1    1.086521 S    
O26   V4    2.015123 S    
C9    C12   1.404494 A    
O19   C62   1.296688 A    
O26   C63   1.303577 A    
C51   H18   1.082834 S    
C48   N5    1.437141 S    
C47   C52   1.403351 A    
C42   C46   1.411170 A    
N4    C52   1.448350 S    
O23   C63   1.286435 A    
O8    V2    1.977822 S    
C36   C41   1.419676 A    
C27   C28   1.399290 A    
C38   C39   1.399642 A    
C25   C26   1.400914 A    
C9    C10   1.410694 A    
C23   C64   1.494245 S    
C40   C41   1.408903 A    
O1    V2    2.017553 S    
C15   C16   1.415443 A    
O7    V1    2.158141 S    
C43   H14   1.082830 S    
N1    C32   1.442774 S    
C48   C49   1.421844 A    
C11   C18   1.402128 A    
C36   C37   1.409214 A    
C31   H11   1.083115 S    
O24   V4    2.017914 S    
O9    C4    1.296593 A    
C4    C5    1.486645 S    
C57   C58   1.418992 A    
O21   V3    1.969261 S    
O22   C62   1.301037 A    
C59   H22   1.086541 S    
C54   C55   1.404343 A    
C53   C58   1.404199 A    
C5    C6    1.360514 D    
C60   C61   1.478923 S    
C28   C29   1.409496 A    
C31   C32   1.402809 A    
C19   O13   1.349370 S    
C22   O36   1.377979 S    
C24   H6    1.083160 S    
C10   C11   1.405757 A    
N3    C58   1.447923 S    
C13   H3    1.083186 S    
O4    C2    1.300856 A    
C47   H16   1.083164 S    
C12   H2    1.083258 S    
C8    O12   1.349173 S    
O2    C1    1.301159 A    
C45   N4    1.373161 A    
C33   N3    1.372618 A    
C5    O29   1.388106 S    
C50   C51   1.399723 A    
C55   C56   1.407725 A    
C35   C38   1.406929 A    
C51   C52   1.400127 A    
C19   N2    1.370495 A    
N2    C26   1.447896 S    
C37   C44   1.406406 A    
C23   C24   1.410357 A    
C27   H8    1.083181 S    
N4    C46   1.373458 A    
C21   C22   1.402553 A    
C3    C29   1.488937 S    
O3    C4    1.293726 A    
O23   V3    2.016320 S    
C16   C20   1.419241 A    
C56   C57   1.411615 A    
C14   C19   1.406343 A    
C35   C36   1.408714 A    
O6    V2    1.973619 S    
C2    C59   1.478915 S    
O9    V2    2.015064 S    
C21   H5    1.083493 S    
C34   O16   1.348923 S    
O2    V1    1.970510 S    
C40   C45   1.411886 A    
O27   C64   1.299665 A    
O27   V4    1.977917 S    
N6    O32   1.301066 A    
C28   H9    1.083135 S    
N5    O31   1.301250 A    
O1    C2    1.290091 A    
C33   O15   1.348932 S    
C17   C18   1.402807 A    
O19   V4    1.974696 S    
C42   C43   1.406649 A    
O5    V1    1.969474 S    
O8    C3    1.299333 A    
C53   C54   1.400748 A    
C45   O17   1.348952 S    
C34   C35   1.411254 A    
O7    V2    1.702717 S    
C41   C42   1.408286 A    
O3    V1    2.016364 S    
V1    O10   1.707913 S    
C21   C26   1.402834 A    
C30   H10   1.083084 S    
O22   V3    1.970567 S    
C56   H21   1.083116 S    
N7    O34   1.301054 A    
C44   H15   1.083174 S    
V3    O28   1.707967 S    
C39   C40   1.406924 A    
C20   O14   1.347968 S    
C39   H13   1.083169 S    
N3    C34   1.372861 A    
C7    O11   1.349373 S    
C10   C15   1.418759 A    
C7    N1    1.370972 A    
N7    O35   1.301155 A    
C25   H7    1.082961 S    
C60   H23   1.086542 S    
C13   C14   1.406575 A    
C18   H4    1.083661 S    
C8    C9    1.409389 A    
C61   O24   1.290091 A    
V4    O28   2.150564 S    
C49   C50   1.409163 A    
C6    C63   1.481082 S    
O29   H24   0.988976 S    
N6    O33   1.301722 A    
