data_mof_unit_32830.cif
_audit_creation_date              2013-03-05T15:49:18-0500
_audit_creation_method            fapswitch 2.2
_symmetry_space_group_name_H-M    P1
_symmetry_Int_Tables_number       1
_space_group_crystal_system       triclinic
_cell_length_a                    10.628362
_cell_length_b                    12.072551
_cell_length_c                    12.840859
_cell_angle_alpha                 94.664176
_cell_angle_beta                  91.895422
_cell_angle_gamma                 84.06016
_cell_volume                      1632.85077901

loop_
_atom_site_label
_atom_site_type_symbol
_atom_site_description
_atom_site_fract_x
_atom_site_fract_y
_atom_site_fract_z
_atom_type_partial_charge
O1    O     O_R   0.506170 0.421690 0.658830 -0.636382
O2    O     O_R   0.491330 0.609320 0.646410 -0.663302
C1    C     C_R   0.498897 0.523097 0.700247 0.869150
O3    O     O_R   0.690660 0.406170 0.506210 -0.595542
O4    O     O_R   0.675810 0.593790 0.493790 -0.598379
C2    C     C_R   0.739772 0.495964 0.493426 0.861281
Zn1   Zn    Zn3+2 0.509910 0.374720 0.508290 1.067424
Zn2   Zn    Zn3+2 0.490090 0.625280 0.491710 1.033813
O5    O     O_R   0.508670 0.390680 0.353590 -0.497112
O6    O     O_R   0.493830 0.578310 0.341170 -0.579869
O7    O     O_R   0.324190 0.406210 0.506210 -0.565150
O8    O     O_R   0.309340 0.593830 0.493790 -0.603887
C3    C     C_R   0.508142 0.476707 0.299736 1.025149
C4    C     C_R   0.260138 0.501847 0.496484 0.883595
H1    H     H_    0.877647 0.590885 0.637042 0.153179
C5    C     C_R   0.895006 0.352594 0.329038 0.314922
C6    C     C_R   0.959950 0.324286 0.235968 -0.253297
H2    H     H_    0.924421 0.265786 0.176499 0.201268
C7    C     C_R   0.073316 0.366697 0.220098 -0.146292
H3    H     H_    0.119923 0.346849 0.146182 0.175674
C8    C     C_R   0.127881 0.433368 0.298843 0.507695
C9    C     C_R   0.067588 0.457550 0.396686 -0.051417
C10   C     C_R   0.943279 0.430459 0.406475 -0.044770
C11   C     C_R   0.873785 0.487233 0.491394 -0.027318
C12   C     C_R   0.931522 0.549172 0.572242 -0.145083
H4    H     H_    0.105861 0.595482 0.638731 0.149493
C13   C     C_R   0.059334 0.554551 0.572002 -0.157688
C14   C     C_R   0.126803 0.507440 0.485961 -0.053863
C15   C     C_R   0.516435 0.460468 0.187479 -0.203648
C16   C     C_R   0.507338 0.538376 0.811634 -0.076162
C17   C     C_R   0.603419 0.622247 0.967893 0.508406
C18   C     C_R   0.576889 0.620345 0.860417 -0.329620
C19   C     C_R   0.460222 0.459456 0.867639 -0.202241
C20   C     C_R   0.484467 0.459121 0.973408 0.021513
C21   C     C_R   0.554877 0.541530 0.026047 0.006319
C22   C     C_R   0.572985 0.539845 0.134615 0.191902
C23   C     C_R   0.456007 0.374263 0.133135 0.517546
C24   C     C_R   0.440181 0.374815 0.025624 -0.307781
H5    H     H_    0.389975 0.310949 0.982898 0.146572
H6    H     H_    0.615815 0.679087 0.814011 0.162072
H7    H     H_    0.406908 0.395841 0.827710 0.160931
N1    N     N_R   0.523130 0.207800 0.519340 -0.118136
N2    N     N_R   0.476870 0.792180 0.480660 -0.225483
C25   C     C_R   0.371979 0.957392 0.410334 -0.283418
C26   C     C_R   0.384206 0.841607 0.418546 0.438142
C27   C     C_R   0.559203 0.857281 0.537091 0.540794
C28   C     C_R   0.549983 0.975358 0.530832 -0.031408
C29   C     C_R   0.455847 0.025836 0.464661 -0.251717
C30   C     C_R   0.446693 0.144118 0.457707 0.625830
C31   C     C_R   0.612603 0.161114 0.584434 -0.170002
C32   C     C_R   0.630036 0.044638 0.591252 0.438504
H8    H     H_    0.672107 0.215196 0.630284 0.162406
H9    H     H_    0.294285 0.991972 0.362609 0.194463
O9    O     O_3   0.362161 0.198502 0.390629 -0.691106
H10   H     H_    0.350403 0.148460 0.327010 0.340779
O10   O     O_3   0.723160 0.998577 0.657078 -0.672040
H11   H     H_    0.769401 0.058761 0.692703 0.331858
N3    N     N_R   0.297016 0.776300 0.361376 0.215152
O11   O     O_R   0.183188 0.777647 0.395983 -0.373467
O12   O     O_R   0.316938 0.746672 0.263193 -0.350272
O13   O     O_3   0.652649 0.809737 0.600803 -0.684280
H12   H     H_    0.626246 0.739608 0.621581 0.358982
N4    N     N_R   0.799111 0.283470 0.351039 0.211850
O14   O     O_R   0.719126 0.254960 0.277204 -0.376805
O15   O     O_R   0.818147 0.221411 0.429484 -0.368403
O16   O     O_3   0.233210 0.481415 0.273710 -0.752738
H13   H     H_    0.225852 0.558521 0.306912 0.369919
N5    N     N_R   0.647000 0.618137 0.192472 0.270379
O17   O     O_R   0.599872 0.721309 0.212238 -0.271199
O18   O     O_R   0.752034 0.582337 0.239239 -0.396527
O19   O     O_3   0.407387 0.294258 0.186833 -0.685261
H14   H     H_    0.367114 0.241012 0.136607 0.323569
O20   O     O_3   0.678915 0.699357 0.015150 -0.684727
H15   H     H_    0.703683 0.748417 0.962636 0.345265

loop_
_geom_bond_atom_site_label_1
_geom_bond_atom_site_label_2
_geom_bond_distance
_ccdc_geom_bond_type
C7    C8    1.389987 A    
O4    Zn2   1.970881 S    
C31   H8    1.082230 S    
C10   C11   1.425240 A    
C22   N5    1.437072 S    
C23   C24   1.385675 A    
C5    N4    1.431229 S    
C8    O16   1.372077 S    
C1    C16   1.428231 S    
O20   H15   0.991860 S    
O9    H10   0.988223 S    
C17   C18   1.398263 A    
C28   C29   1.412853 A    
Zn2   N2    2.021464 S    
Zn2   O8    1.997850 S    
C2    C11   1.418273 S    
O13   H12   0.978560 S    
N4    O15   1.301836 A    
C19   C20   1.374257 A    
C19   H7    1.086554 S    
O19   H14   0.991781 S    
C31   C32   1.408662 A    
C23   O19   1.382228 S    
C9    C14   1.411194 A    
C8    C9    1.424516 A    
C11   C12   1.392856 A    
Zn1   O7    1.970881 S    
N2    C26   1.366014 A    
C15   C22   1.411499 A    
H4    C13   1.084711 S    
O4    C2    1.300037 A    
C20   C24   1.392132 A    
N1    C31   1.354153 A    
O3    Zn1   1.997853 S    
C3    C15   1.443239 S    
C29   C30   1.431062 A    
C6    C7    1.384320 A    
O8    C4    1.278842 A    
C6    H2    1.083018 S    
C5    C10   1.431675 A    
O2    C1    1.289944 A    
C18   H6    1.083945 S    
C24   H5    1.084990 S    
O7    C4    1.291216 A    
C17   C21   1.421704 A    
C26   N3    1.425255 S    
N2    C27   1.384298 A    
C17   O20   1.381737 S    
N1    C30   1.365710 A    
N3    O12   1.300362 A    
N4    O14   1.301631 A    
C16   C18   1.392139 A    
C25   C29   1.407676 A    
C27   O13   1.374708 S    
O16   H13   0.988422 S    
O10   H11   0.991822 S    
H1    C12   1.085143 S    
O3    C2    1.275252 A    
C20   C21   1.420548 A    
Zn1   N1    2.021703 S    
C15   C23   1.404673 A    
C13   C14   1.387145 A    
Zn1   O5    2.010818 S    
N5    O18   1.300631 A    
O5    C3    1.293141 A    
C9    C10   1.405510 A    
N5    O17   1.301757 A    
O1    Zn1   1.970281 S    
C28   C32   1.422487 A    
C21   C22   1.402508 A    
C30   O9    1.377993 S    
C16   C19   1.381924 A    
C4    C14   1.414247 S    
N3    O11   1.300647 A    
C27   C28   1.427335 A    
C25   H9    1.080972 S    
O6    C3    1.292815 A    
Zn2   O6    1.970282 S    
O2    Zn2   2.010819 S    
C25   C26   1.402631 A    
C7    H3    1.083147 S    
C5    C6    1.400285 A    
O1    C1    1.290284 A    
C12   C13   1.366791 A    
C32   O10   1.382209 S    
