data_mof_unit_16004.cif
_audit_creation_date              2012-12-10T17:20:22-0500
_audit_creation_method            fapswitch 2.2
_symmetry_space_group_name_H-M    P1
_symmetry_Int_Tables_number       1
_space_group_crystal_system       triclinic
_cell_length_a                    11.680496
_cell_length_b                    10.872144
_cell_length_c                    9.675808
_cell_angle_alpha                 88.799041
_cell_angle_beta                  90.275156
_cell_angle_gamma                 92.534912
_cell_volume                      1227.26926864

loop_
_atom_site_label
_atom_site_type_symbol
_atom_type_description
_atom_site_fract_x
_atom_site_fract_y
_atom_site_fract_z
_atom_type_partial_charge
C1    C     C_R   0.508444 0.262531 0.501869 0.803015
C2    C     C_R   0.487268 0.037905 0.880120 0.397063
C3    C     C_R   0.417189 0.931972 0.867208 0.446767
C4    C     C_R   0.403574 0.878238 0.738550 0.511493
C5    C     C_R   0.457833 0.933676 0.620999 -0.227721
C6    C     C_R   0.501135 0.056356 0.629728 -0.263542
C7    C     C_R   0.517048 0.126918 0.505616 -0.230064
C8    C     C_R   0.523675 0.065291 0.379715 0.350154
C9    C     C_R   0.496415 0.939372 0.374527 0.521053
C10   C     C_R   0.472777 0.870809 0.496466 -0.211156
C11   C     C_R   0.691756 0.612805 0.134940 0.406210
C12   C     C_R   0.284317 0.499249 0.499775 0.807927
C13   C     C_R   0.796244 0.604618 0.064598 0.263934
C14   C     C_R   0.794043 0.618166 0.920364 0.209680
C15   C     C_R   0.686910 0.613994 0.857113 0.530305
C16   C     C_R   0.590689 0.556918 0.924643 -0.031821
C17   C     C_R   0.591595 0.556879 0.072933 -0.082643
C18   C     C_R   0.413929 0.442646 0.074855 0.585968
C19   C     C_R   0.413345 0.446881 0.926355 -0.069732
C20   C     C_R   0.487535 0.736420 0.498598 0.908977
C21   C     C_R   0.715565 0.498795 0.500346 0.806239
C22   C     C_1   0.162421 0.498538 0.499462 -0.118790
C23   C     C_1   0.059777 0.497980 0.499836 0.019968
C24   C     C_1   0.939884 0.497654 0.500477 0.037860
C25   C     C_1   0.837315 0.497936 0.500732 -0.116535
C26   C     C_R   0.532650 0.099343 0.763124 0.334457
Cu1   Cu    Cu3+1 0.499990 0.499990 0.640660 1.053397
Cu2   Cu    Cu3+1 0.500010 0.500010 0.359340 1.075724
H1    H     H_    0.342181 0.406233 0.870029 0.139458
N1    N     N_R   0.501070 0.501210 0.147910 -0.179558
N2    N     N_R   0.501110 0.501290 0.852040 -0.155903
O1    O     O_R   0.499990 0.319640 0.618810 -0.556375
O2    O     O_R   0.500000 0.319660 0.381240 -0.546636
O3    O     O_R   0.337190 0.500000 0.618790 -0.570353
O4    O     O_R   0.337200 0.500030 0.381210 -0.524417
O5    O     O_R   0.500000 0.680340 0.618760 -0.471813
O6    O     O_R   0.500010 0.680360 0.381190 -0.487771
O7    O     O_R   0.662800 0.499970 0.618790 -0.535974
O8    O     O_R   0.662810 0.500000 0.381210 -0.559166
O9    O     O_3   0.562659 0.127416 0.261640 -0.503990
C27   C     C_3   0.683398 0.119087 0.250934 0.128225
H2    H     H_    0.702252 0.072872 0.152851 0.194506
H3    H     H_    0.723505 0.066283 0.337160 0.052509
C28   C     C_3   0.741544 0.247265 0.247124 -0.294879
H4    H     H_    0.704984 0.303544 0.161940 0.238237
H5    H     H_    0.725587 0.290515 0.346990 0.198214
C29   C     C_3   0.871002 0.241867 0.229326 -0.959369
H6    H     H_    0.909406 0.195274 0.320542 0.250961
H7    H     H_    0.909658 0.336808 0.219741 0.302023
H8    H     H_    0.891446 0.190796 0.135241 0.250157
O10   O     O_3   0.889568 0.632680 0.834510 -0.586866
C30   C     C_3   0.976071 0.716530 0.882776 0.188899
H9    H     H_    0.048731 0.714468 0.809277 0.166777
H10   H     H_    0.014096 0.685963 0.981736 0.226292
C31   C     C_3   0.937976 0.850346 0.884449 -0.404038
H11   H     H_    0.950568 0.893687 0.780317 0.207033
H12   H     H_    0.845803 0.855007 0.909600 0.224109
C32   C     C_3   0.008069 0.924506 0.989582 -0.894664
H13   H     H_    0.991165 0.887585 0.095557 0.266724
H14   H     H_    0.984734 0.022236 0.984715 0.244434
H15   H     H_    0.100742 0.918456 0.967820 0.297092
F1    F     F_    0.676610 0.687253 0.744580 -0.654410
O11   O     O_3   0.616879 0.191185 0.783785 -0.524630
C33   C     C_3   0.721551 0.160309 0.721922 0.134435
H16   H     H_    0.724297 0.061734 0.692145 0.086435
H17   H     H_    0.736105 0.217929 0.626839 0.113216
C34   C     C_3   0.820621 0.183617 0.822799 -0.401967
H18   H     H_    0.804820 0.126982 0.918208 0.220908
H19   H     H_    0.900932 0.154309 0.774845 0.167508
C35   C     C_3   0.835442 0.318976 0.859912 -0.685010
H20   H     H_    0.849455 0.376822 0.765297 0.251497
H21   H     H_    0.911079 0.332706 0.928643 0.236014
H22   H     H_    0.758350 0.348629 0.914501 0.254146
F2    F     F_    0.514599 0.079168 0.006958 -0.598653
F3    F     F_    0.368037 0.877094 0.980704 -0.563531
F4    F     F_    0.332279 0.776690 0.727940 -0.631451
F5    F     F_    0.492727 0.885042 0.249389 -0.573672
O12   O     O_3   0.323810 0.385020 0.147889 -0.592602
C36   C     C_3   0.295857 0.265544 0.098511 0.081020
H23   H     H_    0.283790 0.202396 0.189561 0.184297
H24   H     H_    0.366438 0.226622 0.038742 0.202243
C37   C     C_3   0.183121 0.264450 0.015398 -0.394253
H25   H     H_    0.111346 0.230212 0.082904 0.218125
H26   H     H_    0.163489 0.359104 0.979762 0.246510
C38   C     C_3   0.188412 0.182506 0.889351 -0.908657
H27   H     H_    0.251185 0.221626 0.812844 0.247387
H28   H     H_    0.103096 0.175069 0.838728 0.257293
H29   H     H_    0.214857 0.089417 0.920948 0.279533
O13   O     O_3   0.684674 0.687032 0.249567 -0.510121
C39   C     C_3   0.749927 0.800213 0.236794 0.158830
H30   H     H_    0.691940 0.874506 0.253852 0.176931
H31   H     H_    0.785516 0.821396 0.132619 0.079243
C40   C     C_3   0.845391 0.809468 0.345744 -0.410080
H32   H     H_    0.898159 0.727385 0.342954 0.287809
H33   H     H_    0.902150 0.891866 0.322172 0.174560
C41   C     C_3   0.797777 0.821864 0.490870 -0.741635
H34   H     H_    0.758968 0.912303 0.502317 0.198700
H35   H     H_    0.867782 0.813528 0.567878 0.256088
H36   H     H_    0.731473 0.748439 0.511521 0.305676
F6    F     F_    0.894913 0.601279 0.138188 -0.689792

loop_
_geom_bond_atom_site_label_1
_geom_bond_atom_site_label_2
_ccdc_geom_bond_type
C31   H11   S    
C40   H32   S    
C27   H2    S    
C19   N2    A    
C1    O2    A    
C7    C8    A    
C29   H7    S    
C38   H27   S    
C28   H4    S    
C16   N2    A    
C5    C6    A    
Cu1   O7    S    
C32   H14   S    
C15   C16   A    
C41   H36   S    
C12   C22   S    
C18   C19   A    
C21   O7    A    
C14   O10   S    
Cu2   O4    S    
C10   C20   S    
C8    C9    A    
C41   H35   S    
C23   C24   S    
C35   H20   S    
C18   N1    A    
C3    F3    S    
C9    C10   A    
C2    F2    S    
C28   C29   S    
C30   H10   S    
C32   H15   S    
C40   H33   S    
C13   C14   A    
C17   N1    A    
C27   H3    S    
C28   H5    S    
C29   H8    S    
C38   H28   S    
Cu1   O3    S    
Cu1   N2    S    
O10   C30   S    
C33   C34   S    
C24   C25   T    
C36   H24   S    
O12   C36   S    
C16   C17   A    
Cu2   O8    S    
C32   H13   S    
C1    O1    A    
C34   H18   S    
C34   H19   S    
C33   H17   S    
C26   O11   S    
C11   O13   S    
C39   H31   S    
C29   H6    S    
C21   O8    A    
C18   O12   S    
C41   H34   S    
C35   H22   S    
C14   C15   A    
C2    C26   A    
C9    F5    S    
C12   O4    A    
O9    C27   S    
Cu2   O2    S    
C40   C41   S    
C37   H26   S    
C31   H12   S    
C27   C28   S    
C36   H23   S    
C12   O3    A    
C3    C4    A    
C19   H1    S    
C30   H9    S    
C39   C40   S    
C38   H29   S    
C21   C25   S    
C11   C17   A    
Cu1   O1    S    
C1    C7    S    
C4    C5    A    
C36   C37   S    
C30   C31   S    
C6    C7    A    
Cu1   O5    S    
C37   C38   S    
C34   C35   S    
C33   H16   S    
C13   F6    S    
Cu2   N1    S    
C2    C3    A    
C5    C10   A    
C20   O6    A    
C11   C13   A    
C39   H30   S    
C6    C26   A    
Cu2   O6    S    
C15   F1    S    
C4    F4    S    
O11   C33   S    
C20   O5    A    
C37   H25   S    
C31   C32   S    
Cu1   Cu2   S    
C22   C23   T    
C35   H21   S    
C8    O9    S    
O13   C39   S    
