data_mof_unit_22176.cif
_audit_creation_date              2012-12-11T15:29:40-0500
_audit_creation_method            fapswitch 2.2
_symmetry_space_group_name_H-M    P1
_symmetry_Int_Tables_number       1
_space_group_crystal_system       triclinic
_cell_length_a                    21.368816
_cell_length_b                    7.304959
_cell_length_c                    14.851598
_cell_angle_alpha                 90.000079
_cell_angle_beta                  74.228574
_cell_angle_gamma                 90.000031
_cell_volume                      2231.03370418

loop_
_atom_site_label
_atom_site_type_symbol
_atom_type_description
_atom_site_fract_x
_atom_site_fract_y
_atom_site_fract_z
_atom_type_partial_charge
O1    O     O_R   0.464160 0.506670 0.130070 -0.540824
O2    O     O_R   0.535840 0.006670 0.869930 -0.540833
O3    O     O_R   0.589710 0.179080 0.006710 -0.549978
O4    O     O_R   0.410290 0.679080 0.993290 -0.549969
C1    C     C_R   0.615855 0.343583 0.003721 0.648215
C2    C     C_R   0.384146 0.843583 0.996279 0.648213
O5    O     O_R   0.467940 0.177220 0.138010 -0.535772
O6    O     O_R   0.532060 0.677220 0.861990 -0.535762
O7    O     O_R   0.413200 0.002810 0.002170 -0.534105
O8    O     O_R   0.586800 0.502810 0.997830 -0.534090
C3    C     C_R   0.456296 0.345456 0.174181 0.687215
C4    C     C_R   0.543704 0.845456 0.825819 0.687209
O9    O     O_3   0.482180 0.337850 0.955280 -0.379208
O10   O     O_3   0.517820 0.837850 0.044720 -0.379218
V1    V     V_3+5 0.503310 0.064600 0.008300 1.366046
V2    V     V_3+5 0.496690 0.564600 0.991700 1.366077
C5    C     C_R   0.569557 0.852818 0.723446 -0.116167
C6    C     C_R   0.430442 0.352819 0.276554 -0.116156
C7    C     C_R   0.927545 0.869133 0.274587 -0.056258
C8    C     C_R   0.072454 0.369133 0.725413 -0.056257
C9    C     C_R   0.556795 0.848405 0.566731 -0.149443
C10   C     C_R   0.443203 0.348429 0.433269 -0.149437
C11   C     C_R   0.528320 0.841310 0.663940 0.143336
C12   C     C_R   0.471678 0.341314 0.336061 0.143325
C13   C     C_R   0.636907 0.868403 0.686023 -0.212655
C14   C     C_R   0.363091 0.368398 0.313976 -0.212662
C15   C     C_R   0.666477 0.859414 0.588493 0.102809
C16   C     C_R   0.333520 0.359422 0.411505 0.102800
C17   C     C_R   0.624591 0.859940 0.529412 0.041807
C18   C     C_R   0.375406 0.359966 0.470587 0.041806
C19   C     C_R   0.735714 0.858036 0.547626 -0.027788
C20   C     C_R   0.264283 0.358044 0.452372 -0.027786
C21   C     C_R   0.761100 0.879737 0.448096 -0.039606
C22   C     C_R   0.238898 0.379755 0.551902 -0.039606
C23   C     C_R   0.716627 0.907978 0.393206 0.355981
C24   C     C_R   0.283370 0.408015 0.606791 0.355983
C25   C     C_R   0.649899 0.883353 0.433414 -0.285956
C26   C     C_R   0.350098 0.383396 0.566584 -0.285955
C27   C     C_R   0.780669 0.831330 0.601856 0.339230
C28   C     C_R   0.219328 0.331327 0.398144 0.339230
C29   C     C_R   0.846919 0.864230 0.562669 -0.287490
C30   C     C_R   0.153077 0.364222 0.437330 -0.287480
C31   C     C_R   0.872071 0.884595 0.467076 0.088300
C32   C     C_R   0.127926 0.384591 0.532924 0.088299
C33   C     C_R   0.830288 0.875760 0.407711 0.096628
C34   C     C_R   0.169709 0.375769 0.592288 0.096628
C35   C     C_R   0.939715 0.899676 0.430053 -0.144293
C36   C     C_R   0.060281 0.399662 0.569948 -0.144293
C37   C     C_R   0.967141 0.896799 0.333958 -0.172105
C38   C     C_R   0.032856 0.396786 0.666042 -0.172104
C39   C     C_R   0.860087 0.854696 0.310789 -0.153512
C40   C     C_R   0.139912 0.354708 0.689210 -0.153508
H1    H     H_    0.616837 0.894357 0.389694 0.119680
H2    H     H_    0.383160 0.394415 0.610304 0.119679
H3    H     H_    0.832778 0.820899 0.261819 0.154038
H4    H     H_    0.167223 0.320920 0.738180 0.154034
H5    H     H_    0.019308 0.911201 0.305962 0.099936
H6    H     H_    0.980689 0.411179 0.694039 0.099937
H7    H     H_    0.879998 0.857360 0.606561 0.118031
H8    H     H_    0.119998 0.357345 0.393439 0.118026
H9    H     H_    0.526665 0.846846 0.518823 0.131042
H10   H     H_    0.473332 0.346886 0.481178 0.131042
H11   H     H_    0.664360 0.894148 0.735522 0.166413
H12   H     H_    0.335639 0.394129 0.264474 0.166410
H13   H     H_    0.971494 0.910968 0.475609 0.118402
H14   H     H_    0.028502 0.410945 0.524391 0.118402
C41   C     C_3   0.224697 0.713059 0.930452 -0.292931
C42   C     C_3   0.775302 0.213061 0.069552 -0.292922
H15   H     H_    0.202496 0.577685 0.951704 0.160778
H16   H     H_    0.797501 0.077681 0.048306 0.160773
H17   H     H_    0.218971 0.736280 0.859031 0.150592
H18   H     H_    0.781027 0.236287 0.140973 0.150586
C43   C     C_3   0.298516 0.714435 0.924710 -0.343800
C44   C     C_3   0.701483 0.214438 0.075292 -0.343781
H19   H     H_    0.325777 0.761109 0.853530 0.132634
H20   H     H_    0.674221 0.261114 0.146472 0.132632
H21   H     H_    0.317898 0.575613 0.929089 0.150965
H22   H     H_    0.682100 0.075616 0.070916 0.150962
H23   H     H_    0.157726 0.743653 0.138951 0.122891
H24   H     H_    0.842276 0.243672 0.861044 0.122884
C45   C     C_3   0.193711 0.842598 0.098605 -0.318718
C46   C     C_3   0.806290 0.342608 0.901397 -0.318724
C47   C     C_3   0.223549 0.047350 0.959932 -0.352017
C48   C     C_3   0.776450 0.547351 0.040072 -0.352014
C49   C     C_3   0.187868 0.866136 0.997081 0.085493
C50   C     C_3   0.812132 0.366138 0.002922 0.085495
H25   H     H_    0.198214 0.165118 0.001063 0.161956
H26   H     H_    0.801784 0.665124 0.998944 0.161957
H27   H     H_    0.222757 0.070715 0.886170 0.150781
H28   H     H_    0.777240 0.570714 0.113836 0.150783
C51   C     C_3   0.312373 0.847330 0.999096 0.100064
C52   C     C_3   0.687627 0.347330 0.000905 0.100055
C53   C     C_3   0.265561 0.799769 0.101323 0.271403
C54   C     C_3   0.734441 0.299773 0.898679 0.271390
C55   C     C_3   0.294968 0.039662 0.965742 -0.373680
C56   C     C_3   0.705031 0.539661 0.034261 -0.373682
H29   H     H_    0.327746 0.071577 0.895307 0.146161
H30   H     H_    0.672252 0.571579 0.104694 0.146158
H31   H     H_    0.304385 0.148414 0.011538 0.154819
H32   H     H_    0.695615 0.648406 0.988462 0.154820
H33   H     H_    0.176656 0.973206 0.136056 0.101828
H34   H     H_    0.823342 0.473221 0.863950 0.101833
O11   O     O_R   0.913210 0.208550 0.002110 -0.538229
O12   O     O_R   0.086790 0.708550 0.997890 -0.538227
O13   O     O_R   0.032060 0.539960 0.861980 -0.534943
O14   O     O_R   0.967940 0.039960 0.138020 -0.534945
C57   C     C_R   0.044320 0.373071 0.826192 0.690830
C58   C     C_R   0.955679 0.873071 0.173808 0.690827
O15   O     O_R   0.910290 0.538020 0.993280 -0.545545
O16   O     O_R   0.089710 0.038020 0.006720 -0.545546
O17   O     O_R   0.964160 0.712340 0.130090 -0.538511
O18   O     O_R   0.035840 0.212340 0.869910 -0.538510
C59   C     C_R   0.883651 0.370965 0.001168 0.652205
C60   C     C_R   0.116349 0.870965 0.998834 0.652205
O19   O     O_3   0.017820 0.379210 0.044690 -0.379185
O20   O     O_3   0.982180 0.879210 0.955310 -0.379184
V3    V     V_3+5 0.996690 0.652500 0.991710 1.397586
V4    V     V_3+5 0.003310 0.152500 0.008290 1.397582
C61   C     C_3   0.269748 0.596092 0.135384 -0.272925
C62   C     C_3   0.233202 0.443206 0.100641 -0.817239
H35   H     H_    0.180457 0.466631 0.113365 0.223072
H36   H     H_    0.255166 0.411874 0.027105 0.218059
H37   H     H_    0.237476 0.316627 0.138430 0.214143
H38   H     H_    0.321247 0.553565 0.121892 0.184570
H39   H     H_    0.248751 0.592383 0.212583 0.195582
C63   C     C_3   0.730259 0.096095 0.864616 -0.272898
C64   C     C_3   0.766800 0.943217 0.899373 -0.817339
H40   H     H_    0.819531 0.966687 0.886712 0.223107
H41   H     H_    0.744814 0.911860 0.972894 0.218063
H42   H     H_    0.762558 0.816646 0.861567 0.214160
H43   H     H_    0.678760 0.053564 0.878099 0.184561
H44   H     H_    0.751260 0.092386 0.787418 0.195590
C65   C     C_3   0.281215 0.925474 0.179202 -0.425314
C66   C     C_3   0.336752 0.867075 0.221106 -0.696453
H45   H     H_    0.322331 0.748162 0.268631 0.200547
H46   H     H_    0.382186 0.833254 0.167586 0.235952
H47   H     H_    0.347553 0.981114 0.263970 0.243733
H48   H     H_    0.291705 0.066695 0.153918 0.202722
H49   H     H_    0.237211 0.931406 0.239770 0.202115
C67   C     C_3   0.718786 0.425478 0.820801 -0.425306
C68   C     C_3   0.663255 0.367050 0.778889 -0.696414
H50   H     H_    0.677714 0.248247 0.731295 0.200561
H51   H     H_    0.617840 0.333026 0.832406 0.235904
H52   H     H_    0.652404 0.481149 0.736099 0.243734
H53   H     H_    0.708288 0.566696 0.846088 0.202727
H54   H     H_    0.762791 0.431433 0.760236 0.202108
C69   C     C_3   0.454987 0.827167 0.706381 -0.374964
C70   C     C_3   0.413465 0.836048 0.637205 -0.772168
H55   H     H_    0.421423 0.967916 0.598462 0.233386
H56   H     H_    0.425013 0.719782 0.587310 0.230377
H57   H     H_    0.361225 0.826873 0.676024 0.225789
H58   H     H_    0.444148 0.696256 0.745680 0.173792
H59   H     H_    0.439068 0.940891 0.757224 0.167146
C71   C     C_3   0.545011 0.327152 0.293621 -0.374962
C72   C     C_3   0.586532 0.335924 0.362802 -0.772150
H60   H     H_    0.578598 0.467786 0.401554 0.233383
H61   H     H_    0.574960 0.219647 0.412690 0.230373
H62   H     H_    0.638772 0.326679 0.323988 0.225788
H63   H     H_    0.555843 0.196266 0.254297 0.173796
H64   H     H_    0.560937 0.440910 0.242801 0.167143
O21   O     O_3   0.737951 0.973396 0.302659 -0.669963
H65   H     H_    0.700661 0.988192 0.275492 0.278098
O22   O     O_3   0.262045 0.473446 0.697335 -0.669960
H66   H     H_    0.299334 0.488256 0.724501 0.278102
O23   O     O_3   0.760819 0.757795 0.690317 -0.676030
H67   H     H_    0.799428 0.729861 0.712765 0.270586
O24   O     O_3   0.239177 0.257788 0.309683 -0.676039
H68   H     H_    0.200570 0.229854 0.287235 0.270589

loop_
_geom_bond_atom_site_label_1
_geom_bond_atom_site_label_2
_ccdc_geom_bond_type
C47   H25   S    
C3    C6    S    
O4    V2    S    
O23   H67   S    
C46   C54   S    
C72   H61   S    
C21   C33   A    
C57   O18   A    
C69   C70   S    
O1    C3    A    
C70   H57   S    
O2    C4    A    
O16   V4    S    
C2    O7    A    
O21   H65   S    
O15   V3    S    
C27   C29   A    
C45   H33   S    
C61   H38   S    
O5    C3    A    
O13   C57   A    
C5    C11   A    
C44   H20   S    
C50   C59   S    
C6    C12   A    
C10   C12   A    
C49   C60   S    
C23   C25   A    
C48   C50   S    
C53   C65   S    
C68   H51   S    
C48   C56   S    
C55   H31   S    
C41   H17   S    
C10   H10   S    
C33   C39   A    
C42   C44   S    
C2    C51   S    
C34   C40   A    
C52   C56   S    
C37   H5    S    
O20   V3    S    
C18   C26   A    
C13   H11   S    
C44   C52   S    
C14   H12   S    
C28   O24   S    
C8    C38   A    
O22   H66   S    
C12   C71   S    
C16   C18   A    
C56   H30   S    
C4    C5    S    
C24   O22   S    
C19   C21   A    
C41   C43   S    
O16   C60   A    
C9    H9    S    
C62   H37   S    
C42   H18   S    
C8    C57   S    
C25   H1    S    
C7    C58   S    
C36   C38   A    
C65   H48   S    
O6    V2    S    
O14   V4    S    
C72   H62   S    
C29   C31   A    
O13   V3    S    
C30   C32   A    
C66   H47   S    
C62   H36   S    
C54   C63   S    
C47   H27   S    
C9    C17   A    
C41   C49   S    
C15   C19   A    
C38   H6    S    
C16   C20   A    
C70   H55   S    
C29   H7    S    
C35   C37   A    
C68   H52   S    
C67   H54   S    
O24   H68   S    
H23   C45   S    
C66   H46   S    
C32   C34   A    
C46   C50   S    
C11   C69   S    
C41   H15   S    
C20   C22   A    
C27   O23   S    
C64   H41   S    
C71   H64   S    
C51   C53   S    
C45   C53   S    
C7    C37   A    
C26   H2    S    
C63   H44   S    
O6    C4    A    
O19   V4    S    
C47   C55   S    
C6    C14   A    
C52   C54   S    
C46   H34   S    
O1    V2    S    
C23   O21   S    
C67   C68   S    
O2    V1    S    
C31   C33   A    
C43   C51   S    
C71   C72   S    
C22   C34   A    
C42   C50   S    
C61   H39   S    
H24   C46   S    
C47   C49   S    
C65   H49   S    
C9    C11   A    
C65   C66   S    
O12   C60   A    
O4    C2    A    
C43   H19   S    
C30   H8    S    
C64   H40   S    
O3    V1    S    
C62   H35   S    
O12   V3    S    
C48   H28   S    
C10   C18   A    
O11   C59   A    
O10   V1    S    
C48   H26   S    
C70   H56   S    
C28   C30   A    
O3    C1    A    
C67   H53   S    
C61   C62   S    
C55   H29   S    
C66   H45   S    
O15   C59   A    
C13   C15   A    
C15   C17   A    
C14   C16   A    
C58   O17   A    
O17   V3    S    
C5    C13   A    
C24   C26   A    
C69   H58   S    
O7    V1    S    
C64   H42   S    
C1    O8    A    
C8    C40   A    
C32   C36   A    
O8    V2    S    
C68   H50   S    
O18   V4    S    
O14   C58   A    
C63   H43   S    
C63   C64   S    
C56   H32   S    
O5    V1    S    
C21   C23   A    
C22   C24   A    
C19   C27   A    
C39   H3    S    
C20   C28   A    
C69   H59   S    
C1    C52   S    
C51   C55   S    
O11   V4    S    
C7    C39   A    
C71   H63   S    
C42   H16   S    
C44   H22   S    
O9    V2    S    
C17   C25   A    
C72   H60   S    
C43   H21   S    
C54   C67   S    
C53   C61   S    
C36   H14   S    
C31   C35   A    
C35   H13   S    
C45   C49   S    
C40   H4    S    
