data_mof_unit_37202.cif
_audit_creation_date              2012-10-26T19:53:26-0400
_audit_creation_method            fapswitch 2.2
_symmetry_space_group_name_H-M    P1
_symmetry_Int_Tables_number       1
_space_group_crystal_system       triclinic
_cell_length_a                    9.09056
_cell_length_b                    7.797144
_cell_length_c                    10.661039
_cell_angle_alpha                 89.729179
_cell_angle_beta                  90.013582
_cell_angle_gamma                 90.006548
_cell_volume                      755.650298419

loop_
_atom_site_label
_atom_site_type_symbol
_atom_type_description
_atom_site_fract_x
_atom_site_fract_y
_atom_site_fract_z
_atom_type_partial_charge
C1    C     C_R   0.220067 0.499996 0.499804 0.555422
C2    C     C_3   0.619187 0.419445 0.041617 0.280632
C3    C     C_3   0.501697 0.498373 0.877451 0.026233
C4    C     C_3   0.500619 0.501741 0.122696 -0.001919
C5    C     C_1   0.065379 0.499993 0.499639 -0.044330
C6    C     C_1   0.934605 0.500006 0.499650 -0.051308
C7    C     C_3   0.179037 0.744201 0.001099 -0.107721
C8    C     C_3   0.848924 0.435327 0.132868 -0.105679
C9    C     C_R   0.779926 0.500005 0.499831 0.542209
C10   C     C_R   0.500075 0.500495 0.258891 0.545764
C11   C     C_R   0.500174 0.499511 0.741164 0.579671
C12   C     C_3   0.504104 0.665166 0.039698 -0.153278
C13   C     C_3   0.499401 0.335805 0.960204 -0.108371
C14   C     C_3   0.624354 0.580054 0.956762 -0.163967
C15   C     C_3   0.378636 0.419903 0.042356 -0.155678
C16   C     C_3   0.383817 0.581393 0.958907 0.279431
Cu1   Cu    Cu3+1 0.500000 0.669080 0.500000 1.039392
Cu2   Cu    Cu3+1 0.500000 0.330920 0.500000 1.043927
H1    H     H_    0.505100 0.799133 0.074494 0.134272
H2    H     H_    0.933371 0.358656 0.183121 0.138335
H3    H     H_    0.500294 0.201621 0.925790 0.143233
H4    H     H_    0.723868 0.643794 0.918215 0.115234
H5    H     H_    0.277970 0.356751 0.079251 0.109363
H6    H     H_    0.240190 0.855934 0.039143 0.124871
H7    H     H_    0.149626 0.653498 0.078013 0.092453
H8    H     H_    0.074815 0.793056 0.960266 0.146680
H9    H     H_    0.804759 0.530958 0.200234 0.114158
H10   H     H_    0.904332 0.500969 0.053155 0.114481
N1    N     N_1   0.500000 0.076820 0.500000 -0.077441
N2    N     N_1   0.500000 0.923180 0.500000 -0.077843
O1    O     O_R   0.288390 0.642760 0.500000 -0.491246
O2    O     O_3   0.738882 0.323477 0.088885 -0.546611
O3    O     O_R   0.711610 0.357240 0.500000 -0.491995
O4    O     O_R   0.711610 0.642760 0.500000 -0.503074
O5    O     O_R   0.288390 0.357240 0.500000 -0.500929
O6    O     O_R   0.499960 0.642760 0.316850 -0.523221
O7    O     O_R   0.500040 0.357240 0.683150 -0.512162
O8    O     O_R   0.500040 0.642760 0.683150 -0.478649
O9    O     O_R   0.499960 0.357240 0.316850 -0.484853
O10   O     O_3   0.260270 0.663466 0.905625 -0.545485

loop_
_geom_bond_atom_site_label_1
_geom_bond_atom_site_label_2
_ccdc_geom_bond_type
C11   O8    A    
C2    C4    S    
C7    O10   S    
N1    N2    T    
Cu1   O6    S    
C7    H6    S    
C4    C12   S    
Cu2   O5    S    
C7    H7    S    
Cu2   O9    S    
C14   H4    S    
C6    C9    S    
C15   H5    S    
Cu1   Cu2   S    
C13   H3    S    
Cu2   N1    S    
C9    O3    A    
Cu1   N2    S    
C7    H8    S    
C8    H2    S    
C3    C14   S    
C16   O10   S    
Cu1   O1    S    
C5    C6    T    
C12   H1    S    
Cu2   O7    S    
C12   C14   S    
Cu1   O8    S    
C13   C15   S    
C4    C15   S    
C9    O4    A    
C2    C14   S    
Cu2   O3    S    
C1    C5    S    
C3    C11   S    
Cu1   O4    S    
C4    C10   S    
C15   C16   S    
C8    O2    S    
C1    O1    A    
C1    O5    A    
C8    H10   S    
C2    O2    S    
C11   O7    A    
C2    C13   S    
C8    H9    S    
C10   O6    A    
C3    C16   S    
C12   C16   S    
C10   O9    A    
C3    C13   S    
