data_mof_unit_33514.cif
_audit_creation_date              2012-12-11T16:56:12-0500
_audit_creation_method            fapswitch 2.2
_symmetry_space_group_name_H-M    P1
_symmetry_Int_Tables_number       1
_space_group_crystal_system       triclinic
_cell_length_a                    7.008096
_cell_length_b                    14.874897
_cell_length_c                    15.983684
_cell_angle_alpha                 90.376508
_cell_angle_beta                  89.622232
_cell_angle_gamma                 90.727438
_cell_volume                      1666.00887118

loop_
_atom_site_label
_atom_site_type_symbol
_atom_type_description
_atom_site_fract_x
_atom_site_fract_y
_atom_site_fract_z
_atom_type_partial_charge
O1    O     O_R   0.505830 0.583360 0.413880 -0.492354
O2    O     O_R   0.175830 0.595460 0.585520 -0.558333
O3    O     O_R   0.005520 0.416640 0.586120 -0.557410
C1    C     C_R   0.345365 0.617494 0.614030 0.669570
O4    O     O_R   0.176120 0.594390 0.414490 -0.487985
O5    O     O_R   0.005810 0.415570 0.413870 -0.540205
C2    C     C_R   0.348124 0.620326 0.389126 0.844343
O6    O     O_R   0.505540 0.584430 0.586130 -0.542612
O7    O     O_3   0.339200 0.441330 0.500000 -0.396880
V1    V     V_3+5 0.064350 0.510880 0.500000 1.590775
O8    O     O_R   0.676100 0.404540 0.414480 -0.518056
C3    C     C_R   0.843851 0.382206 0.385854 0.807493
O9    O     O_R   0.675810 0.405610 0.585510 -0.557932
C4    C     C_R   0.844259 0.383959 0.613680 0.680323
V2    V     V_3+5 0.564340 0.489120 0.500000 1.593196
O10   O     O_3   0.839360 0.558670 0.500000 -0.325077
C5    C     C_2   0.723129 0.209843 0.787921 -0.093056
C6    C     C_2   0.887145 0.182079 0.823018 -0.266867
H1    H     H_    0.588407 0.181775 0.810157 0.144948
H2    H     H_    0.023677 0.209455 0.802972 0.129318
C7    C     C_2   0.709432 0.277986 0.719889 -0.119520
C8    C     C_2   0.860357 0.316010 0.680607 -0.278460
H3    H     H_    0.566590 0.296790 0.701419 0.134177
H4    H     H_    0.004057 0.297871 0.697602 0.133057
C9    C     C_R   0.708610 0.196634 0.228577 -0.011583
C10   C     C_R   0.878279 0.183668 0.184142 -0.057660
C11   C     C_R   0.033075 0.239954 0.204852 -0.128982
H5    H     H_    0.159571 0.237836 0.167189 0.167593
C12   C     C_R   0.019873 0.304202 0.269802 -0.075874
H6    H     H_    0.137046 0.349548 0.281715 0.183519
C13   C     C_R   0.851336 0.315398 0.315884 -0.061675
C14   C     C_R   0.693918 0.261979 0.291689 -0.059378
C15   C     C_3   0.500950 0.288614 0.260796 0.295228
C16   C     C_3   0.515001 0.213741 0.194845 -0.023549
H7    H     H_    0.392459 0.275496 0.310016 -0.014704
H8    H     H_    0.419426 0.155627 0.209407 0.057141
C17   C     C_R   0.523396 0.701354 0.727692 0.091802
C18   C     C_R   0.358733 0.688819 0.679571 -0.100363
C19   C     C_R   0.210339 0.750430 0.692915 -0.179956
H9    H     H_    0.085554 0.747592 0.653320 0.149923
C20   C     C_R   0.219614 0.815936 0.757567 0.135195
C21   C     C_R   0.377964 0.819159 0.813584 -0.127008
C22   C     C_R   0.530938 0.762943 0.793283 0.070847
C23   C     C_3   0.652577 0.703155 0.844997 0.015546
C24   C     C_3   0.644600 0.635753 0.772593 -0.425444
H10   H     H_    0.797816 0.732019 0.854793 0.155533
H11   H     H_    0.566528 0.572160 0.787083 0.192349
H12   H     H_    0.785041 0.626777 0.741063 0.161416
C25   C     C_R   0.515759 0.695109 0.264690 0.112536
C26   C     C_R   0.367174 0.693318 0.324264 -0.067806
C27   C     C_R   0.243479 0.766910 0.322535 0.030872
H13   H     H_    0.156799 0.779382 0.376148 0.196325
C28   C     C_R   0.239887 0.826506 0.253764 -0.116517
H14   H     H_    0.139357 0.881063 0.253469 0.151107
C29   C     C_R   0.374820 0.819025 0.188626 -0.082769
C30   C     C_R   0.516774 0.756187 0.197800 0.024592
C31   C     C_3   0.720131 0.781548 0.205627 -0.493136
C32   C     C_3   0.723207 0.718320 0.278795 0.651518
H15   H     H_    0.740838 0.853786 0.221627 0.196835
H16   H     H_    0.803203 0.760925 0.149361 0.192604
O11   O     O_R   0.229930 0.912420 0.917160 -0.524023
O12   O     O_R   0.559420 0.902500 0.088780 -0.540964
O13   O     O_R   0.729660 0.081330 0.089380 -0.534962
C33   C     C_R   0.389116 0.884142 0.119343 0.715508
O14   O     O_R   0.559650 0.901420 0.917750 -0.531222
O15   O     O_R   0.729880 0.080250 0.917130 -0.534362
C34   C     C_R   0.390116 0.881798 0.887077 0.761657
O16   O     O_R   0.229700 0.913500 0.089410 -0.544271
O17   O     O_3   0.396250 0.055540 0.003280 -0.369183
V3    V     V_3+5 0.671130 0.986010 0.003260 1.498937
O18   O     O_R   0.059600 0.091310 0.917720 -0.537132
C35   C     C_R   0.891590 0.113523 0.889968 0.791735
O19   O     O_R   0.059370 0.092380 0.088750 -0.551026
C36   C     C_R   0.890369 0.115299 0.116302 0.706117
V4    V     V_3+5 0.171120 0.007820 0.003230 1.493745
O20   O     O_3   0.896130 0.938240 0.003240 -0.365916
I1    I     I_    0.988231 0.907020 0.760846 -0.413818
I2    I     I_    0.514256 0.654511 0.956621 -0.357031
S1    S     S_3+6 0.767242 0.777501 0.378175 -0.043413
O21   O     O_2   0.873024 0.864308 0.362447 -0.381028
O22   O     O_2   0.585215 0.801590 0.422536 -0.369495
O23   O     O_3   0.893509 0.715193 0.443893 -0.488231
H17   H     H_    0.908806 0.752811 0.494858 0.347442
S2    S     S_3+6 0.860478 0.621989 0.250771 0.066268
O24   O     O_2   0.060590 0.644548 0.224866 -0.369870
O25   O     O_2   0.860974 0.556095 0.320710 -0.277400
O26   O     O_3   0.754143 0.575990 0.166686 -0.435788
H18   H     H_    0.823098 0.600369 0.117358 0.367466
S3    S     S_3+6 0.498965 0.399758 0.216895 0.071241
O27   O     O_2   0.493338 0.469095 0.284861 -0.319015
O28   O     O_2   0.677847 0.411237 0.165668 -0.249483
O29   O     O_3   0.308014 0.414181 0.155385 -0.483866
H19   H     H_    0.319355 0.476972 0.135495 0.405882
I3    I     I_    0.503730 0.250758 0.061898 -0.203033

loop_
_geom_bond_atom_site_label_1
_geom_bond_atom_site_label_2
_ccdc_geom_bond_type
O18   V4    S    
C29   C30   A    
C11   C12   A    
O19   C36   A    
S2    O26   S    
C1    O6    A    
C19   C20   A    
C28   H14   S    
O11   V4    S    
O16   V4    S    
C10   C11   A    
C17   C18   A    
C33   O16   A    
S2    O25   D    
C32   S2    S    
O5    C3    A    
C18   C19   A    
C15   H7    S    
C31   H15   S    
O14   V3    S    
C30   C31   S    
O12   V3    S    
C20   C21   A    
O12   C33   A    
C5    H1    S    
O8    V2    S    
O15   C35   A    
O14   C34   A    
O1    V2    S    
S3    O28   D    
O7    V1    S    
C16   H8    S    
C9    C16   S    
C9    C14   A    
C24   H11   S    
O9    C4    A    
O19   V4    S    
C23   H10   S    
C5    C6    D    
C28   C29   A    
C6    C35   S    
C27   H13   S    
S2    O24   D    
C19   H9    S    
S1    O22   D    
C31   H16   S    
C9    C10   A    
C5    C7    S    
C25   C32   S    
C27   C28   A    
C17   C22   A    
O2    C1    A    
V4    O20   S    
C12   H6    S    
C15   S3    S    
O11   C34   A    
C13   C14   A    
O13   V3    S    
C29   C33   S    
C26   C27   A    
S3    O29   S    
O3    C4    A    
C32   S1    S    
C1    C18   S    
O23   H17   S    
O6    V2    S    
O9    V2    S    
C3    C13   S    
V3    O20   S    
C21   C34   S    
C8    H4    S    
C21   C22   A    
C17   C24   S    
O2    V1    S    
C23   C24   S    
O4    C2    A    
C24   H12   S    
O1    C2    A    
C16   I3    S    
C2    C26   S    
O5    V1    S    
S1    O23   S    
O8    C3    A    
O13   C36   A    
C25   C30   A    
C14   C15   S    
C4    C8    S    
C7    H3    S    
O7    V2    S    
O18   C35   A    
C12   C13   A    
O3    V1    S    
V1    O10   S    
C20   I1    S    
C31   C32   S    
O15   V3    S    
C22   C23   S    
C23   I2    S    
O29   H19   S    
C10   C36   S    
C15   C16   S    
O17   V4    S    
C6    H2    S    
O17   V3    S    
S1    O21   D    
O4    V1    S    
O26   H18   S    
C25   C26   A    
C11   H5    S    
S3    O27   D    
C7    C8    D    
V2    O10   S    
