data_mof_unit_63046.cif
_audit_creation_date              2012-12-10T18:14:41-0500
_audit_creation_method            fapswitch 2.2
_symmetry_space_group_name_H-M    P1
_symmetry_Int_Tables_number       1
_space_group_crystal_system       triclinic
_cell_length_a                    18.369723
_cell_length_b                    18.372249
_cell_length_c                    36.238792
_cell_angle_alpha                 90.000131
_cell_angle_beta                  89.997475
_cell_angle_gamma                 89.988135
_cell_volume                      12230.3428848

loop_
_atom_site_label
_atom_site_type_symbol
_atom_type_description
_atom_site_fract_x
_atom_site_fract_y
_atom_site_fract_z
_atom_type_partial_charge
C1    C     C_R   0.565736 0.009254 0.480619 0.320206
C2    C     C_R   0.933836 0.494502 0.019380 0.319951
C3    C     C_R   0.803862 0.696475 0.750218 -0.186456
C4    C     C_R   0.696435 0.196441 0.250001 -0.188525
C5    C     C_R   0.303976 0.803408 0.749880 -0.186519
C6    C     C_R   0.803985 0.696594 0.249881 -0.188014
C7    C     C_R   0.196154 0.303541 0.750217 -0.186681
C8    C     C_R   0.303853 0.196465 0.749773 -0.186496
C9    C     C_R   0.696016 0.803406 0.250119 -0.188055
C10   C     C_R   0.196025 0.696592 0.750119 -0.186479
C11   C     C_R   0.803818 0.303831 0.249999 -0.187292
C12   C     C_R   0.696145 0.803534 0.749793 -0.186736
C13   C     C_R   0.506865 0.066027 0.980632 0.318349
C14   C     C_R   0.303973 0.196584 0.250118 -0.188334
C15   C     C_R   0.803565 0.303566 0.750001 -0.189363
C16   C     C_R   0.196026 0.696590 0.249882 -0.188610
C17   C     C_R   0.492882 0.933964 0.019378 0.318848
C18   C     C_R   0.933834 0.494513 0.980635 0.318445
C19   C     C_R   0.066185 0.505701 0.019376 0.319589
C20   C     C_R   0.492868 0.933966 0.980631 0.318696
C21   C     C_R   0.506874 0.066025 0.019378 0.319986
C22   C     C_1   0.499988 0.999940 0.421567 0.188876
C23   C     C_1   0.499996 0.999918 0.578426 0.185943
C24   C     C_1   0.000062 0.500008 0.421566 0.187685
C25   C     C_R   0.434252 0.990518 0.519370 0.319472
C26   C     C_1   0.000090 0.500006 0.578427 0.185280
C27   C     C_1   0.000006 0.500082 0.921574 0.185913
C28   C     C_1   0.000013 0.500054 0.078433 0.188597
C29   C     C_1   0.499908 0.999995 0.921573 0.185291
C30   C     C_1   0.499931 0.999992 0.078434 0.187904
C31   C     C_1   0.000008 0.500026 0.111619 -0.038570
C32   C     C_1   0.000001 0.500048 0.888386 -0.044964
C33   C     C_1   0.499964 0.999996 0.111620 -0.038788
C34   C     C_1   0.499946 0.999996 0.888385 -0.045836
C35   C     C_1   0.499999 0.999952 0.611614 -0.044767
C36   C     C_R   0.007382 0.566006 0.480622 0.318846
C37   C     C_1   0.499992 0.999969 0.388381 -0.038563
C38   C     C_1   0.000053 0.500004 0.611615 -0.046070
C39   C     C_1   0.000031 0.500004 0.388380 -0.038793
C40   C     C_R   0.000002 0.500001 0.348949 0.818469
C41   C     C_R   0.000011 0.500001 0.651049 0.804784
C42   C     C_R   0.499998 0.999997 0.348950 0.822230
C43   C     C_R   0.500000 0.999990 0.651048 0.805612
C44   C     C_R   0.499989 0.999999 0.848950 0.804493
C45   C     C_R   0.499996 0.999999 0.151051 0.818749
C46   C     C_R   1.000000 0.500010 0.848952 0.805766
C47   C     C_R   0.992858 0.434004 0.519368 0.318243
C48   C     C_R   0.000002 0.500001 0.151050 0.821747
C49   C     C_R   0.140064 0.359806 0.249941 0.958620
C50   C     C_R   0.859960 0.640218 0.750058 0.964074
C51   C     C_R   0.640180 0.140182 0.250001 0.955682
C52   C     C_R   0.359935 0.859802 0.749941 0.970237
C53   C     C_R   0.859942 0.640199 0.249939 0.959144
C54   C     C_R   0.140052 0.359794 0.750052 0.964748
C55   C     C_R   0.359934 0.859803 0.250058 0.959367
C56   C     C_R   0.640090 0.140089 0.749998 0.968056
C57   C     C_R   0.140065 0.640198 0.750058 0.970110
C58   C     C_R   0.434249 0.990531 0.480625 0.319607
C59   C     C_R   0.859915 0.359916 0.249998 0.960364
C60   C     C_R   0.640043 0.859786 0.749945 0.963714
C61   C     C_R   0.359936 0.140194 0.250058 0.958930
C62   C     C_R   0.859818 0.359819 0.750001 0.963521
C63   C     C_R   0.140066 0.640197 0.249942 0.959322
C64   C     C_R   0.359951 0.140208 0.749945 0.964516
C65   C     C_R   0.640058 0.859801 0.250061 0.959431
C66   C     C_R   0.229235 0.716762 0.216431 0.267666
C67   C     C_R   0.730343 0.323412 0.755599 0.270301
C68   C     C_R   0.282354 0.227834 0.216441 0.276234
C69   C     C_R   0.565738 0.009245 0.519365 0.318574
C70   C     C_R   0.676067 0.730077 0.753854 0.270334
C71   C     C_R   0.772570 0.282031 0.216391 0.273953
C72   C     C_R   0.229303 0.716688 0.783563 0.271659
C73   C     C_R   0.717923 0.772440 0.216422 0.276544
C74   C     C_R   0.323983 0.269925 0.753695 0.271155
C75   C     C_R   0.269680 0.324163 0.752848 0.278514
C76   C     C_R   0.770969 0.716954 0.216411 0.268009
C77   C     C_R   0.282330 0.772173 0.783558 0.279135
C78   C     C_R   0.715398 0.230836 0.216636 0.268024
C79   C     C_R   0.730367 0.675845 0.752985 0.279245
C80   C     C_R   0.992847 0.434006 0.480622 0.319763
C81   C     C_R   0.229327 0.283332 0.216439 0.267514
C82   C     C_R   0.675822 0.269589 0.753462 0.276409
C83   C     C_R   0.282262 0.772249 0.216436 0.276305
C84   C     C_R   0.769604 0.175836 0.746532 0.276837
C85   C     C_R   0.270765 0.783238 0.283569 0.267605
C86   C     C_R   0.823942 0.769934 0.746163 0.270143
C87   C     C_R   0.217646 0.272165 0.283559 0.276519
C88   C     C_R   0.270698 0.783311 0.716436 0.271611
C89   C     C_R   0.730804 0.215435 0.283367 0.268295
C90   C     C_R   0.176027 0.230082 0.746282 0.271494
C91   C     C_R   0.007397 0.566004 0.519369 0.318710
C92   C     C_R   0.782077 0.727560 0.283578 0.276559
C93   C     C_R   0.729031 0.783046 0.283588 0.267955
C94   C     C_R   0.230327 0.175844 0.747136 0.278322
C95   C     C_R   0.781993 0.272612 0.283609 0.273877
C96   C     C_R   0.217671 0.727827 0.716441 0.279068
C97   C     C_R   0.270673 0.216669 0.283561 0.267630
C98   C     C_R   0.769641 0.824166 0.747036 0.280041
C99   C     C_R   0.217737 0.727752 0.283565 0.276240
C100  C     C_R   0.823426 0.230358 0.744394 0.271844
C101  C     C_R   0.499990 0.999906 0.461305 -0.212724
C102  C     C_R   0.066183 0.505717 0.980629 0.319438
C103  C     C_R   0.499996 0.999887 0.538686 -0.212186
C104  C     C_R   0.000099 0.500007 0.461305 -0.213561
C105  C     C_R   0.000122 0.500004 0.538687 -0.212003
C106  C     C_R   0.000008 0.500111 0.961314 -0.212121
C107  C     C_R   0.000012 0.500087 0.038694 -0.212962
C108  C     C_R   0.499873 0.999996 0.961313 -0.212106
C109  C     C_R   0.499893 0.999993 0.038695 -0.213396
C110  C     C_R   0.303974 0.803410 0.250118 -0.188688
C111  C     C_R   0.696187 0.196185 0.749996 -0.188042
C112  C     C_R   0.196028 0.303417 0.249881 -0.188299
Cl1   Cl    Cl    0.149325 0.512734 0.043716 -0.427821
Cl2   Cl    Cl    0.351646 0.978770 0.456285 -0.427874
Cl3   Cl    Cl    0.016561 0.648926 0.543709 -0.427785
Cl4   Cl    Cl    0.983708 0.351083 0.456280 -0.424782
Cl5   Cl    Cl    0.351654 0.978725 0.543713 -0.428840
Cl6   Cl    Cl    0.648337 0.021020 0.456275 -0.427360
Cl7   Cl    Cl    0.983738 0.351077 0.543706 -0.432937
Cl8   Cl    Cl    0.016513 0.648929 0.456280 -0.424693
Cl9   Cl    Cl    0.850691 0.487486 0.956299 -0.431454
Cl10  Cl    Cl    0.515668 0.148986 0.043721 -0.426260
Cl11  Cl    Cl    0.484047 0.851007 0.956291 -0.427969
Cl12  Cl    Cl    0.850698 0.487462 0.043726 -0.425787
Cl13  Cl    Cl    0.149319 0.512786 0.956286 -0.428634
Cl14  Cl    Cl    0.484092 0.851004 0.043721 -0.424593
Cl15  Cl    Cl    0.515643 0.148991 0.956293 -0.432195
Cl16  Cl    Cl    0.648345 0.020998 0.543699 -0.430882
H1    H     H_    0.250627 0.680455 0.167262 0.372901
H2    H     H_    0.749903 0.680983 0.167144 0.371822
H3    H     H_    0.274969 0.794125 0.835971 0.362328
H4    H     H_    0.678204 0.254605 0.167932 0.372853
H5    H     H_    0.664884 0.595694 0.741488 0.357212
H6    H     H_    0.250869 0.319803 0.167320 0.371205
H7    H     H_    0.596159 0.336633 0.743458 0.357705
H8    H     H_    0.274784 0.794337 0.164045 0.362089
H9    H     H_    0.836674 0.096190 0.756528 0.356468
H10   H     H_    0.249371 0.819550 0.332738 0.373158
H11   H     H_    0.900538 0.831593 0.726433 0.366345
H12   H     H_    0.669303 0.397950 0.777682 0.367156
H13   H     H_    0.224958 0.294070 0.335976 0.360250
H14   H     H_    0.249188 0.819745 0.667304 0.373883
H15   H     H_    0.754464 0.178443 0.332128 0.372977
H16   H     H_    0.099262 0.168400 0.726740 0.366304
H17   H     H_    0.774287 0.705116 0.335915 0.360178
H18   H     H_    0.750099 0.819018 0.332855 0.371205
H19   H     H_    0.164910 0.095810 0.758874 0.354861
H20   H     H_    0.773922 0.293424 0.336096 0.362947
H21   H     H_    0.225032 0.705875 0.664028 0.362551
H22   H     H_    0.249123 0.180185 0.332675 0.371009
H23   H     H_    0.275037 0.205921 0.164024 0.360328
H24   H     H_    0.835108 0.904313 0.758561 0.355358
H25   H     H_    0.225211 0.705670 0.335957 0.362338
H26   H     H_    0.897967 0.169344 0.722292 0.365957
H27   H     H_    0.599475 0.668443 0.773606 0.365943
H28   H     H_    0.793174 0.274124 0.163872 0.362877
H29   H     H_    0.250814 0.680253 0.832694 0.373637
H30   H     H_    0.725712 0.794884 0.164084 0.360450
H31   H     H_    0.400771 0.331628 0.773200 0.367516
H32   H     H_    0.335076 0.404200 0.741089 0.354163
O1    O     O_3   1.000000 0.500000 0.250000 -0.560942
O2    O     O_R   0.000000 0.560700 0.668450 -0.610518
O3    O     O_R   0.560700 0.000000 0.331550 -0.604202
O4    O     O_R   0.439300 0.000000 0.668450 -0.611416
O5    O     O_R   0.500000 0.060700 0.831550 -0.624061
O6    O     O_R   0.500000 0.939300 0.168450 -0.602628
O7    O     O_R   0.939300 0.500000 0.831550 -0.623552
O8    O     O_R   0.060700 0.500000 0.168450 -0.604545
O9    O     O_R   0.500000 0.939300 0.831550 -0.610690
O10   O     O_R   0.500000 0.060700 0.168450 -0.603613
O11   O     O_R   0.060700 0.500000 0.831550 -0.611098
O12   O     O_3   1.000000 0.500000 0.750000 -0.560437
O13   O     O_R   0.939300 0.500000 0.168450 -0.603411
O14   O     O_R   0.085400 0.353840 0.271430 -0.600969
O15   O     O_R   0.914600 0.646160 0.728570 -0.604171
O16   O     O_R   0.646160 0.085400 0.271430 -0.601960
O17   O     O_R   0.353840 0.914600 0.728570 -0.594044
O18   O     O_R   0.914600 0.646160 0.271430 -0.601117
O19   O     O_R   0.085400 0.353840 0.728570 -0.595342
O20   O     O_R   0.353840 0.914600 0.271430 -0.604517
O21   O     O_R   0.646160 0.085400 0.728570 -0.592129
O22   O     O_R   0.085400 0.646160 0.728570 -0.591623
O23   O     O_3   0.500000 0.000000 0.250000 -0.560347
O24   O     O_R   0.914600 0.353840 0.271430 -0.602060
O25   O     O_R   0.646160 0.914600 0.728570 -0.591263
O26   O     O_R   0.353840 0.085400 0.271430 -0.604744
O27   O     O_R   0.914600 0.353840 0.728570 -0.592538
O28   O     O_R   0.085400 0.646160 0.271430 -0.600532
O29   O     O_R   0.353840 0.085400 0.728570 -0.602288
O30   O     O_R   0.646160 0.914600 0.271430 -0.604745
O31   O     O_R   0.585400 0.853840 0.771430 -0.604343
O32   O     O_R   0.414600 0.146160 0.228570 -0.601092
O33   O     O_R   0.146160 0.585400 0.771430 -0.594063
O34   O     O_3   0.500000 0.000000 0.750000 -0.561007
O35   O     O_R   0.853840 0.414600 0.228570 -0.602852
O36   O     O_R   0.414600 0.146160 0.771430 -0.594417
O37   O     O_R   0.585400 0.853840 0.228570 -0.600937
O38   O     O_R   0.853840 0.414600 0.771430 -0.591572
O39   O     O_R   0.146160 0.585400 0.228570 -0.604561
O40   O     O_R   0.585400 0.146160 0.228570 -0.601228
O41   O     O_R   0.414600 0.853840 0.771430 -0.591641
O42   O     O_R   0.146160 0.414600 0.228570 -0.604752
O43   O     O_R   0.853840 0.585400 0.771430 -0.591877
O44   O     O_R   0.414600 0.853840 0.228570 -0.600496
O45   O     O_R   1.000000 0.560700 0.331550 -0.602832
O46   O     O_R   0.585400 0.146160 0.771430 -0.593417
O47   O     O_R   0.853840 0.585400 0.228570 -0.604475
O48   O     O_R   0.146160 0.414600 0.771430 -0.601762
O49   O     O_3   0.208536 0.681788 0.184333 -0.714490
O50   O     O_3   0.713544 0.395623 0.762095 -0.702699
O51   O     O_3   0.311292 0.200463 0.184055 -0.716763
O52   O     O_3   0.603321 0.713035 0.758369 -0.723319
O53   O     O_3   0.800470 0.310026 0.183915 -0.715249
O54   O     O_3   0.208678 0.681644 0.815655 -0.712800
O55   O     O_3   0.689242 0.800076 0.184037 -0.716177
O56   O     O_R   1.000000 0.439300 0.668450 -0.624315
O57   O     O_3   0.396778 0.286949 0.758041 -0.706492
O58   O     O_3   0.286698 0.397483 0.752651 -0.724445
O59   O     O_3   0.791867 0.682152 0.184295 -0.716245
O60   O     O_3   0.311242 0.799549 0.815945 -0.713431
O61   O     O_3   0.678661 0.212085 0.184739 -0.711899
O62   O     O_3   0.713370 0.602510 0.752914 -0.705475
O63   O     O_3   0.208714 0.318397 0.184350 -0.716843
O64   O     O_3   0.602564 0.286978 0.753578 -0.704894
O65   O     O_3   0.311108 0.799697 0.184049 -0.714119
O66   O     O_3   0.787004 0.102590 0.746419 -0.704555
O67   O     O_R   0.439300 0.000000 0.331550 -0.604425
O68   O     O_3   0.291464 0.818212 0.315668 -0.713945
O69   O     O_3   0.896688 0.786975 0.741651 -0.723532
O70   O     O_3   0.188706 0.299534 0.315945 -0.716454
O71   O     O_3   0.291323 0.818354 0.684344 -0.712262
O72   O     O_3   0.712019 0.178736 0.315270 -0.711760
O73   O     O_3   0.103237 0.213057 0.741918 -0.705652
O74   O     O_3   0.810757 0.699923 0.315963 -0.716572
O75   O     O_3   0.708135 0.817850 0.315705 -0.717127
O76   O     O_3   0.213306 0.102524 0.747332 -0.724570
O77   O     O_3   0.809939 0.300558 0.316084 -0.714787
O78   O     O_R   0.560700 0.000000 0.668450 -0.623342
O79   O     O_3   0.188758 0.700451 0.684055 -0.713286
O80   O     O_3   0.291284 0.181602 0.315650 -0.717109
O81   O     O_3   0.786636 0.897502 0.747120 -0.704992
O82   O     O_3   0.188890 0.700304 0.315952 -0.713956
O83   O     O_3   0.895646 0.213574 0.737883 -0.702518
O84   O     O_R   1.000000 0.439300 0.331550 -0.602874
Zn1   Zn    Zn3+2 0.086700 0.500000 0.219560 1.056585
Zn2   Zn    Zn3+2 0.413300 0.000000 0.280440 1.056813
Zn3   Zn    Zn3+2 1.000000 0.586700 0.719560 1.062161
Zn4   Zn    Zn3+2 0.000000 0.413300 0.280440 1.062793
Zn5   Zn    Zn3+2 0.413300 0.000000 0.719560 1.061754
Zn6   Zn    Zn3+2 0.586700 0.000000 0.280440 1.057826
Zn7   Zn    Zn3+2 0.000000 0.413300 0.719560 1.057075
Zn8   Zn    Zn3+2 1.000000 0.586700 0.280440 1.063490
Zn9   Zn    Zn3+2 0.913300 0.500000 0.780440 1.061259
Zn10  Zn    Zn3+2 0.500000 0.086700 0.219560 1.060679
Zn11  Zn    Zn3+2 0.500000 0.913300 0.780440 1.061918
Zn12  Zn    Zn3+2 0.913300 0.500000 0.219560 1.059967
Zn13  Zn    Zn3+2 0.086700 0.500000 0.780440 1.062220
Zn14  Zn    Zn3+2 0.500000 0.913300 0.219560 1.063827
Zn15  Zn    Zn3+2 0.500000 0.086700 0.780440 1.059265
Zn16  Zn    Zn3+2 0.586700 0.000000 0.719560 1.063511

loop_
_geom_bond_atom_site_label_1
_geom_bond_atom_site_label_2
_ccdc_geom_bond_type
C46   O11   A    
C72   O54   S    
H8    O65   S    
C88   C96   A    
C60   O25   A    
O7    Zn9   S    
C1    C101  A    
C2    C18   A    
C33   C45   S    
C55   O20   A    
O9    Zn11  S    
C79   O62   S    
O23   Zn10  S    
C15   C100  A    
O46   Zn15  S    
C102  Cl13  S    
C3    C79   A    
C53   O18   A    
C17   C20   A    
O31   Zn11  S    
C64   O29   A    
H12   O50   S    
H2    O59   S    
O21   Zn16  S    
O20   Zn2   S    
C50   O43   A    
O34   Zn11  S    
C4    C78   A    
H7    O64   S    
C16   C99   A    
H29   O54   S    
H9    O66   S    
C22   C101  S    
H23   O51   S    
H16   O73   S    
C80   C104  A    
C68   C81   A    
O6    Zn14  S    
H27   O52   S    
O34   Zn15  S    
O42   Zn1   S    
O16   Zn6   S    
C19   C102  A    
C11   C71   A    
C17   Cl14  S    
C82   O64   S    
C56   O21   A    
C19   Cl1   S    
C28   C107  S    
O13   Zn12  S    
C2    C107  A    
O30   Zn6   S    
C24   C39   T    
C70   O52   S    
C54   O19   A    
C67   O50   S    
O29   Zn5   S    
C52   O41   A    
C95   O77   S    
C21   Cl10  S    
O28   Zn8   S    
C91   C105  A    
C52   O17   A    
C49   O14   A    
C98   O81   S    
C53   O47   A    
C66   C83   A    
C44   O9    A    
C5    C88   A    
O44   Zn14  S    
C23   C103  S    
C80   Cl4   S    
C69   Cl16  S    
C91   Cl3   S    
C47   C105  A    
C29   C108  S    
C61   O32   A    
O33   Zn13  S    
C5    C52   S    
O78   Zn16  S    
C22   C37   T    
C16   C63   S    
H15   O72   S    
C35   C43   S    
C45   O6    A    
C56   C111  S    
C12   C98   A    
C1    Cl6   S    
H19   O76   S    
C47   Cl7   S    
O8    Zn1   S    
C27   C32   T    
C84   O66   S    
C41   O2    A    
C45   O10   A    
C3    C86   A    
O24   Zn4   S    
O18   Zn8   S    
C51   O16   A    
C9    C73   A    
C47   C80   A    
C13   C108  A    
C11   C59   S    
C26   C105  S    
C57   O22   A    
C3    C50   S    
C90   C94   A    
C69   C103  A    
C36   Cl8   S    
C81   O63   S    
H32   O58   S    
O12   Zn9   S    
O34   Zn5   S    
C84   C111  A    
C71   O53   S    
C74   C75   A    
O10   Zn10  S    
C4    C51   S    
O14   Zn4   S    
H4    O61   S    
C84   C100  A    
O11   Zn13  S    
C10   C57   S    
C34   C44   S    
C62   O38   A    
O1    Zn4   S    
C85   C110  A    
C46   O7    A    
C39   C40   S    
C85   O68   S    
C41   O56   A    
C42   O3    A    
C25   C103  A    
C7    C75   A    
C87   C112  A    
C30   C109  S    
C75   O58   S    
C59   O35   A    
H13   O70   S    
C42   O67   A    
C7    C90   A    
C29   C34   T    
C1    C69   A    
H20   O77   S    
C90   O73   S    
C57   O33   A    
H3    O60   S    
C24   C104  S    
O23   Zn2   S    
C12   C60   S    
C89   C95   A    
O36   Zn15  S    
C73   O55   S    
O47   Zn12  S    
C18   C106  A    
O1    Zn1   S    
C72   C77   A    
C85   C99   A    
C43   O78   A    
O15   Zn3   S    
O19   Zn7   S    
H18   O75   S    
O25   Zn16  S    
C38   C41   S    
C48   O8    A    
C81   C112  A    
C10   C96   A    
O23   Zn14  S    
C15   C67   A    
H17   O74   S    
C37   C42   S    
C8    C74   A    
H5    O62   S    
C83   C110  A    
C13   C21   A    
H11   O69   S    
C58   C101  A    
C65   O30   A    
C66   O49   S    
H10   O68   S    
C40   O84   A    
C100  O83   S    
C20   Cl11  S    
C49   C112  S    
C65   O37   A    
C36   C91   A    
O5    Zn15  S    
C8    C64   S    
H6    O63   S    
H22   O80   S    
C31   C48   S    
C93   O75   S    
C55   C110  S    
C96   O79   S    
C61   O26   A    
C49   O42   A    
C16   C66   A    
C25   C58   A    
C6    C53   S    
C5    C77   A    
C8    C94   A    
C9    C93   A    
O26   Zn2   S    
O38   Zn9   S    
C14   C97   A    
H31   O57   S    
C48   O13   A    
C83   O65   S    
C11   C95   A    
C97   O80   S    
C12   C70   A    
H26   O83   S    
O48   Zn13  S    
C30   C33   T    
C70   C79   A    
C86   O69   S    
C32   C46   S    
C28   C31   T    
C26   C38   T    
C54   O48   A    
O37   Zn14  S    
C25   Cl5   S    
O1    Zn8   S    
C21   C109  A    
C77   O60   S    
C6    C76   A    
C2    Cl12  S    
C4    C89   A    
C87   O70   S    
C18   Cl9   S    
O12   Zn7   S    
O32   Zn10  S    
C27   C106  S    
O17   Zn5   S    
C36   C104  A    
C82   C111  A    
C99   O82   S    
O4    Zn5   S    
H30   O55   S    
O23   Zn6   S    
H24   O81   S    
O43   Zn9   S    
O45   Zn8   S    
O41   Zn11  S    
O22   Zn3   S    
C43   O4    A    
O67   Zn2   S    
H25   O82   S    
C14   C61   S    
C94   O76   S    
H14   O71   S    
C17   C109  A    
O56   Zn7   S    
C6    C92   A    
C55   O44   A    
C64   O36   A    
C74   O57   S    
C92   O74   S    
C92   C93   A    
H21   O79   S    
C15   C62   S    
C63   O39   A    
O12   Zn3   S    
O34   Zn16  S    
C44   O5    A    
C71   C78   A    
C89   O72   S    
O27   Zn7   S    
C59   O24   A    
C86   C98   A    
C23   C35   T    
C9    C65   S    
C51   O40   A    
O39   Zn1   S    
C78   O61   S    
C13   Cl15  S    
C40   O45   A    
O84   Zn4   S    
C88   O71   S    
C56   O46   A    
C73   C76   A    
C67   C82   A    
C63   O28   A    
C102  C106  A    
O40   Zn10  S    
H28   O53   S    
C58   Cl2   S    
C14   C68   A    
C50   O15   A    
O2    Zn3   S    
C76   O59   S    
C7    C54   S    
C87   C97   A    
O12   Zn13  S    
O35   Zn12  S    
C68   O51   S    
H1    O49   S    
O3    Zn6   S    
O1    Zn12  S    
C60   O31   A    
C10   C72   A    
C62   O27   A    
C20   C108  A    
C19   C107  A    
