data_mof_unit_68199.cif
_audit_creation_date              2012-12-11T16:32:27-0500
_audit_creation_method            fapswitch 2.2
_symmetry_space_group_name_H-M    P1
_symmetry_Int_Tables_number       1
_space_group_crystal_system       triclinic
_cell_length_a                    6.972408
_cell_length_b                    14.319997
_cell_length_c                    16.041916
_cell_angle_alpha                 90.041782
_cell_angle_beta                  90.446149
_cell_angle_gamma                 90.276565
_cell_volume                      1601.63519523

loop_
_atom_site_label
_atom_site_type_symbol
_atom_type_description
_atom_site_fract_x
_atom_site_fract_y
_atom_site_fract_z
_atom_type_partial_charge
O1    O     O_R   0.361630 0.167340 0.164570 -0.521095
O2    O     O_R   0.638370 0.832660 0.835430 -0.532018
O3    O     O_R   0.690860 0.157560 0.338690 -0.539230
O4    O     O_R   0.309140 0.842440 0.661310 -0.546995
O5    O     O_R   0.861260 0.336420 0.339380 -0.549085
O6    O     O_R   0.138740 0.663580 0.660620 -0.549528
C1    C     C_R   0.522048 0.134697 0.367802 0.735068
C2    C     C_R   0.477647 0.863899 0.631153 0.752503
O7    O     O_R   0.691330 0.156310 0.165190 -0.519345
O8    O     O_R   0.308670 0.843690 0.834810 -0.517758
O9    O     O_R   0.861730 0.335160 0.164640 -0.539129
O10   O     O_R   0.138270 0.664840 0.835360 -0.516498
C3    C     C_R   0.522002 0.130538 0.139448 0.909616
C4    C     C_R   0.478309 0.868481 0.861486 0.921294
O11   O     O_R   0.361150 0.168600 0.339320 -0.543936
O12   O     O_R   0.638850 0.831400 0.660680 -0.537386
O13   O     O_3   0.527950 0.310560 0.252000 -0.377682
O14   O     O_3   0.472050 0.689440 0.748000 -0.384695
V1    V     V_3+5 0.802770 0.240990 0.251980 1.466977
V2    V     V_3+5 0.197230 0.759010 0.748020 1.482131
O15   O     O_R   0.191450 0.346190 0.165260 -0.521881
O16   O     O_R   0.808550 0.653810 0.834740 -0.552643
C5    C     C_R   0.022861 0.367139 0.136044 0.829563
C6    C     C_R   0.977240 0.632318 0.863553 0.820414
O17   O     O_R   0.190980 0.347440 0.338770 -0.539708
O18   O     O_R   0.809020 0.652560 0.661230 -0.538757
C7    C     C_R   0.023839 0.367751 0.368873 0.712342
C8    C     C_R   0.976216 0.631654 0.631552 0.712790
V3    V     V_3+5 0.302780 0.262760 0.251980 1.491480
V4    V     V_3+5 0.697220 0.737240 0.748020 1.459666
O19   O     O_3   0.027730 0.193200 0.251960 -0.384969
O20   O     O_3   0.972270 0.806800 0.748040 -0.377484
C9    C     C_3   0.841714 0.444752 0.497485 -0.255937
C10   C     C_3   0.158410 0.553816 0.503538 -0.258010
C11   C     C_3   0.978411 0.454463 0.574128 -0.265810
C12   C     C_3   0.021589 0.544210 0.426914 -0.265646
H1    H     H_    0.961480 0.417614 0.634322 0.136831
H2    H     H_    0.038351 0.581081 0.366743 0.137854
H3    H     H_    0.714219 0.398570 0.492714 0.175627
H4    H     H_    0.285982 0.599906 0.508606 0.175167
C13   C     C_3   0.983140 0.561701 0.561628 -0.134504
C14   C     C_3   0.016855 0.437018 0.439320 -0.133680
C15   C     C_3   0.848620 0.551590 0.485677 0.564306
C16   C     C_3   0.151337 0.446966 0.515308 0.564028
H5    H     H_    0.886915 0.321625 0.752553 0.158774
H6    H     H_    0.094315 0.678154 0.248634 0.162202
C17   C     C_R   0.019917 0.696494 0.038729 0.497249
C18   C     C_R   0.985207 0.303349 0.960789 0.468623
C19   C     C_R   0.052796 0.722409 0.122910 -0.188035
C20   C     C_R   0.944628 0.277268 0.877139 -0.212976
C21   C     C_R   0.069298 0.656097 0.184931 -0.192396
C22   C     C_R   0.917416 0.343645 0.815851 -0.189434
C23   C     C_R   0.054653 0.562121 0.165978 -0.178651
C24   C     C_R   0.933287 0.437646 0.834618 -0.182983
C25   C     C_R   0.026990 0.531069 0.083043 -0.017223
C26   C     C_R   0.969702 0.468672 0.916973 -0.017142
C27   C     C_R   0.012056 0.598466 0.017840 -0.033683
C28   C     C_R   0.989854 0.401284 0.981877 -0.036842
C29   C     C_R   0.014470 0.433825 0.065518 -0.175148
C30   C     C_R   0.986101 0.565830 0.934228 -0.182801
H7    H     H_    0.068842 0.794214 0.142333 0.108868
H8    H     H_    0.936399 0.205386 0.857048 0.112860
H9    H     H_    0.067375 0.514075 0.217674 0.093021
H10   H     H_    0.914696 0.485696 0.783259 0.096536
C31   C     C_3   0.321591 0.021986 0.473666 -0.184451
C32   C     C_3   0.677537 0.975280 0.524289 -0.184266
C33   C     C_3   0.409097 0.923188 0.471130 -0.003184
C34   C     C_3   0.590006 0.074060 0.526946 0.010499
H11   H     H_    0.174056 0.040280 0.453033 0.123387
H12   H     H_    0.825243 0.956924 0.544606 0.120275
C35   C     C_3   0.488416 0.935007 0.560241 -0.073710
C36   C     C_3   0.510877 0.062340 0.437775 -0.073135
C37   C     C_3   0.402226 0.034220 0.563813 -0.108447
C38   C     C_3   0.596793 0.962952 0.434197 -0.131628
H13   H     H_    0.317013 0.059940 0.616815 0.158262
H14   H     H_    0.680908 0.934180 0.382175 0.172742
C39   C     C_R   0.457766 0.197263 0.968195 0.480537
C40   C     C_R   0.486865 0.803230 0.033870 0.448348
C41   C     C_R   0.411493 0.225007 0.886403 -0.316314
C42   C     C_R   0.518386 0.772159 0.115839 -0.321997
C43   C     C_R   0.420768 0.163223 0.820742 -0.117500
C44   C     C_R   0.577111 0.832873 0.177788 -0.109331
C45   C     C_R   0.476234 0.070845 0.834448 0.361079
C46   C     C_R   0.593806 0.928813 0.161805 0.351365
C47   C     C_R   0.482904 0.034332 0.917175 -0.119707
C48   C     C_R   0.537377 0.965807 0.082371 -0.116657
C49   C     C_R   0.481643 0.098857 0.985532 -0.096875
C50   C     C_R   0.502755 0.901352 0.015603 -0.089334
C51   C     C_R   0.488578 0.935919 0.932374 -0.143684
C52   C     C_R   0.514281 0.064061 0.068147 -0.149250
H15   H     H_    0.370043 0.296137 0.872631 0.147391
H16   H     H_    0.498942 0.699469 0.132271 0.149397
C53   C     C_1   0.625516 0.794878 0.258352 0.328606
N1    N     N_1   0.667386 0.764612 0.322697 -0.354053
C54   C     C_1   0.373198 0.196711 0.738602 0.329268
N2    N     N_1   0.332198 0.224596 0.673280 -0.353500
O21   O     O_3   0.461962 0.262470 0.033150 -0.539069
C55   C     C_3   0.506869 0.354889 0.008939 -0.188409
H17   H     H_    0.376149 0.391909 0.988128 0.130520
H18   H     H_    0.616058 0.357940 0.959325 0.117950
H19   H     H_    0.564677 0.393063 0.063849 0.156785
O22   O     O_3   0.414915 0.741839 0.973514 -0.545519
C56   C     C_3   0.493279 0.651230 0.978664 -0.177981
H20   H     H_    0.648132 0.652848 0.993870 0.124250
H21   H     H_    0.476026 0.616537 0.917266 0.164957
H22   H     H_    0.414550 0.608102 0.024619 0.115869
O23   O     O_3   0.533557 0.018648 0.766709 -0.581137
C57   C     C_3   0.732079 0.034623 0.755864 -0.249235
H23   H     H_    0.816354 0.011977 0.811489 0.122970
H24   H     H_    0.762847 0.109276 0.741806 0.144094
H25   H     H_    0.782304 0.993288 0.702063 0.166388
O24   O     O_3   0.667152 0.985282 0.224415 -0.578447
C58   C     C_3   0.869547 0.978521 0.224450 -0.217629
H26   H     H_    0.919971 0.906488 0.237130 0.116952
H27   H     H_    0.927960 0.022698 0.275402 0.173260
H28   H     H_    0.930229 0.003539 0.164672 0.116750
O25   O     O_3   0.687181 0.608274 0.470601 -0.549097
C59   C     C_3   0.587263 0.573600 0.400043 -0.209538
H29   H     H_    0.522263 0.504136 0.412762 0.142481
H30   H     H_    0.680642 0.569798 0.344219 0.138298
H31   H     H_    0.468062 0.621645 0.384714 0.188096
O26   O     O_3   0.312329 0.389850 0.529998 -0.549222
C60   C     C_3   0.410243 0.422390 0.601839 -0.212796
H32   H     H_    0.315737 0.423600 0.657385 0.137725
H33   H     H_    0.474140 0.492600 0.591334 0.141403
H34   H     H_    0.529912 0.374254 0.616228 0.187677
O27   O     O_3   0.998769 0.762611 0.974935 -0.546994
C61   C     C_3   0.984011 0.856393 0.001010 -0.209637
H35   H     H_    0.122734 0.883020 0.025162 0.135468
H36   H     H_    0.871562 0.865085 0.048372 0.110339
H37   H     H_    0.944017 0.899818 0.946415 0.154537
O28   O     O_3   0.031136 0.237775 0.022450 -0.545559
C62   C     C_3   0.995732 0.143706 0.000867 -0.200817
H38   H     H_    0.093581 0.119407 0.951384 0.118381
H39   H     H_    0.845138 0.132862 0.981650 0.121433
H40   H     H_    0.023537 0.099836 0.056342 0.151221
C63   C     C_1   0.304958 0.841172 0.439433 0.308143
N3    N     N_1   0.221950 0.776750 0.414362 -0.378898
C64   C     C_1   0.694360 0.156258 0.558122 0.307412
N4    N     N_1   0.777545 0.220855 0.582715 -0.382573

loop_
_geom_bond_atom_site_label_1
_geom_bond_atom_site_label_2
_ccdc_geom_bond_type
C32   C34   S    
C53   N1    T    
C25   C29   A    
C3    C52   S    
C40   O22   S    
C13   C15   S    
C23   C25   A    
C12   C14   S    
C54   N2    T    
O4    C2    A    
V1    O19   S    
C61   H35   S    
O21   C55   S    
C60   H32   S    
C17   C19   A    
C5    C29   S    
O9    V1    S    
C9    H3    S    
C38   H14   S    
C10   H4    S    
C9    C14   S    
C11   H1    S    
C46   C48   A    
O3    C1    A    
C43   C54   S    
C40   C42   A    
C60   H33   S    
O12   V4    S    
C32   C38   S    
C8    C13   S    
C31   C37   S    
C57   H23   S    
C16   O26   S    
O7    C3    A    
C59   H29   S    
C44   C46   A    
C9    C11   S    
O5    C7    A    
O7    V1    S    
O6    C8    A    
O8    V2    S    
O28   C62   S    
C19   C21   A    
C62   H40   S    
C20   C22   A    
O23   C57   S    
C39   O21   S    
O14   V4    S    
C26   C28   A    
O14   V2    S    
C6    C30   S    
C58   H28   S    
C18   C20   A    
C2    O12   A    
C44   C53   S    
C37   H13   S    
C10   C13   S    
C14   C16   S    
C33   C63   S    
O24   C58   S    
C43   C45   A    
C22   C24   A    
O11   V3    S    
C39   C41   A    
O17   V3    S    
C24   C26   A    
C19   H7    S    
C47   C49   A    
C9    C15   S    
C10   C16   S    
C42   C44   A    
O8    C4    A    
C1    C36   S    
C35   C37   S    
C47   C51   A    
C27   C30   A    
C1    O11   A    
H5    C22   S    
C31   C33   S    
C28   C29   A    
O15   V3    S    
H6    C21   S    
C26   C30   A    
C21   C23   A    
C59   H31   S    
C42   H16   S    
C4    C51   S    
C17   C27   A    
C32   C35   S    
C34   C36   S    
O10   V2    S    
O1    V3    S    
C56   H21   S    
C33   C38   S    
C46   O24   S    
O3    V1    S    
C11   C16   S    
C11   C13   S    
C15   O25   S    
C36   C38   S    
C45   C47   A    
O18   V4    S    
C55   H18   S    
C25   C27   A    
C48   C52   A    
C62   H38   S    
C20   H8    S    
O16   C6    A    
O1    C3    A    
O27   C61   S    
C31   C36   S    
C61   H37   S    
C41   C43   A    
C58   H26   S    
V2    O20   S    
C40   C50   A    
C2    C35   S    
O16   V4    S    
C41   H15   S    
C60   H34   S    
C61   H36   S    
C64   N4    T    
C57   H24   S    
C18   C28   A    
O5    V1    S    
O17   C7    A    
C55   H19   S    
O6    V2    S    
C63   N3    T    
O10   C6    A    
O18   C8    A    
C57   H25   S    
O2    V4    S    
O15   C5    A    
C34   C37   S    
V3    O19   S    
O13   V3    S    
C12   H2    S    
V4    O20   S    
C23   H9    S    
C7    C14   S    
C32   H12   S    
C24   H10   S    
C17   O27   S    
C31   H11   S    
C48   C50   A    
O9    C5    A    
O13   V1    S    
C10   C12   S    
C45   O23   S    
C56   H22   S    
C33   C35   S    
O22   C56   S    
O2    C4    A    
C59   H30   S    
O4    V2    S    
C50   C51   A    
C39   C49   A    
C55   H17   S    
C34   C64   S    
C49   C52   A    
C56   H20   S    
C62   H39   S    
C18   O28   S    
C12   C15   S    
O26   C60   S    
O25   C59   S    
C58   H27   S    
