data_mof_unit_29232.cif
_audit_creation_date              2012-12-10T20:42:38-0500
_audit_creation_method            fapswitch 2.2
_symmetry_space_group_name_H-M    P1
_symmetry_Int_Tables_number       1
_space_group_crystal_system       triclinic
_cell_length_a                    8.895977
_cell_length_b                    10.675694
_cell_length_c                    9.902309
_cell_angle_alpha                 90.216451
_cell_angle_beta                  90.517711
_cell_angle_gamma                 90.09379
_cell_volume                      940.383083404

loop_
_atom_site_label
_atom_site_type_symbol
_atom_type_description
_atom_site_fract_x
_atom_site_fract_y
_atom_site_fract_z
_atom_type_partial_charge
C1    C     C_R   0.493655 0.259993 0.499492 0.902142
C2    C     C_R   0.428112 0.932414 0.381985 -0.300700
C3    C     C_R   0.468302 0.870643 0.501356 -0.214950
C4    C     C_R   0.476001 0.936490 0.622392 0.018929
C5    C     C_3   0.590939 0.931786 0.735183 0.405919
C6    C     C_3   0.589504 0.074198 0.734112 -0.490313
C7    C     C_R   0.368511 0.508169 0.069968 0.185634
C8    C     C_R   0.630683 0.501475 0.073796 -0.239774
C9    C     C_R   0.631729 0.503991 0.930128 0.566380
C10   C     C_R   0.368515 0.507442 0.927753 0.102060
C11   C     C_3   0.241132 0.416703 0.921125 -0.476602
C12   C     C_R   0.218834 0.499989 0.499613 0.924567
C13   C     C_3   0.240034 0.418439 0.074440 -0.462716
C14   C     C_R   0.494449 0.739749 0.500258 0.886695
C15   C     C_R   0.781156 0.500071 0.500412 0.926919
C16   C     C_1   0.065442 0.500020 0.499501 -0.209277
C17   C     C_1   0.934556 0.500051 0.500614 -0.196631
C18   C     C_R   0.476765 0.064248 0.621147 -0.029879
C19   C     C_R   0.468027 0.128239 0.498943 -0.202166
C20   C     C_R   0.430806 0.062657 0.378711 0.515388
H1    H     H_    0.274568 0.324703 0.877766 0.209960
H2    H     H_    0.137253 0.462283 0.116590 0.204179
H3    H     H_    0.271283 0.327258 0.120434 0.248379
H4    H     H_    0.403744 0.880662 0.290018 0.180748
H5    H     H_    0.700022 0.892532 0.701105 0.068995
H6    H     H_    0.735894 0.498522 0.129067 0.173216
H7    H     H_    0.138573 0.458540 0.875243 0.224931
N1    N     N_R   0.499010 0.499140 0.142800 -0.123869
N2    N     N_R   0.499010 0.499180 0.857150 -0.143607
O1    O     O_R   0.500020 0.316790 0.614690 -0.615169
O2    O     O_R   0.500000 0.316760 0.385350 -0.573626
O3    O     O_R   0.285350 0.500020 0.614650 -0.624804
O4    O     O_R   0.285340 0.499980 0.385310 -0.613096
O5    O     O_R   0.500000 0.683240 0.614650 -0.615737
O6    O     O_R   0.499980 0.683210 0.385310 -0.618579
O7    O     O_R   0.714660 0.500020 0.614690 -0.550108
O8    O     O_R   0.714650 0.499980 0.385350 -0.635590
Zn1   Zn    Zn3+2 0.500010 0.500020 0.653130 0.976428
Zn2   Zn    Zn3+2 0.499990 0.499980 0.346870 0.953708
O9    O     O_3   0.394877 0.125102 0.260346 -0.608220
C21   C     C_3   0.512618 0.109792 0.167047 -0.281640
H8    H     H_    0.623299 0.137669 0.211380 0.165910
H9    H     H_    0.490748 0.171716 0.079360 0.179234
H10   H     H_    0.517516 0.012070 0.128478 0.181675
O10   O     O_3   0.547619 0.879918 0.861812 -0.611432
C22   C     C_3   0.390571 0.874479 0.881598 -0.284991
H11   H     H_    0.337269 0.805483 0.811761 0.182818
H12   H     H_    0.337666 0.968206 0.870926 0.164175
H13   H     H_    0.369585 0.841787 0.985956 0.170627
H14   H     H_    0.540810 0.117497 0.826075 0.208940
H15   H     H_    0.697862 0.115864 0.701454 0.170021
O11   O     O_3   0.767607 0.499518 0.864534 -0.586614
C23   C     C_3   0.840329 0.616433 0.878943 -0.309238
H16   H     H_    0.766274 0.695072 0.846900 0.195940
H17   H     H_    0.881329 0.631219 0.984190 0.143945
H18   H     H_    0.939818 0.617560 0.812230 0.180864

loop_
_geom_bond_atom_site_label_1
_geom_bond_atom_site_label_2
_ccdc_geom_bond_type
N2    Zn1   S    
C14   O5    A    
C7    C10   A    
O6    Zn2   S    
O3    Zn1   S    
C6    H15   S    
C21   H9    S    
C21   H8    S    
C19   C20   A    
C22   H13   S    
C9    N2    A    
C4    C18   A    
O7    Zn1   S    
C2    C3    A    
O8    Zn2   S    
O5    Zn1   S    
C23   H16   S    
C12   O3    A    
C15   O8    A    
C11   C13   S    
C10   N2    A    
O1    Zn1   S    
O4    Zn2   S    
C9    O11   S    
C13   H2    S    
C3    C14   S    
C6    C18   S    
C4    C5    S    
C1    O1    A    
O2    Zn2   S    
C11   H7    S    
C23   H17   S    
C2    H4    S    
C5    C6    S    
C20   O9    S    
C21   H10   S    
C22   H12   S    
C1    C19   S    
C16   C17   T    
C10   C11   S    
C2    C20   A    
C3    C4    A    
C15   O7    A    
C1    O2    A    
C8    H6    S    
O11   C23   S    
C13   H3    S    
C8    N1    A    
C18   C19   A    
C23   H18   S    
C14   O6    A    
C15   C17   S    
C22   H11   S    
O9    C21   S    
C7    C13   S    
N1    Zn2   S    
C12   O4    A    
O10   C22   S    
C5    O10   S    
C11   H1    S    
C6    H14   S    
C7    N1    A    
C12   C16   S    
C8    C9    A    
C5    H5    S    
