data_mof_unit_21933.cif
_audit_creation_date              2012-12-10T17:26:17-0500
_audit_creation_method            fapswitch 2.2
_symmetry_space_group_name_H-M    P1
_symmetry_Int_Tables_number       1
_space_group_crystal_system       triclinic
_cell_length_a                    10.084631
_cell_length_b                    10.901444
_cell_length_c                    27.506935
_cell_angle_alpha                 88.585768
_cell_angle_beta                  81.819581
_cell_angle_gamma                 95.513013
_cell_volume                      2977.15764924

loop_
_atom_site_label
_atom_site_type_symbol
_atom_type_description
_atom_site_fract_x
_atom_site_fract_y
_atom_site_fract_z
_atom_type_partial_charge
C1    C     C_R   0.556860 0.732117 0.497877 0.986598
C2    C     C_R   0.468041 0.619696 0.122587 -0.049593
C3    C     C_R   0.495873 0.478389 0.647244 -0.129156
C4    C     C_R   0.496853 0.512876 0.352753 -0.134343
C5    C     C_R   0.419488 0.601232 0.024309 0.047253
C6    C     C_R   0.415289 0.366704 0.983802 0.043245
C7    C     C_R   0.390226 0.374832 0.035498 -0.101121
C8    C     C_R   0.396701 0.589595 0.975002 -0.102194
C9    C     C_R   0.411668 0.493330 0.054813 0.070152
C10   C     C_R   0.413775 0.473928 0.953761 0.068427
C11   C     C_R   0.463514 0.715294 0.042605 -0.071275
C12   C     C_R   0.443138 0.267885 0.502127 0.985243
C13   C     C_R   0.455589 0.258928 0.961288 -0.072416
C14   C     C_R   0.485824 0.724741 0.091178 -0.072143
C15   C     C_R   0.479006 0.252688 0.910357 -0.068854
C16   C     C_R   0.500029 0.496136 0.594159 0.920906
C17   C     C_R   0.499227 0.502658 0.405812 0.924509
C18   C     C_R   0.367000 0.688388 0.944798 0.296196
C19   C     C_R   0.353899 0.271382 0.069035 0.295573
C20   C     C_2   0.590033 0.863462 0.493104 -0.397945
C21   C     C_2   0.409955 0.136547 0.506904 -0.396990
C22   C     C_2   0.496218 0.936645 0.510204 0.364870
C23   C     C_R   0.434098 0.466409 0.902184 -0.052237
C24   C     C_2   0.503746 0.063357 0.489791 0.366352
C25   C     C_2   0.927123 0.509594 0.503782 -0.121564
C26   C     C_2   0.072896 0.490463 0.496193 -0.125544
C27   C     C_R   0.446882 0.562399 0.821381 0.642150
C28   C     C_R   0.436300 0.409101 0.184321 0.653096
C29   C     C_R   0.486500 0.350745 0.829035 0.659505
C30   C     C_R   0.489602 0.626828 0.171679 0.654618
C31   C     C_R   0.362819 0.434393 0.727481 0.348268
C32   C     C_R   0.608374 0.505177 0.268805 0.359475
C33   C     C_R   0.370877 0.452102 0.676905 -0.287763
C34   C     C_R   0.430486 0.503701 0.104416 -0.052799
C35   C     C_R   0.611660 0.496201 0.319329 -0.288340
C36   C     C_R   0.614635 0.483044 0.668348 -0.316889
C37   C     C_R   0.379024 0.541953 0.335386 -0.314790
C38   C     C_R   0.608357 0.467899 0.719470 0.483344
C39   C     C_R   0.373832 0.550646 0.284960 0.478932
C40   C     C_R   0.482041 0.445827 0.748897 0.142283
C41   C     C_R   0.487998 0.530557 0.251840 0.143487
C42   C     C_R   0.424893 0.570804 0.872369 -0.099302
C43   C     C_R   0.414336 0.397678 0.135580 -0.102114
C44   C     C_R   0.387240 0.679250 0.893887 -0.126656
C45   C     C_R   0.371452 0.283608 0.118122 -0.123157
C46   C     C_R   0.466417 0.355356 0.880421 -0.049418
H1    H     H_    0.711417 0.501716 0.645351 0.170156
H2    H     H_    0.348120 0.203420 0.143054 0.231381
H3    H     H_    0.703050 0.474566 0.332606 0.211485
H4    H     H_    0.278959 0.445745 0.660616 0.210222
H5    H     H_    0.518828 0.814401 0.103788 0.212961
H6    H     H_    0.508162 0.167488 0.894582 0.213722
H7    H     H_    0.486971 0.797332 0.019042 0.210889
H8    H     H_    0.474625 0.180096 0.982770 0.214166
H9    H     H_    0.802915 0.494318 0.716156 0.363634
H10   H     H_    0.186370 0.585568 0.294790 0.343386
H11   H     H_    0.907990 0.569017 0.265471 0.360151
H12   H     H_    0.290243 0.556363 0.360933 0.173327
H13   H     H_    0.110004 0.275320 0.716425 0.359860
H14   H     H_    0.145739 0.714608 0.026817 0.361696
H15   H     H_    0.137687 0.209603 0.007460 0.360698
H16   H     H_    0.619998 0.044683 0.428553 0.332794
H17   H     H_    0.379969 0.955284 0.571443 0.330875
H18   H     H_    0.315613 0.102076 0.529229 0.131930
H19   H     H_    0.684392 0.897948 0.470794 0.133491
H20   H     H_    0.109466 0.424023 0.470085 0.171608
H21   H     H_    0.890568 0.576075 0.529874 0.169381
H22   H     H_    0.119721 0.613562 0.544541 0.191622
H23   H     H_    0.880265 0.386394 0.455476 0.191580
H24   H     H_    0.368778 0.756487 0.871070 0.233038
N1    N     N_R   0.473863 0.452942 0.800954 -0.326747
N2    N     N_R   0.474662 0.522067 0.201061 -0.326035
N3    N     N_2   0.842700 0.448890 0.480020 -0.186635
N4    N     N_2   0.157300 0.551110 0.519980 -0.186529
O1    O     O_R   0.431060 0.692470 0.504020 -0.537084
O2    O     O_2   0.418874 0.308397 0.215011 -0.505454
O3    O     O_2   0.524906 0.736941 0.190010 -0.500276
O4    O     O_2   0.516130 0.245191 0.807296 -0.499868
O5    O     O_3   0.722945 0.478457 0.741814 -0.690816
O6    O     O_3   0.257613 0.574731 0.266874 -0.712164
O7    O     O_2   0.731632 0.356091 0.205606 -0.200126
O8    O     O_2   0.779310 0.577527 0.186858 -0.267075
O9    O     O_3   0.889274 0.481965 0.256878 -0.499711
O10   O     O_2   0.204685 0.306121 0.802576 -0.265779
O11   O     O_2   0.163043 0.519956 0.787428 -0.203399
O12   O     O_R   0.568940 0.307530 0.495980 -0.536822
O13   O     O_3   0.085627 0.356773 0.727849 -0.513221
O14   O     O_2   0.375679 0.928498 0.961475 -0.239403
O15   O     O_2   0.169354 0.831599 0.936734 -0.224215
O16   O     O_3   0.208952 0.790169 0.026324 -0.448771
O17   O     O_2   0.354683 0.031621 0.053116 -0.220720
O18   O     O_2   0.148252 0.098474 0.096615 -0.220813
O19   O     O_3   0.198204 0.143169 0.002639 -0.452546
O20   O     O_3   0.606841 0.108920 0.453113 -0.734119
O21   O     O_3   0.393090 0.891076 0.546868 -0.735168
O22   O     O_R   0.651120 0.659650 0.491200 -0.634629
O23   O     O_R   0.348880 0.340350 0.508800 -0.634799
O24   O     O_R   0.389980 0.516390 0.577660 -0.605572
O25   O     O_R   0.610020 0.483610 0.422340 -0.607270
O26   O     O_R   0.610040 0.483570 0.564830 -0.626086
O27   O     O_R   0.389960 0.516430 0.435170 -0.629289
O28   O     O_2   0.439882 0.662349 0.792199 -0.509090
S1    S     S_3+6 0.753651 0.479907 0.227562 0.082609
S2    S     S_3+6 0.202008 0.403900 0.763344 0.075863
S3    S     S_3+6 0.279046 0.813597 0.967175 0.088812
S4    S     S_3+6 0.262343 0.132164 0.055600 0.092739
Zn1   Zn    Zn3+2 0.353060 0.521910 0.508560 0.988663
Zn2   Zn    Zn3+2 0.646940 0.478090 0.491440 0.989614

loop_
_geom_bond_atom_site_label_1
_geom_bond_atom_site_label_2
_ccdc_geom_bond_type
O27   Zn1   S    
O1    Zn1   S    
C40   N1    S    
C22   O21   S    
C25   H21   S    
C39   C41   A    
O25   Zn2   S    
C23   C42   A    
O9    S1    S    
C5    C11   A    
C24   O20   S    
C11   C14   A    
H15   O19   S    
C38   O5    S    
C3    C33   A    
H22   N4    S    
H17   O21   S    
C31   C40   A    
C36   H1    S    
C17   O27   A    
C21   H18   S    
N4    Zn1   S    
C30   O3    S    
C29   O4    S    
C35   H3    S    
O8    S1    D    
H11   O9    S    
H23   N3    S    
C37   H12   S    
C11   H7    S    
C2    C34   A    
O22   Zn2   S    
C4    C35   A    
C23   C46   A    
O17   S4    D    
C28   N2    A    
C42   C44   A    
O26   Zn2   S    
C1    O1    A    
C32   C35   A    
C20   H19   S    
C16   O26   A    
N3    Zn2   S    
C33   H4    S    
C12   C21   S    
C17   O25   A    
C8    C18   A    
O24   Zn1   S    
C26   H20   S    
C5    C9    A    
C18   C44   A    
O19   S4    S    
H9    O5    S    
C14   H5    S    
C32   C41   A    
C31   C33   A    
C32   S1    S    
C15   H6    S    
C44   H24   S    
C43   C45   A    
C12   O23   A    
O11   S2    D    
C41   N2    S    
C4    C17   S    
O18   S4    D    
C20   C22   D    
C7    C19   A    
H16   O20   S    
C9    C34   A    
O10   S2    D    
C22   C24   S    
C28   O2    S    
C27   N1    A    
C13   H8    S    
O7    S1    D    
C45   H2    S    
C7    C9    A    
C1    C20   S    
C28   C43   A    
O12   Zn2   S    
C34   C43   A    
O16   S3    S    
C6    C10   A    
C5    C8    A    
C30   N2    A    
C19   C45   A    
C6    C7    A    
H14   O16   S    
C10   C23   A    
C27   O28   S    
H10   O6    S    
C12   O12   A    
C29   C46   A    
C2    C30   A    
C31   S2    S    
C13   C15   A    
C25   C26   S    
C18   S3    S    
C37   C39   A    
C39   O6    S    
C6    C13   A    
C38   C40   A    
O14   S3    D    
C27   C42   A    
C16   O24   A    
C3    C36   A    
C1    O22   A    
C36   C38   A    
C26   N4    D    
C25   N3    D    
C2    C14   A    
H13   O13   S    
O13   S2    S    
O23   Zn1   S    
C19   S4    S    
C4    C37   A    
C8    C10   A    
C21   C24   D    
O15   S3    D    
C15   C46   A    
C3    C16   S    
C29   N1    A    
