data_mof_unit_59004.cif
_audit_creation_date              2013-03-05T15:57:56-0500
_audit_creation_method            fapswitch 2.2
_symmetry_space_group_name_H-M    P1
_symmetry_Int_Tables_number       1
_space_group_crystal_system       triclinic
_cell_length_a                    15.041487
_cell_length_b                    15.122921
_cell_length_c                    17.246964
_cell_angle_alpha                 109.02069
_cell_angle_beta                  106.372826
_cell_angle_gamma                 109.298436
_cell_volume                      3149.26347239

loop_
_atom_site_label
_atom_site_type_symbol
_atom_site_description
_atom_site_fract_x
_atom_site_fract_y
_atom_site_fract_z
_atom_type_partial_charge
C1    C     C_R   0.084793 0.292837 0.083079 -0.147507
C2    C     C_R   0.910691 0.724501 0.968712 -0.126387
H1    H     H_    0.162063 0.325262 0.136685 0.099939
H2    H     H_    0.830357 0.708259 0.936054 0.093563
N1    N     N_R   0.055660 0.348550 0.045620 -0.040052
N2    N     N_R   0.944340 0.651450 0.954380 -0.038955
C3    C     C_R   0.934429 0.522914 0.750912 -0.188010
C4    C     C_R   0.065770 0.523746 0.264608 -0.155792
H3    H     H_    0.855167 0.498265 0.704806 0.110946
H4    H     H_    0.144531 0.560118 0.317371 0.109334
N3    N     N_R   0.960830 0.507850 0.823700 -0.042700
N4    N     N_R   0.039170 0.492150 0.176300 -0.046303
C5    C     C_R   0.776507 0.202727 0.812588 -0.137434
C6    C     C_R   0.280874 0.784941 0.177673 -0.159275
H5    H     H_    0.767084 0.139437 0.830583 0.096583
H6    H     H_    0.312599 0.837192 0.151252 0.105347
N5    N     N_R   0.811290 0.303410 0.871650 -0.041521
N6    N     N_R   0.188710 0.696590 0.128350 -0.041752
C7    C     C_R   0.260275 0.533227 0.951408 -0.147249
C8    C     C_R   0.697776 0.400671 0.991370 -0.133257
H7    H     H_    0.283240 0.571436 0.912308 0.098894
H8    H     H_    0.666738 0.334924 0.004920 0.111343
N7    N     N_R   0.205200 0.552990 0.997670 -0.043852
N8    N     N_R   0.794800 0.447010 0.002330 -0.038227
C9    C     C_R   0.781853 0.297691 0.736090 -0.128780
C10   C     C_R   0.272481 0.690752 0.253582 -0.123217
H9    H     H_    0.776790 0.322981 0.684074 0.093335
H10   H     H_    0.294244 0.655237 0.295841 0.085050
N9    N     N_R   0.814800 0.361830 0.823700 -0.038673
N10   N     N_R   0.185200 0.638170 0.176300 -0.037643
C11   C     C_R   0.242991 0.431865 0.021896 -0.109512
C12   C     C_R   0.704273 0.500909 0.921243 -0.121610
H11   H     H_    0.243870 0.373299 0.044242 0.116831
H12   H     H_    0.681920 0.534320 0.877058 0.107296
N11   N     N_R   0.201680 0.494570 0.045620 -0.041602
N12   N     N_R   0.798320 0.505430 0.954380 -0.041819
C13   C     C_R   0.107518 0.607027 0.826484 0.037021
C14   C     C_R   0.890985 0.438489 0.187165 0.052690
N13   N     N_R   0.068420 0.560530 0.871650 -0.052379
N14   N     N_R   0.931580 0.439470 0.128350 -0.046104
C15   C     C_R   0.912614 0.204928 0.001913 -0.143841
C16   C     C_R   0.084246 0.805177 0.052327 -0.130624
H13   H     H_    0.830621 0.152670 0.975671 0.116637
H14   H     H_    0.163322 0.859066 0.102361 0.129288
N15   N     N_R   0.948070 0.295860 0.997670 -0.040941
N16   N     N_R   0.051930 0.704140 0.002330 -0.044282
C17   C     C_R   0.996797 0.201352 0.056873 0.066899
C18   C     C_R   0.998856 0.823056 0.030250 0.050861
C19   C     C_R   0.024793 0.585874 0.751931 0.052514
C20   C     C_R   0.973137 0.491390 0.272624 0.013100
C21   C     C_R   0.759364 0.196917 0.726946 0.056340
C22   C     C_R   0.335498 0.783406 0.256498 0.065557
C23   C     C_R   0.286466 0.458897 0.967838 0.049051
C24   C     C_R   0.639973 0.434336 0.943140 0.042476
C25   C     C_R   0.911267 0.934446 0.049471 -0.238288
C26   C     C_R   0.093493 0.113729 0.104382 -0.235763
H15   H     H_    0.840985 0.865803 0.031753 0.129626
H16   H     H_    0.165449 0.181260 0.123815 0.128125
H17   H     H_    0.718742 0.896345 0.909526 0.112011
H18   H     H_    0.272879 0.110734 0.247705 0.119071
C27   C     C_R   0.004023 0.927685 0.058866 0.067870
C28   C     C_R   0.997889 0.115907 0.079049 0.056198
C29   C     C_R   0.097800 0.020697 0.090536 0.024704
C30   C     C_R   0.906481 0.027640 0.058527 0.025177
C31   C     C_R   0.714751 0.953641 0.964033 -0.183753
C32   C     C_R   0.284297 0.077906 0.187557 -0.178047
Ni1   Ni    Ni4+2 0.119340 0.493420 0.109960 0.212104
Ni2   Ni    Ni4+2 0.880660 0.506580 0.890040 0.213437
Ni3   Ni    Ni4+2 0.872590 0.372590 0.000000 0.217462
Ni4   Ni    Ni4+2 0.127410 0.627410 0.000000 0.206336
C33   C     C_R   0.612340 0.026820 0.021599 -0.090907
C34   C     C_R   0.398741 0.045306 0.120450 -0.114660
H19   H     H_    0.450204 0.496266 0.350543 0.099591
H20   H     H_    0.504217 0.375900 0.554262 0.098933
C35   C     C_R   0.471730 0.565512 0.261900 -0.117852
C36   C     C_R   0.508038 0.315020 0.651254 -0.114520
H21   H     H_    0.492693 0.643754 0.311050 0.113610
H22   H     H_    0.527570 0.255235 0.617448 0.114438
C37   C     C_R   0.468691 0.547807 0.176217 -0.116332
C38   C     C_R   0.496026 0.324110 0.730527 -0.137698
H23   H     H_    0.486849 0.612758 0.159536 0.115469
H24   H     H_    0.506076 0.270450 0.756984 0.113657
C39   C     C_R   0.441337 0.446165 0.112055 0.101442
C40   C     C_R   0.471690 0.402286 0.775539 0.116160
C41   C     C_R   0.419841 0.363324 0.135607 -0.180307
C42   C     C_R   0.457954 0.469884 0.738769 -0.170764
H25   H     H_    0.399645 0.284721 0.087203 0.128110
H26   H     H_    0.439925 0.531161 0.772383 0.107810
C43   C     C_R   0.422386 0.381359 0.221205 -0.118173
C44   C     C_R   0.469646 0.460189 0.659234 -0.107865
H27   H     H_    0.404480 0.317105 0.238681 0.120546
H28   H     H_    0.459611 0.512891 0.631607 0.104715
C45   C     C_R   0.448096 0.482339 0.284235 -0.108830
C46   C     C_R   0.494886 0.383021 0.615646 -0.100019
C47   C     C_R   0.518852 0.412712 0.008049 -0.234890
C48   C     C_R   0.376767 0.424098 0.872340 -0.244747
H29   H     H_    0.576166 0.413840 0.063694 0.134238
H30   H     H_    0.319240 0.426071 0.819281 0.130448
C49   C     C_R   0.535700 0.413976 0.932888 0.059166
C50   C     C_R   0.366819 0.434260 0.952825 0.071067
C51   C     C_R   0.461814 0.413757 0.861203 0.025512
C52   C     C_R   0.438047 0.426585 0.020950 0.017496
C53   C     C_R   0.618884 0.953581 0.951972 -0.113261
C54   C     C_R   0.382834 0.087083 0.197438 -0.133707
C55   C     C_R   0.966294 0.494317 0.353344 0.134519
C56   C     C_R   0.029003 0.593442 0.673123 0.132073
C57   C     C_R   0.077826 0.689867 0.593084 -0.231467
C58   C     C_R   0.918877 0.400661 0.435144 -0.231220
C59   C     C_R   0.081151 0.689666 0.674367 -0.179501
C60   C     C_R   0.916988 0.399142 0.354671 -0.188521
C61   C     C_R   0.976514 0.498161 0.594059 -0.299085
C62   C     C_R   0.019139 0.591392 0.431167 -0.293607
C63   C     C_R   0.972199 0.497297 0.513837 0.197289
C64   C     C_R   0.022950 0.593781 0.512629 0.190728
H31   H     H_    0.058606 0.663803 0.428188 0.132967
H32   H     H_    0.938684 0.423981 0.595238 0.129833
H33   H     H_    0.880915 0.323812 0.294613 0.116343
H34   H     H_    0.122150 0.763291 0.736991 0.128029
H35   H     H_    0.117395 0.764022 0.592888 0.131490
H36   H     H_    0.881112 0.326708 0.436370 0.126917
C65   C     C_R   0.717247 0.101347 0.641152 0.133086
C66   C     C_R   0.443982 0.858090 0.324849 0.132154
C67   C     C_R   0.592005 0.032521 0.398406 -0.233998
C68   C     C_R   0.609950 0.911823 0.554632 -0.231093
C69   C     C_R   0.499947 0.951658 0.322800 -0.177437
C70   C     C_R   0.678592 0.001243 0.637683 -0.172531
C71   C     C_R   0.488275 0.841218 0.398492 -0.301209
C72   C     C_R   0.700521 0.108967 0.559771 -0.290816
C73   C     C_R   0.577437 0.922903 0.475538 0.196996
C74   C     C_R   0.626753 0.021015 0.477086 0.194057
H37   H     H_    0.549584 0.896534 0.888742 0.105220
H38   H     H_    0.446894 0.126622 0.264828 0.110543
H39   H     H_    0.734628 0.184627 0.560639 0.115689
H40   H     H_    0.448650 0.769047 0.401081 0.111673
H41   H     H_    0.693990 0.992026 0.698918 0.115784
H42   H     H_    0.469926 0.965541 0.265661 0.121292
H43   H     H_    0.630333 0.106939 0.398137 0.122100
H44   H     H_    0.574445 0.836147 0.553743 0.124199
H45   H     H_    0.537967 0.026413 0.012023 0.093276
H46   H     H_    0.475017 0.052004 0.128583 0.101767
C75   C     C_R   0.701600 0.100093 0.103539 -0.123867
C76   C     C_R   0.316419 0.995415 0.033276 -0.125572
H47   H     H_    0.695653 0.155014 0.158043 0.097845
H48   H     H_    0.329077 0.963672 0.973705 0.107297
C77   C     C_R   0.798174 0.101782 0.115352 -0.144871
C78   C     C_R   0.217818 0.986809 0.022992 -0.141958
H49   H     H_    0.866922 0.159039 0.178987 0.107710
H50   H     H_    0.154675 0.948697 0.955239 0.115404
C79   C     C_R   0.805338 0.028440 0.045569 0.119228
C80   C     C_R   0.200741 0.026317 0.100290 0.103780
N17   N     N_3   0.208688 0.695947 0.867380 -0.227059
H51   H     H_    0.253752 0.671278 0.838096 0.088626
H52   H     H_    0.244211 0.718952 0.937039 0.104903
N18   N     N_3   0.781784 0.390423 0.163862 -0.225196
H53   H     H_    0.764405 0.330418 0.182802 0.089492
H54   H     H_    0.766002 0.447727 0.202011 0.110963

loop_
_geom_bond_atom_site_label_1
_geom_bond_atom_site_label_2
_geom_bond_distance
_ccdc_geom_bond_type
N6    Ni4   1.883364 S    
C14   N14   1.324777 A    
C55   C60   1.395581 A    
N5    Ni3   1.883365 S    
C39   C52   1.484002 S    
N5    N9    1.391857 A    
C76   C78   1.398958 A    
C7    N7    1.339051 A    
C71   H40   1.079481 S    
H19   C45   1.082299 S    
C38   C40   1.407968 A    
C17   C28   1.465914 S    
C9    C21   1.390830 A    
C29   C80   1.479817 S    
N12   Ni2   1.881158 S    
C3    N3    1.323153 A    
N8    N12   1.391858 A    
C1    N1    1.326095 A    
C12   N12   1.336876 A    
C68   H44   1.084039 S    
C7    H7    1.077661 S    
C40   C42   1.406500 A    
C32   C80   1.404852 A    
C75   H47   1.081256 S    
C47   C49   1.393970 A    
C67   C69   1.391605 A    
C48   C50   1.402192 A    
C16   N16   1.314728 A    
C12   C24   1.379057 A    
C66   C71   1.403103 A    
C27   C29   1.421247 A    
C58   H36   1.084519 S    
C28   C30   1.414952 A    
C34   C76   1.398736 A    
C36   C46   1.396941 A    
C5    C21   1.393423 A    
C22   C66   1.468831 S    
C6    C22   1.388261 A    
C8    N8    1.318615 A    
C26   H16   1.080985 S    
C48   H30   1.084205 S    
C59   H34   1.083217 S    
C20   C55   1.412202 S    
N17   H51   1.044534 S    
C11   H11   1.077276 S    
C61   H32   1.087273 S    
N6    N10   1.391857 A    
C6    H6    1.080647 S    
C43   H27   1.082280 S    
C15   H13   1.076269 S    
N18   H54   1.045298 S    
N10   Ni1   1.837784 S    
C47   C52   1.364312 A    
N1    Ni1   1.837865 S    
C33   C75   1.397814 A    
C7    C23   1.391568 A    
N2    Ni2   1.837864 S    
H18   C32   1.083154 S    
C78   C80   1.405557 A    
C48   C51   1.396056 A    
C43   C45   1.397824 A    
C40   C51   1.486166 S    
C57   C59   1.389658 A    
N7    Ni4   1.872104 S    
C2    N2    1.341588 A    
C16   H14   1.070407 S    
C13   N17   1.430235 S    
C60   H33   1.081926 S    
C57   H35   1.083660 S    
C77   H49   1.082817 S    
N8    Ni3   1.872104 S    
C44   C46   1.397523 A    
C78   H50   1.083136 S    
C56   C61   1.385426 A    
C41   H25   1.083389 S    
C23   C50   1.441477 S    
C9    N9    1.332054 A    
N4    Ni1   1.881616 S    
N14   Ni3   1.884303 S    
N15   Ni3   1.871681 S    
C32   C54   1.396871 A    
C3    C19   1.369136 A    
C65   C72   1.404309 A    
C38   H24   1.083119 S    
C42   C44   1.398591 A    
C37   H23   1.083203 S    
C41   C43   1.397884 A    
C1    C17   1.383847 A    
C33   H45   1.081375 S    
C34   C54   1.397044 A    
C2    C18   1.405509 A    
N1    N15   1.378914 A    
C1    H1    1.080758 S    
C12   H12   1.080690 S    
C58   C63   1.392753 A    
N4    N14   1.378916 A    
C2    H2    1.080567 S    
C71   C73   1.385867 A    
C57   C64   1.401950 A    
C10   C22   1.383351 A    
N9    Ni2   1.837783 S    
C13   C19   1.367757 A    
C44   H28   1.082372 S    
N11   Ni1   1.881157 S    
C4    N4    1.328083 A    
C25   C30   1.394912 A    
C50   C52   1.415353 A    
C15   C17   1.380870 A    
C26   C29   1.375000 A    
C61   C63   1.362238 A    
C16   C18   1.374291 A    
C11   C23   1.370932 A    
N3    N13   1.378914 A    
C35   H21   1.080262 S    
N18   H53   1.040706 S    
C62   C64   1.377924 A    
C69   H42   1.079718 S    
C8    C24   1.366728 A    
C39   C41   1.406089 A    
C55   C62   1.389744 A    
C8    H8    1.080433 S    
C70   H41   1.080663 S    
C10   N10   1.328540 A    
N7    N11   1.391855 A    
C25   H15   1.083664 S    
C67   C74   1.399670 A    
C21   C65   1.466978 S    
C26   C28   1.395117 A    
C24   C49   1.440474 S    
C14   N18   1.426916 S    
C4    C20   1.379125 A    
C76   H48   1.082367 S    
N3    Ni2   1.881614 S    
C35   C45   1.397989 A    
C68   C70   1.388240 A    
C63   C64   1.415904 A    
C3    H3    1.082230 S    
C33   C53   1.396505 A    
C15   N15   1.335545 A    
N2    N16   1.378915 A    
C49   C51   1.408525 A    
C6    N6    1.341892 A    
C36   C38   1.397877 A    
C36   H22   1.082697 S    
C72   C74   1.389255 A    
C47   H29   1.085218 S    
C19   C56   1.417625 S    
C14   C20   1.374973 A    
C75   C77   1.399101 A    
C9    H9    1.077625 S    
C67   H43   1.083982 S    
C10   H10   1.078751 S    
C5    N5    1.338569 A    
C30   C79   1.478796 S    
C66   C69   1.405066 A    
C5    H5    1.077609 S    
C73   C74   1.409948 A    
C65   C70   1.404639 A    
C13   N13   1.337564 A    
C72   H39   1.081267 S    
H17   C31   1.083231 S    
C37   C39   1.404685 A    
C18   C27   1.463345 S    
C53   H37   1.082391 S    
C25   C27   1.400313 A    
C11   N11   1.316304 A    
N13   Ni4   1.884305 S    
C58   C60   1.372666 A    
C68   C73   1.398280 A    
C42   H26   1.083037 S    
N17   H52   1.045319 S    
C31   C79   1.406345 A    
N16   Ni4   1.871682 S    
C34   H46   1.081398 S    
C4    H4    1.081367 S    
C54   H38   1.082422 S    
H20   C46   1.082380 S    
C31   C53   1.397325 A    
C35   C37   1.397685 A    
C62   H31   1.085534 S    
C77   C79   1.404382 A    
C56   C59   1.396065 A    
