data_mof_unit_36156.cif
_audit_creation_date              2012-10-26T17:12:32-0400
_audit_creation_method            fapswitch 2.2
_symmetry_space_group_name_H-M    P1
_symmetry_Int_Tables_number       1
_space_group_crystal_system       triclinic
_cell_length_a                    16.751202
_cell_length_b                    16.77874
_cell_length_c                    16.712609
_cell_angle_alpha                 67.746491
_cell_angle_beta                  67.815588
_cell_angle_gamma                 68.200069
_cell_volume                      3880.05738139

loop_
_atom_site_label
_atom_site_type_symbol
_atom_type_description
_atom_site_fract_x
_atom_site_fract_y
_atom_site_fract_z
_atom_type_partial_charge
C1    C     C_R   0.018222 0.830168 0.568753 0.809734
C2    C     C_R   0.968594 0.172140 0.436400 0.776636
C3    C     C_R   0.828595 0.565362 0.024911 0.790824
C4    C     C_R   0.171973 0.435775 0.971751 0.790180
C5    C     C_R   0.563429 0.031999 0.827470 0.795122
C6    C     C_R   0.436244 0.969813 0.172046 0.781484
C7    C     C_R   0.431217 0.169633 0.982897 0.794022
C8    C     C_R   0.565641 0.828745 0.024579 0.795733
C9    C     C_R   0.968148 0.436519 0.172475 0.796622
C10   C     C_R   0.030453 0.563699 0.827996 0.781946
C11   C     C_R   0.169818 0.981907 0.431258 0.810174
C12   C     C_R   0.827841 0.031689 0.563467 0.775913
C13   C     C_R   0.449890 0.072392 0.704565 -0.263622
C14   C     C_R   0.543128 0.945318 0.295493 -0.244686
C15   C     C_R   0.930367 0.740163 0.515938 -0.259304
C16   C     C_R   0.933469 0.290432 0.550290 -0.258962
C17   C     C_R   0.702340 0.449697 0.081357 -0.276574
C18   C     C_R   0.293058 0.540741 0.957723 -0.248867
C19   C     C_R   0.258948 0.071199 0.483301 -0.260361
C20   C     C_R   0.708908 0.070057 0.449035 -0.264772
C21   C     C_R   0.483357 0.255573 0.076320 -0.265427
C22   C     C_R   0.449824 0.705093 0.080379 -0.268382
C23   C     C_R   0.929032 0.549573 0.295015 -0.260179
C24   C     C_R   0.058057 0.456718 0.703647 -0.250676
C25   C     C_R   0.536097 0.051514 0.532019 -0.121616
C26   C     C_R   0.445371 0.023059 0.437480 -0.115870
C27   C     C_R   0.980324 0.553905 0.561249 -0.118712
C28   C     C_R   0.951883 0.463030 0.466911 -0.120675
C29   C     C_R   0.529442 0.532286 0.063592 -0.122466
C30   C     C_R   0.434487 0.441541 0.035627 -0.119561
C31   C     C_R   0.581192 0.037448 0.445991 -0.036391
C32   C     C_R   0.395975 0.057701 0.512486 -0.040589
C33   C     C_R   0.994249 0.460198 0.592965 -0.042447
C34   C     C_R   0.942826 0.556182 0.432167 -0.039960
C35   C     C_R   0.442552 0.576091 0.053267 -0.033217
C36   C     C_R   0.509774 0.391900 0.069834 -0.041146
C37   C     C_R   0.539054 0.010056 0.405509 -0.031088
C38   C     C_R   0.442909 0.060182 0.566786 -0.037716
C39   C     C_R   0.401345 0.534560 0.025897 -0.034267
C40   C     C_R   0.563718 0.439121 0.073545 -0.038625
C41   C     C_R   0.966938 0.417842 0.552616 -0.031796
C42   C     C_R   0.945280 0.603115 0.486361 -0.041092
C43   C     C_R   0.401486 0.068387 0.655074 0.677144
C44   C     C_R   0.587562 0.965369 0.337935 0.707558
C45   C     C_R   0.911120 0.696553 0.471933 0.697360
C46   C     C_R   0.948144 0.334473 0.596803 0.696435
C47   C     C_R   0.651537 0.398983 0.082955 0.674486
C48   C     C_R   0.333593 0.583874 0.981704 0.675074
C49   C     C_R   0.302360 0.091050 0.527112 0.698486
C50   C     C_R   0.664486 0.056604 0.401973 0.722964
C51   C     C_R   0.525692 0.297918 0.099650 0.693164
C52   C     C_R   0.400104 0.658655 0.073384 0.694317
C53   C     C_R   0.933904 0.597711 0.344106 0.679298
C54   C     C_R   0.039153 0.412036 0.660589 0.697632
C55   C     C_R   0.543387 0.060391 0.672826 -0.036942
C56   C     C_R   0.449234 0.968397 0.318729 -0.047798
C57   C     C_R   0.983518 0.692601 0.576207 -0.056438
C58   C     C_R   0.944259 0.323793 0.456627 -0.042989
C59   C     C_R   0.672960 0.543933 0.060568 -0.042464
C60   C     C_R   0.317005 0.447077 0.977577 -0.039145
C61   C     C_R   0.306907 0.018101 0.423178 -0.056162
C62   C     C_R   0.675702 0.058057 0.542836 -0.046787
C63   C     C_R   0.422662 0.304714 0.023764 -0.052758
C64   C     C_R   0.544073 0.674567 0.059262 -0.049168
C65   C     C_R   0.941033 0.456183 0.326791 -0.038393
C66   C     C_R   0.033970 0.550509 0.680628 -0.041043
C67   C     C_R   0.595588 0.055738 0.726286 -0.107645
C68   C     C_R   0.402294 0.955931 0.271123 -0.097187
C69   C     C_R   0.018896 0.734880 0.609953 -0.094669
C70   C     C_R   0.945857 0.272414 0.404412 -0.098836
C71   C     C_R   0.730417 0.600536 0.035108 -0.091312
C72   C     C_R   0.270506 0.401330 0.961391 -0.101931
C73   C     C_R   0.265011 0.981800 0.389951 -0.093479
C74   C     C_R   0.727469 0.055040 0.595403 -0.097611
C75   C     C_R   0.389920 0.264370 0.985016 -0.087048
C76   C     C_R   0.600984 0.730816 0.034924 -0.091186
C77   C     C_R   0.944744 0.404311 0.273617 -0.104747
C78   C     C_R   0.045166 0.597631 0.728783 -0.101550
C79   C     C_R   0.683059 0.066945 0.682492 0.067185
C80   C     C_R   0.315704 0.945618 0.316047 0.068176
C81   C     C_R   0.054893 0.684387 0.684138 0.068485
C82   C     C_R   0.933229 0.317078 0.317563 0.065688
C83   C     C_R   0.694456 0.694203 0.009243 0.075935
C84   C     C_R   0.315975 0.315837 0.949084 0.070379
C85   C     C_R   0.585108 0.056650 0.582877 0.059441
C86   C     C_R   0.400617 0.002378 0.393643 0.057101
C87   C     C_R   0.000173 0.598889 0.605446 0.057768
C88   C     C_R   0.945821 0.414252 0.416442 0.058664
C89   C     C_R   0.582464 0.583549 0.060920 0.061529
C90   C     C_R   0.391760 0.397851 0.011701 0.056714
Cu1   Cu    Cu3+1 0.995180 0.995180 0.424630 1.013392
Cu2   Cu    Cu3+1 0.004820 0.004820 0.575370 1.005535
Cu3   Cu    Cu3+1 0.995180 0.424630 0.995180 1.012329
Cu4   Cu    Cu3+1 0.004820 0.575370 0.004820 1.009619
Cu5   Cu    Cu3+1 0.424630 0.995180 0.995180 1.011682
Cu6   Cu    Cu3+1 0.575370 0.004820 0.004820 1.009667
H1    H     H_    0.410306 0.088828 0.766734 0.204054
H2    H     H_    0.583426 0.907011 0.247571 0.196222
H3    H     H_    0.899744 0.811149 0.504619 0.199647
H4    H     H_    0.908722 0.232584 0.590734 0.194370
H5    H     H_    0.765563 0.411948 0.095340 0.202200
H6    H     H_    0.246465 0.582503 0.918252 0.191334
H7    H     H_    0.187767 0.101157 0.494786 0.200214
H8    H     H_    0.767090 0.094506 0.409132 0.195574
H9    H     H_    0.496279 0.183928 0.103583 0.199968
H10   H     H_    0.412513 0.764550 0.102232 0.194048
H11   H     H_    0.911774 0.589323 0.233205 0.206806
H12   H     H_    0.096100 0.416823 0.752025 0.189463
O1    O     O_R   0.124540 0.978640 0.385460 -0.572738
O2    O     O_R   0.875460 0.021360 0.614540 -0.579631
O3    O     O_R   0.978640 0.385460 0.124540 -0.573488
O4    O     O_R   0.021360 0.614540 0.875460 -0.575903
O5    O     O_R   0.385460 0.124540 0.978640 -0.578813
O6    O     O_R   0.614540 0.875460 0.021360 -0.572237
O7    O     O_R   0.614540 0.021360 0.875460 -0.574554
O8    O     O_R   0.385460 0.978640 0.124540 -0.573235
O9    O     O_R   0.875460 0.614540 0.021360 -0.573263
O10   O     O_R   0.124540 0.385460 0.978640 -0.568279
O11   O     O_R   0.021360 0.875460 0.614540 -0.574570
O12   O     O_R   0.978640 0.124540 0.385460 -0.577782
O13   O     O_R   0.013780 0.867370 0.487190 -0.576783
O14   O     O_R   0.986220 0.132630 0.512810 -0.593132
O15   O     O_R   0.867370 0.487190 0.013780 -0.587397
O16   O     O_R   0.132630 0.512810 0.986220 -0.582538
O17   O     O_R   0.487190 0.013780 0.867370 -0.580746
O18   O     O_R   0.512810 0.986220 0.132630 -0.588239
O19   O     O_R   0.512810 0.132630 0.986220 -0.583348
O20   O     O_R   0.487190 0.867370 0.013780 -0.582890
O21   O     O_R   0.986220 0.512810 0.132630 -0.579948
O22   O     O_R   0.013780 0.487190 0.867370 -0.579680
O23   O     O_R   0.132630 0.986220 0.512810 -0.578335
O24   O     O_R   0.867370 0.013780 0.487190 -0.591747
F1    F     F_    0.315970 0.064030 0.698906 -0.582066
F2    F     F_    0.677860 0.932479 0.318537 -0.567115
F3    F     F_    0.850849 0.745400 0.423690 -0.575044
F4    F     F_    0.932865 0.299997 0.687333 -0.599963
F5    F     F_    0.694590 0.312749 0.083325 -0.578263
F6    F     F_    0.312598 0.674438 0.952130 -0.603516
F7    F     F_    0.253078 0.151002 0.575436 -0.572479
F8    F     F_    0.698634 0.072944 0.311344 -0.558638
F9    F     F_    0.573486 0.246555 0.159961 -0.578365
F10   F     F_    0.309741 0.691345 0.093803 -0.599588
F11   F     F_    0.938269 0.683126 0.300118 -0.579143
F12   F     F_    0.073038 0.321954 0.679685 -0.565770
C91   C     C_3   0.723708 0.104338 0.722987 -0.712449
H13   H     H_    0.764902 0.148427 0.669583 0.213782
H14   H     H_    0.670880 0.148294 0.763838 0.224201
H15   H     H_    0.765248 0.049370 0.765156 0.257084
C92   C     C_3   0.281871 0.890415 0.288477 -0.716906
H16   H     H_    0.337594 0.847614 0.248190 0.210351
H17   H     H_    0.249403 0.843608 0.348859 0.222040
H18   H     H_    0.234136 0.934575 0.248110 0.261013
C93   C     C_3   0.109370 0.718605 0.712279 -0.724251
H19   H     H_    0.156247 0.751284 0.652162 0.222614
H20   H     H_    0.064608 0.766162 0.752513 0.259202
H21   H     H_    0.152178 0.663142 0.752874 0.211776
C94   C     C_3   0.894923 0.276941 0.277448 -0.701553
H22   H     H_    0.850904 0.329975 0.236620 0.215487
H23   H     H_    0.949484 0.235264 0.235302 0.259987
H24   H     H_    0.850672 0.236049 0.331090 0.215060
C95   C     C_3   0.754381 0.753878 0.941316 -0.721856
H25   H     H_    0.718221 0.810858 0.895481 0.214156
H26   H     H_    0.780108 0.779395 0.976458 0.258481
H27   H     H_    0.811209 0.717750 0.895456 0.215527
C96   C     C_3   0.289232 0.284041 0.891527 -0.723491
H28   H     H_    0.349552 0.252892 0.844364 0.214258
H29   H     H_    0.248747 0.235754 0.934603 0.263211
H30   H     H_    0.249869 0.340573 0.848242 0.212335

loop_
_geom_bond_atom_site_label_1
_geom_bond_atom_site_label_2
_ccdc_geom_bond_type
C25   C31   A    
C40   C47   A    
C54   F12   S    
C68   C80   A    
Cu3   Cu4   S    
C12   C74   S    
C11   O1    A    
C29   C40   A    
C23   C65   A    
C14   C56   A    
Cu5   Cu6   S    
C34   C42   A    
C4    C72   S    
C30   C90   A    
C4    O10   A    
C95   H27   S    
C12   O2    A    
C95   H25   S    
C10   C78   S    
C79   C91   S    
C27   C33   A    
C26   C32   A    
C96   H28   S    
C22   C52   A    
Cu2   O11   S    
Cu5   O5    S    
C92   H17   S    
C18   H6    S    
Cu4   O9    S    
C50   F8    S    
C75   C84   A    
C60   C72   A    
C24   C54   A    
C28   C41   A    
C8    C76   S    
C81   C93   S    
C4    O16   A    
C1    O11   A    
C43   F1    S    
C17   H5    S    
C20   C50   A    
C84   C96   S    
C3    O9    A    
C91   H14   S    
C19   H7    S    
Cu5   O20   S    
C8    O20   A    
C94   H22   S    
C59   C89   A    
C30   C36   A    
C28   C88   A    
C41   C46   A    
Cu6   O7    S    
C14   H2    S    
C24   H12   S    
C32   C38   A    
C93   H20   S    
Cu1   Cu2   S    
C5    C67   S    
C13   C43   A    
C51   F9    S    
C83   C95   S    
C28   C34   A    
C96   H29   S    
C5    O7    A    
C20   C62   A    
C15   C57   A    
Cu6   O6    S    
C64   C89   A    
C76   C83   A    
C29   C89   A    
C95   H26   S    
C3    O15   A    
C23   C53   A    
C71   C83   A    
C2    O14   A    
C44   F2    S    
C80   C92   S    
C66   C78   A    
C62   C85   A    
C45   F3    S    
Cu4   O21   S    
C65   C77   A    
C17   C47   A    
C36   C40   A    
Cu2   O23   S    
C67   C79   A    
C60   C90   A    
C6    O18   A    
C11   C73   S    
C92   H18   S    
C16   C46   A    
C66   C87   A    
C82   C94   S    
C2    O12   A    
C58   C70   A    
C7    C75   S    
Cu1   O24   S    
C61   C73   A    
C56   C68   A    
C22   C64   A    
C52   F10   S    
C31   C37   A    
Cu6   O19   S    
C18   C48   A    
C53   F11   S    
C42   C45   A    
C55   C85   A    
C35   C39   A    
C9    O3    A    
C10   O22   A    
C27   C42   A    
Cu2   O14   S    
C25   C38   A    
C19   C49   A    
C56   C86   A    
Cu5   O8    S    
C26   C86   A    
C23   H11   S    
C6    C68   S    
C47   F5    S    
C25   C85   A    
C64   C76   A    
Cu6   O18   S    
C16   C58   A    
C93   H21   S    
C10   O4    A    
C6    O8    A    
C72   C84   A    
C36   C51   A    
Cu3   O3    S    
C18   C60   A    
Cu5   O17   S    
C17   C59   A    
C94   H24   S    
C9    O21   A    
C74   C79   A    
C49   F7    S    
C57   C69   A    
Cu3   O10   S    
C15   C45   A    
C31   C50   A    
Cu3   O22   S    
C91   H13   S    
C21   C51   A    
C91   H15   S    
C65   C88   A    
C14   C44   A    
C33   C54   A    
C12   O24   A    
C1    O13   A    
C16   H4    S    
Cu3   O15   S    
C15   H3    S    
C58   C88   A    
C55   C67   A    
C26   C37   A    
C3    C71   S    
C20   H8    S    
C8    O6    A    
C96   H30   S    
C29   C35   A    
C48   F6    S    
C33   C41   A    
Cu1   O1    S    
C37   C44   A    
C9    C77   S    
C11   O23   A    
C38   C43   A    
Cu2   O2    S    
C22   H10   S    
C92   H16   S    
C27   C87   A    
C78   C81   A    
C7    O5    A    
C63   C75   A    
C77   C82   A    
C19   C61   A    
C63   C90   A    
Cu4   O4    S    
C73   C80   A    
C30   C39   A    
C13   H1    S    
C70   C82   A    
C1    C69   S    
C32   C49   A    
C21   C63   A    
C69   C81   A    
C61   C86   A    
C46   F4    S    
C57   C87   A    
C24   C66   A    
C34   C53   A    
C94   H23   S    
Cu1   O13   S    
C5    O17   A    
C35   C52   A    
Cu1   O12   S    
C62   C74   A    
C7    O19   A    
C93   H19   S    
C2    C70   S    
C21   H9    S    
C59   C71   A    
C39   C48   A    
C13   C55   A    
Cu4   O16   S    
