data_mof_unit_8145.cif
_audit_creation_date              2012-12-10T17:00:01-0500
_audit_creation_method            fapswitch 2.2
_symmetry_space_group_name_H-M    P1
_symmetry_Int_Tables_number       1
_space_group_crystal_system       triclinic
_cell_length_a                    15.155546
_cell_length_b                    15.23899
_cell_length_c                    10.041118
_cell_angle_alpha                 89.858996
_cell_angle_beta                  89.677091
_cell_angle_gamma                 90.004505
_cell_volume                      2319.00469415

loop_
_atom_site_label
_atom_site_type_symbol
_atom_type_description
_atom_site_fract_x
_atom_site_fract_y
_atom_site_fract_z
_atom_type_partial_charge
C1    C     C_R   0.379706 0.883000 0.500154 0.914704
C2    C     C_2   0.721281 0.212282 0.387815 -0.166166
C3    C     C_2   0.213369 0.280187 0.387599 -0.170867
C4    C     C_2   0.211785 0.721640 0.387948 -0.172825
C5    C     C_2   0.690946 0.822041 0.499370 -0.322598
C6    C     C_2   0.677813 0.190884 0.499123 -0.317628
C7    C     C_2   0.190909 0.321998 0.499365 -0.321296
C8    C     C_2   0.190991 0.677885 0.498999 -0.322449
C9    C     C_2   0.283848 0.216688 0.387527 -0.150775
C10   C     C_2   0.282241 0.785159 0.387659 -0.151103
C11   C     C_2   0.784022 0.716854 0.387530 -0.151299
C12   C     C_R   0.379796 0.117064 0.499972 0.913332
C13   C     C_2   0.784492 0.282937 0.387672 -0.154302
C14   C     C_2   0.307771 0.176587 0.500069 -0.329049
C15   C     C_2   0.307498 0.823611 0.500592 -0.329344
C16   C     C_2   0.807822 0.676640 0.500047 -0.330319
C17   C     C_2   0.823312 0.307958 0.500472 -0.330864
C18   C     C_2   0.572108 0.005839 0.924083 0.610033
C19   C     C_2   0.072105 0.505949 0.924051 0.610939
C20   C     C_2   0.566612 0.025457 0.073517 -0.228207
C21   C     C_2   0.066592 0.525525 0.073517 -0.230643
C22   C     C_3   0.721655 0.970806 0.941164 0.033100
C23   C     C_R   0.882817 0.379915 0.500134 0.915116
C24   C     C_3   0.798421 0.938946 0.855943 -0.782853
C25   C     C_3   0.221806 0.471467 0.940995 0.032563
C26   C     C_3   0.298594 0.439775 0.855678 -0.785475
C27   C     C_3   0.355552 0.984026 0.875870 0.200678
C28   C     C_3   0.281312 0.001824 0.974926 -0.924195
C29   C     C_3   0.855566 0.483943 0.875906 0.202736
C30   C     C_3   0.781344 0.501683 0.975009 -0.925690
C31   C     C_R   0.879808 0.617071 0.499969 0.919128
C32   C     C_R   0.617434 0.119790 0.499652 0.933264
C33   C     C_R   0.619876 0.882611 0.499782 0.937014
C34   C     C_R   0.119875 0.617380 0.499636 0.934205
C35   C     C_R   0.119868 0.382598 0.499783 0.931376
C36   C     C_2   0.713543 0.780354 0.387561 -0.171540
H1    H     H_    0.681025 0.793593 0.293429 0.169766
H2    H     H_    0.313071 0.800502 0.292431 0.168602
H3    H     H_    0.816093 0.702965 0.292824 0.182533
H4    H     H_    0.799408 0.314027 0.292651 0.169794
H5    H     H_    0.273438 0.185087 0.594135 0.149548
H6    H     H_    0.274074 0.813820 0.595196 0.142927
H7    H     H_    0.773416 0.685075 0.594066 0.149564
H8    H     H_    0.813910 0.274435 0.594822 0.147079
H9    H     H_    0.620948 0.059074 0.121017 0.138939
H10   H     H_    0.120876 0.559215 0.121027 0.141384
H11   H     H_    0.457789 0.956826 0.105203 0.193409
H12   H     H_    0.709737 0.178590 0.294232 0.165276
H13   H     H_    0.957855 0.456768 0.105197 0.193817
H14   H     H_    0.700755 0.915495 0.007096 0.132060
H15   H     H_    0.745475 0.026765 0.002020 0.142787
H16   H     H_    0.820525 0.991918 0.787267 0.255644
H17   H     H_    0.854366 0.919754 0.920754 0.206168
H18   H     H_    0.777917 0.881093 0.796798 0.245819
H19   H     H_    0.201172 0.416163 0.007156 0.133112
H20   H     H_    0.245481 0.527611 0.001617 0.144711
H21   H     H_    0.320371 0.492724 0.786690 0.254255
H22   H     H_    0.354715 0.420948 0.920419 0.207090
H23   H     H_    0.180747 0.293337 0.293521 0.170217
H24   H     H_    0.278253 0.381713 0.796827 0.246192
H25   H     H_    0.371477 0.912606 0.880046 0.113555
H26   H     H_    0.330643 0.001468 0.775945 0.191314
H27   H     H_    0.263367 0.072490 0.972890 0.268188
H28   H     H_    0.222394 0.962399 0.948263 0.215633
H29   H     H_    0.301969 0.983683 0.077259 0.258127
H30   H     H_    0.871539 0.412536 0.880060 0.113212
H31   H     H_    0.830627 0.501387 0.775999 0.192761
H32   H     H_    0.763340 0.572329 0.972988 0.268267
H33   H     H_    0.722454 0.462212 0.948388 0.216124
H34   H     H_    0.177730 0.710119 0.294631 0.171368
H35   H     H_    0.802043 0.483560 0.077323 0.257019
H36   H     H_    0.725659 0.813911 0.592506 0.149009
H37   H     H_    0.684224 0.226610 0.591769 0.150942
H38   H     H_    0.225712 0.313949 0.592447 0.148830
H39   H     H_    0.227119 0.684313 0.591321 0.156691
H40   H     H_    0.315829 0.202724 0.292778 0.183091
N1    N     N_2   0.501330 0.000000 0.852150 0.020441
N2    N     N_2   0.001330 0.500000 0.852150 0.020393
N3    N     N_2   0.501360 0.000000 0.147810 -0.181202
N4    N     N_2   0.001360 0.500000 0.147810 -0.181421
O1    O     O_R   0.409520 0.909540 0.613040 -0.666140
O2    O     O_R   0.590440 0.909540 0.613100 -0.587560
O3    O     O_R   0.090440 0.590460 0.613100 -0.575242
O4    O     O_R   0.090440 0.409540 0.613100 -0.590202
O5    O     O_R   0.590480 0.090460 0.386960 -0.622233
O6    O     O_R   0.590480 0.909540 0.386960 -0.625712
O7    O     O_R   0.090480 0.590460 0.386960 -0.622863
O8    O     O_R   0.090480 0.409540 0.386960 -0.625561
O9    O     O_3   0.652600 0.998564 0.857104 -0.603450
O10   O     O_3   0.152575 0.498858 0.856977 -0.605367
O11   O     O_3   0.428871 0.036435 0.908295 -0.571883
O12   O     O_R   0.409520 0.090460 0.613040 -0.616918
O13   O     O_3   0.928855 0.536395 0.908300 -0.572297
O14   O     O_R   0.909520 0.409540 0.613040 -0.667176
O15   O     O_R   0.909520 0.590460 0.613040 -0.614278
O16   O     O_R   0.409560 0.909540 0.386900 -0.621597
O17   O     O_R   0.409560 0.090460 0.386900 -0.602679
O18   O     O_R   0.909560 0.409540 0.386900 -0.621418
O19   O     O_R   0.909560 0.590460 0.386900 -0.602752
O20   O     O_R   0.590440 0.090460 0.613100 -0.575591
Zn1   Zn    Zn3+2 0.499970 0.000000 0.650990 1.006417
Zn2   Zn    Zn3+2 0.999970 0.500000 0.650990 1.006139
Zn3   Zn    Zn3+2 0.500030 0.000000 0.349010 0.938514
Zn4   Zn    Zn3+2 0.000030 0.500000 0.349010 0.938114

loop_
_geom_bond_atom_site_label_1
_geom_bond_atom_site_label_2
_ccdc_geom_bond_type
C24   H16   S    
C6    C32   S    
O3    Zn2   S    
N2    Zn2   S    
O4    Zn2   S    
N1    Zn1   S    
C25   H20   S    
H11   N3    S    
C4    C8    D    
C4    H34   S    
C30   H35   S    
O1    Zn1   S    
C16   C31   S    
C25   O10   S    
C17   C23   S    
N4    Zn4   S    
C11   C36   S    
C19   C21   S    
C5    H36   S    
C3    C7    D    
C10   C15   D    
C1    O16   A    
O18   Zn4   S    
N2    O13   S    
C24   H18   S    
C5    C36   D    
C11   C16   D    
C2    C13   S    
C13   H4    S    
C27   H25   S    
C29   H31   S    
O2    Zn1   S    
C5    C33   S    
C27   O11   S    
C1    C15   S    
C9    H40   S    
C31   O19   A    
O7    Zn4   S    
C33   O2    A    
C20   H9    S    
O5    Zn3   S    
O15   Zn2   S    
C22   H14   S    
O19   Zn4   S    
N3    Zn3   S    
C2    C6    D    
O6    Zn3   S    
O8    Zn4   S    
C7    H38   S    
C2    H12   S    
C24   H17   S    
C8    H39   S    
C32   O20   A    
C19   N2    D    
C9    C14   D    
C29   C30   S    
C3    C9    S    
C27   H26   S    
C35   O8    A    
C8    C34   S    
C11   H3    S    
C26   H22   S    
C16   H7    S    
C12   O17   A    
O17   Zn3   S    
O12   Zn1   S    
C14   H5    S    
C28   H28   S    
C12   C14   S    
C22   C24   S    
C34   O3    A    
C4    C10   S    
C30   H33   S    
C6    H37   S    
C21   H10   S    
N1    O11   S    
C20   N3    D    
C18   O9    S    
C7    C35   S    
C12   O12   A    
C25   H19   S    
C15   H6    S    
C35   O4    A    
C23   O14   A    
H13   N4    S    
C13   C17   D    
C10   H2    S    
C28   H29   S    
C25   C26   S    
C17   H8    S    
C19   O10   S    
C29   O13   S    
C26   H24   S    
C18   N1    D    
C31   O15   A    
C32   O5    A    
C21   N4    D    
O20   Zn1   S    
C22   O9    S    
C18   C20   S    
C34   O7    A    
C26   H21   S    
C29   H30   S    
C28   H27   S    
C23   O18   A    
O14   Zn2   S    
C36   H1    S    
O16   Zn3   S    
C27   C28   S    
C1    O1    A    
C33   O6    A    
C30   H32   S    
C22   H15   S    
C3    H23   S    
