data_mof_unit_26238.cif
_audit_creation_date              2012-12-10T18:36:24-0500
_audit_creation_method            fapswitch 2.2
_symmetry_space_group_name_H-M    P1
_symmetry_Int_Tables_number       1
_space_group_crystal_system       triclinic
_cell_length_a                    13.841334
_cell_length_b                    15.141575
_cell_length_c                    15.76741
_cell_angle_alpha                 89.905082
_cell_angle_beta                  70.923953
_cell_angle_gamma                 90.25758
_cell_volume                      3123.0127333

loop_
_atom_site_label
_atom_site_type_symbol
_atom_type_description
_atom_site_fract_x
_atom_site_fract_y
_atom_site_fract_z
_atom_type_partial_charge
C1    C     C_R   0.499878 0.669868 0.501010 0.846516
C2    C     C_R   0.499227 0.329557 0.500864 0.815845
C3    C     C_R   0.387627 0.482695 0.095543 -0.244353
C4    C     C_R   0.606806 0.576768 0.913651 -0.269157
C5    C     C_R   0.313797 0.474917 0.053920 0.408434
C6    C     C_R   0.668168 0.607671 0.962176 0.425697
C7    C     C_R   0.446961 0.903973 0.456915 -0.150894
C8    C     C_R   0.587402 0.094864 0.499076 -0.154780
C9    C     C_R   0.446679 0.812368 0.456778 -0.200827
C10   C     C_R   0.586907 0.186581 0.497548 -0.254126
C11   C     C_R   0.498804 0.765858 0.505046 -0.117619
C12   C     C_R   0.496984 0.232479 0.503561 -0.120251
C13   C     C_R   0.549166 0.811842 0.556507 0.465438
C14   C     C_R   0.405756 0.184781 0.513423 0.441640
C15   C     C_R   0.550423 0.903910 0.554948 -0.229514
C16   C     C_R   0.407755 0.092500 0.513447 -0.256220
C17   C     C_R   0.498768 0.950376 0.505964 0.048959
C18   C     C_R   0.498020 0.047300 0.506530 0.071048
C19   C     C_R   0.918464 0.542911 0.430904 0.313846
C20   C     C_R   0.082882 0.545469 0.567400 0.310549
C21   C     C_R   0.815744 0.542161 0.433038 0.057082
C22   C     C_R   0.185698 0.544935 0.564940 0.052098
C23   C     C_R   0.438146 0.497785 0.672602 0.834662
C24   C     C_R   0.561208 0.505950 0.328442 0.886657
C25   C     C_R   0.766303 0.457719 0.566512 0.057665
C26   C     C_R   0.232463 0.455207 0.435591 0.069745
C27   C     C_R   0.867644 0.457628 0.567729 -0.271898
C28   C     C_R   0.131072 0.455000 0.434610 -0.274560
C29   C     C_R   0.945775 0.500464 0.499534 0.084077
C30   C     C_R   0.054231 0.500382 0.500900 0.056815
C31   C     C_R   0.401277 0.496118 0.771748 -0.193274
C32   C     C_R   0.595454 0.531299 0.233676 -0.160352
C33   C     C_R   0.266346 0.487952 0.916447 0.460763
C34   C     C_R   0.692169 0.628182 0.110802 0.417065
C35   C     C_R   0.297647 0.482035 0.822595 0.249752
C36   C     C_R   0.661317 0.603822 0.202658 0.239537
C37   C     C_R   0.472011 0.512081 0.816346 -0.308253
C38   C     C_R   0.544809 0.495152 0.179220 -0.282279
C39   C     C_R   0.443193 0.511061 0.910464 -0.002502
C40   C     C_R   0.558497 0.530127 0.093806 0.011095
C41   C     C_R   0.340189 0.490103 0.960754 -0.113022
C42   C     C_R   0.642070 0.588255 0.054741 -0.073591
C43   C     C_R   0.513865 0.531686 0.956011 0.034265
C44   C     C_R   0.487666 0.511923 0.048408 0.045885
Cu1   Cu    Cu3+1 0.403570 0.500010 0.500000 0.986101
Cu2   Cu    Cu3+1 0.596430 0.499990 0.500000 0.987297
H1    H     H_    0.795599 0.575680 0.380725 0.196065
H2    H     H_    0.207250 0.580771 0.615342 0.180336
H3    H     H_    0.707630 0.423639 0.619170 0.138698
H4    H     H_    0.290188 0.419119 0.384563 0.154135
H5    H     H_    0.885110 0.423741 0.621465 0.171557
H6    H     H_    0.112579 0.419100 0.382534 0.199314
H7    H     H_    0.491593 0.441506 0.206003 0.162166
H8    H     H_    0.551017 0.521157 0.776196 0.180941
H9    H     H_    0.362267 0.472056 0.167244 0.178733
H10   H     H_    0.629662 0.595910 0.843938 0.177993
H11   H     H_    0.408083 0.938562 0.417393 0.155411
H12   H     H_    0.658283 0.061090 0.492503 0.154867
H13   H     H_    0.407588 0.777731 0.417281 0.182719
H14   H     H_    0.657551 0.221511 0.490626 0.180153
H15   H     H_    0.589849 0.938960 0.593877 0.151293
H16   H     H_    0.338475 0.056120 0.518784 0.140764
N1    N     N_R   0.741310 0.499980 0.500000 -0.201641
N2    N     N_R   0.258690 0.500020 0.500000 -0.211772
O1    O     O_R   0.418570 0.628550 0.499990 -0.600170
O2    O     O_R   0.581430 0.371450 0.500010 -0.598378
O3    O     O_R   0.581440 0.628540 0.499990 -0.516508
O4    O     O_R   0.418560 0.371460 0.500010 -0.535503
O5    O     O_R   0.372890 0.500010 0.629830 -0.543069
O6    O     O_R   0.627110 0.499990 0.370170 -0.559565
O7    O     O_R   0.535760 0.500000 0.629840 -0.610285
O8    O     O_R   0.464240 0.500000 0.370160 -0.592576
Cl1   Cl    Cl    0.191380 0.439475 0.122601 -0.533037
Cl2   Cl    Cl    0.779513 0.666427 0.900601 -0.526724
Cl3   Cl    Cl    0.009820 0.599511 0.342899 -0.594885
Cl4   Cl    Cl    0.993181 0.605230 0.652853 -0.534898
Cl5   Cl    Cl    0.688112 0.674172 0.281814 -0.661787
Cl6   Cl    Cl    0.203740 0.452836 0.773602 -0.627519
O9    O     O_3   0.163507 0.497636 0.964709 -0.521583
C45   C     C_3   0.131568 0.584180 0.951351 0.148881
H17   H     H_    0.046831 0.585224 0.978544 0.173937
H18   H     H_    0.151983 0.601468 0.878954 0.171654
C46   C     C_3   0.173066 0.655074 0.000490 -0.426019
H19   H     H_    0.138422 0.645280 0.074034 0.266808
H20   H     H_    0.257127 0.649924 0.983322 0.222101
C47   C     C_3   0.150531 0.747889 0.974180 -0.905621
H21   H     H_    0.191816 0.760140 0.901895 0.264575
H22   H     H_    0.176153 0.797493 0.014172 0.272930
H23   H     H_    0.067731 0.756310 0.986397 0.261288
O10   O     O_3   0.750251 0.704078 0.081201 -0.548947
C48   C     C_3   0.847743 0.698930 0.092176 0.159409
H24   H     H_    0.905395 0.688093 0.025227 0.151238
H25   H     H_    0.856563 0.642719 0.134850 0.153598
C49   C     C_3   0.870925 0.787463 0.129467 -0.321999
H26   H     H_    0.908631 0.833096 0.072930 0.200861
H27   H     H_    0.798538 0.819228 0.170547 0.280431
C50   C     C_3   0.938517 0.776742 0.188376 -0.783127
H28   H     H_    0.898194 0.737528 0.249322 0.312998
H29   H     H_    0.957124 0.842743 0.209633 0.253682
H30   H     H_    0.010628 0.743104 0.151346 0.260007
O11   O     O_3   0.602666 0.768399 0.604422 -0.582828
C51   C     C_3   0.534068 0.732727 0.684855 0.093194
H31   H     H_    0.574005 0.677750 0.706013 0.186291
H32   H     H_    0.463783 0.703566 0.676243 0.088992
C52   C     C_3   0.504768 0.801991 0.759600 -0.373726
H33   H     H_    0.575072 0.831759 0.767089 0.252464
H34   H     H_    0.459642 0.855167 0.741881 0.208460
C53   C     C_3   0.440747 0.760831 0.848771 -0.875452
H35   H     H_    0.373553 0.725685 0.841101 0.250065
H36   H     H_    0.413506 0.813242 0.900110 0.268528
H37   H     H_    0.487261 0.713341 0.872327 0.268064
O12   O     O_3   0.317142 0.228174 0.515396 -0.596892
C54   C     C_3   0.242388 0.217880 0.600857 0.056573
H38   H     H_    0.274750 0.231909 0.655707 0.152314
H39   H     H_    0.210538 0.149610 0.608764 0.142114
C55   C     C_3   0.155772 0.282994 0.609069 -0.300347
H40   H     H_    0.185838 0.351390 0.606268 0.261116
H41   H     H_    0.126244 0.273834 0.552002 0.217015
C56   C     C_3   0.068061 0.270426 0.696935 -0.822696
H42   H     H_    0.033834 0.203557 0.699641 0.242455
H43   H     H_    0.008121 0.320427 0.701553 0.263590
H44   H     H_    0.095777 0.278740 0.755083 0.295717

loop_
_geom_bond_atom_site_label_1
_geom_bond_atom_site_label_2
_ccdc_geom_bond_type
C22   H2    S    
O11   C51   S    
C27   C29   A    
C11   C13   A    
C23   O5    A    
C10   H14   S    
C1    C11   S    
C2    C12   S    
C34   O10   S    
C50   H28   S    
C24   O6    A    
C39   C41   A    
C20   C30   A    
Cu1   Cu2   S    
C53   H35   S    
C14   O12   S    
C52   H34   S    
C32   C36   A    
C19   C21   A    
Cu2   O2    S    
C2    O4    A    
C36   Cl5   S    
C26   H4    S    
C33   C35   A    
C47   H22   S    
C55   H40   S    
C20   Cl4   S    
C51   C52   S    
C7    C9    A    
C25   N1    A    
C26   N2    A    
C8    H12   S    
C3    H9    S    
C55   H41   S    
C7    C17   A    
C34   C42   A    
C1    O1    A    
C14   C16   A    
C32   C38   A    
C54   C55   S    
C40   C42   A    
C4    H10   S    
Cu1   O8    S    
C51   H31   S    
C16   H16   S    
C45   C46   S    
O12   C54   S    
C50   H29   S    
C27   H5    S    
C6    Cl2   S    
C56   H43   S    
C52   C53   S    
C3    C44   A    
C21   N1    A    
Cu1   O5    S    
C23   O7    A    
C4    C6    A    
C48   H24   S    
C47   H21   S    
C33   O9    S    
C39   C43   A    
C49   C50   S    
C3    C5    A    
C8    C18   A    
C31   C37   A    
C9    H13   S    
C23   C31   S    
C51   H32   S    
C43   C44   A    
C24   C32   S    
C29   C30   S    
C48   H25   S    
C46   H19   S    
Cu1   O4    S    
C17   C18   S    
C15   H15   S    
C16   C18   A    
C49   H27   S    
C9    C11   A    
Cu2   O7    S    
C10   C12   A    
C37   H8    S    
C45   H18   S    
C46   H20   S    
C12   C14   A    
C13   C15   A    
Cu1   O1    S    
C31   C35   A    
C13   O11   S    
C19   C29   A    
C50   H30   S    
C24   O8    A    
C54   H38   S    
C56   H44   S    
C15   C17   A    
C5    C41   A    
C35   Cl6   S    
C20   C22   A    
C45   H17   S    
C2    O2    A    
C47   H23   S    
C56   H42   S    
C53   H37   S    
C4    C43   A    
C25   C27   A    
C52   H33   S    
Cu1   N2    S    
C26   C28   A    
C55   C56   S    
Cu2   N1    S    
C33   C41   A    
C28   C30   A    
Cu2   O3    S    
C37   C39   A    
C48   C49   S    
C38   C40   A    
C28   H6    S    
O10   C48   S    
C38   H7    S    
C19   Cl3   S    
C1    O3    A    
C53   H36   S    
C34   C36   A    
C5    Cl1   S    
C49   H26   S    
C25   H3    S    
Cu2   O6    S    
C22   N2    A    
O9    C45   S    
C40   C44   A    
C46   C47   S    
C8    C10   A    
C6    C42   A    
C21   H1    S    
C7    H11   S    
C54   H39   S    
