data_mof_unit_59790.cif
_audit_creation_date              2012-12-10T16:42:58-0500
_audit_creation_method            fapswitch 2.2
_symmetry_space_group_name_H-M    P1
_symmetry_Int_Tables_number       1
_space_group_crystal_system       triclinic
_cell_length_a                    7.457261
_cell_length_b                    8.680311
_cell_length_c                    12.96811
_cell_angle_alpha                 88.069451
_cell_angle_beta                  78.695438
_cell_angle_gamma                 102.693501
_cell_volume                      800.449380422

loop_
_atom_site_label
_atom_site_type_symbol
_atom_type_description
_atom_site_fract_x
_atom_site_fract_y
_atom_site_fract_z
_atom_type_partial_charge
C1    C     C_R   0.452835 0.199686 0.503209 0.888525
C2    C     C_R   0.547165 0.800314 0.496791 0.888525
C3    C     C_R   0.464335 0.490609 0.701784 0.836092
C4    C     C_R   0.535665 0.509391 0.298216 0.836092
C5    C     C_R   0.558546 0.520284 0.183796 -0.116679
C6    C     C_R   0.441454 0.479716 0.816204 -0.116679
C7    C     C_R   0.254664 0.405421 0.993330 -0.163453
C8    C     C_R   0.745336 0.594579 0.006670 -0.163453
C9    C     C_R   0.266937 0.410476 0.884898 0.255062
C10   C     C_R   0.733063 0.589524 0.115102 0.255062
C11   C     C_R   0.599742 0.540046 0.857745 -0.236744
C12   C     C_R   0.400258 0.459954 0.142255 -0.236744
C13   C     C_R   0.586846 0.533642 0.965914 0.115502
C14   C     C_R   0.413154 0.466357 0.034086 0.115502
C15   C     C_2   0.426152 0.031916 0.504764 -0.345233
C16   C     C_2   0.573848 0.968084 0.495236 -0.345234
Cu1   Cu    Cu3+1 0.686350 0.517570 0.488220 1.000651
Cu2   Cu    Cu3+1 0.313650 0.482430 0.511780 1.000651
H1    H     H_    0.266376 0.406526 0.194166 0.183727
H2    H     H_    0.733624 0.593474 0.805834 0.183727
H3    H     H_    0.121279 0.352567 0.045802 0.183091
H4    H     H_    0.878721 0.647433 0.954198 0.183091
H5    H     H_    0.933514 0.376046 0.583241 0.246729
H6    H     H_    0.066486 0.623954 0.416759 0.246729
H7    H     H_    0.283677 0.960555 0.513751 0.183817
H8    H     H_    0.716323 0.039445 0.486249 0.183816
N1    N     N_2   0.033570 0.455950 0.529530 -0.209086
N2    N     N_2   0.966430 0.544050 0.470470 -0.209086
O1    O     O_R   0.621060 0.286250 0.492350 -0.588468
O2    O     O_R   0.378940 0.713750 0.507650 -0.588468
O3    O     O_R   0.306310 0.256580 0.512240 -0.576789
O4    O     O_R   0.693690 0.743420 0.487760 -0.576788
O5    O     O_R   0.631800 0.512400 0.642670 -0.597350
O6    O     O_R   0.368200 0.487600 0.357330 -0.597350
O7    O     O_R   0.317060 0.482730 0.662570 -0.540490
O8    O     O_R   0.682940 0.517270 0.337430 -0.540489
Br1   Br    Br    0.959039 0.686909 0.160901 -0.518905
Br2   Br    Br    0.040961 0.313091 0.839099 -0.518905

loop_
_geom_bond_atom_site_label_1
_geom_bond_atom_site_label_2
_ccdc_geom_bond_type
C8    H4    S    
C4    O8    A    
C8    C13   A    
C1    C15   S    
Cu1   O8    S    
H5    N1    S    
Cu1   O1    S    
Cu2   O7    S    
C3    O7    A    
C2    O2    A    
C3    C6    S    
C6    C9    A    
C1    O1    A    
Cu1   Cu2   S    
C5    C10   A    
C13   C14   A    
C11   C13   A    
C6    C11   A    
Cu1   O5    S    
C10   Br1   S    
Cu2   O2    S    
C12   H1    S    
C2    O4    A    
C9    Br2   S    
C12   C14   A    
Cu2   O6    S    
C16   H8    S    
C4    O6    A    
C11   H2    S    
C15   H7    S    
C3    O5    A    
C15   C16   D    
C1    O3    A    
C2    C16   S    
C5    C12   A    
C8    C10   A    
N1    N2    D    
C7    C9    A    
Cu1   O4    S    
Cu2   O3    S    
C7    H3    S    
Cu1   N2    S    
C7    C14   A    
Cu2   N1    S    
H6    N2    S    
C4    C5    S    
