data_mof_unit_58532.cif
_audit_creation_date              2013-03-05T16:43:02-0500
_audit_creation_method            fapswitch 2.2
_symmetry_space_group_name_H-M    P1
_symmetry_Int_Tables_number       1
_space_group_crystal_system       triclinic
_cell_length_a                    10.676635
_cell_length_b                    10.697822
_cell_length_c                    9.851909
_cell_angle_alpha                 89.824283
_cell_angle_beta                  90.535192
_cell_angle_gamma                 89.188868
_cell_volume                      1125.08533403

loop_
_atom_site_label
_atom_site_type_symbol
_atom_site_description
_atom_site_fract_x
_atom_site_fract_y
_atom_site_fract_z
_atom_type_partial_charge
O1    O     O_R   0.500020 0.316790 0.614690 -0.634455
O2    O     O_R   0.500000 0.316760 0.385350 -0.625926
C1    C     C_R   0.497948 0.259998 0.500434 0.883330
O3    O     O_R   0.314800 0.500000 0.614670 -0.640548
O4    O     O_R   0.314790 0.499960 0.385330 -0.578325
C2    C     C_R   0.257680 0.501484 0.499017 0.894001
Zn1   Zn    Zn3+2 0.500010 0.500020 0.653130 0.961400
Zn2   Zn    Zn3+2 0.499990 0.499980 0.346870 1.014289
O5    O     O_R   0.500000 0.683240 0.614650 -0.607432
O6    O     O_R   0.499980 0.683210 0.385310 -0.573381
O7    O     O_R   0.685210 0.500040 0.614670 -0.608959
O8    O     O_R   0.685200 0.500000 0.385330 -0.640071
C3    C     C_R   0.493035 0.740016 0.499478 0.918889
C4    C     C_R   0.742305 0.499863 0.500322 0.916415
C5    C     C_3   0.076193 0.381877 0.574763 0.258733
H1    H     H_    0.110445 0.385105 0.682230 0.057358
C6    C     C_3   0.931033 0.381557 0.578707 0.302865
H2    H     H_    0.901991 0.385771 0.687077 0.046539
H3    H     H_    0.103320 0.613506 0.681343 0.206950
C7    C     C_3   0.071882 0.617559 0.573308 -0.499437
C8    C     C_3   0.067962 0.497645 0.347715 0.176641
C9    C     C_3   0.121335 0.500587 0.497082 -0.158518
H4    H     H_    0.103531 0.410737 0.298119 0.156614
C10   C     C_3   0.878720 0.498299 0.500217 -0.127772
C11   C     C_3   0.927835 0.622358 0.564219 0.205786
C12   C     C_3   0.925553 0.490456 0.351120 -0.483940
H5    H     H_    0.895485 0.401384 0.303337 0.227613
H6    H     H_    0.882539 0.566942 0.288561 0.208669
H7    H     H_    0.111709 0.704852 0.531519 0.236706
H8    H     H_    0.900124 0.700961 0.495481 0.200216
C13   C     C_R   0.495132 0.062663 0.622758 0.125568
C14   C     C_R   0.480007 0.128985 0.502173 -0.165375
C15   C     C_R   0.437761 0.068592 0.385167 -0.245269
H9    H     H_    0.412674 0.121102 0.294889 0.194199
C16   C     C_R   0.432599 0.939151 0.382245 0.301055
C17   C     C_R   0.471139 0.871840 0.499955 -0.248322
C18   C     C_R   0.490914 0.935341 0.621456 0.116686
C19   C     C_3   0.595348 0.922213 0.723040 -0.392071
C20   C     C_3   0.600353 0.063652 0.724011 -0.466609
H10   H     H_    0.563222 0.881950 0.820685 0.235211
H11   H     H_    0.680716 0.877084 0.680207 0.227098
H12   H     H_    0.572181 0.104626 0.822739 0.214781
H13   H     H_    0.688513 0.100591 0.681552 0.208200
C21   C     C_R   0.400521 0.453959 0.070169 0.337123
N1    N     N_R   0.499150 0.499140 0.142800 -0.118781
C22   C     C_R   0.592799 0.555931 0.072787 -0.091808
H14   H     H_    0.668789 0.599201 0.127746 0.158356
C23   C     C_R   0.592914 0.555760 0.928702 -0.126417
H15   H     H_    0.668982 0.598838 0.874986 0.185857
N2    N     N_R   0.499150 0.499180 0.857150 -0.122880
C24   C     C_R   0.399739 0.455251 0.927634 0.238857
C25   C     C_3   0.349806 0.326178 0.920334 -0.507057
C26   C     C_3   0.353219 0.323654 0.074367 -0.501358
H16   H     H_    0.253208 0.324791 0.877492 0.210201
H17   H     H_    0.416413 0.258908 0.873386 0.221299
H18   H     H_    0.258873 0.318207 0.120512 0.224599
H19   H     H_    0.424294 0.256646 0.115523 0.215356
N3    N     N_R   0.393983 0.879369 0.258796 0.227413
O9    O     O_R   0.308478 0.794282 0.261883 -0.288789
O10   O     O_R   0.427574 0.924340 0.141961 -0.401305
O11   O     O_3   0.122563 0.272097 0.512978 -0.690379
H20   H     H_    0.206627 0.254100 0.552992 0.320317
O12   O     O_3   0.885142 0.270416 0.521479 -0.683586
H21   H     H_    0.799639 0.258300 0.557355 0.308737
O13   O     O_3   0.874955 0.649275 0.691577 -0.754292
H22   H     H_    0.904316 0.584723 0.757357 0.338084
N4    N     N_R   0.105358 0.605012 0.264388 0.243748
O14   O     O_R   0.061733 0.716861 0.288825 -0.366117
O15   O     O_R   0.162506 0.585055 0.150332 -0.376582

loop_
_geom_bond_atom_site_label_1
_geom_bond_atom_site_label_2
_geom_bond_distance
_ccdc_geom_bond_type
C3    C17   1.426238 S    
O4    Zn2   2.016766 S    
Zn1   O7    2.016764 S    
C8    C12   1.524159 S    
Zn1   O5    1.995236 S    
C18   C19   1.496132 S    
C12   H6    1.114109 S    
C13   C14   1.388809 A    
C25   H17   1.109609 S    
Zn2   O8    2.009917 S    
C14   C15   1.397414 A    
C23   N2    1.368229 A    
C6    H2    1.115405 S    
C5    O11   1.410109 S    
C11   O13   1.409555 S    
C24   C25   1.488870 S    
O1    Zn1   1.997549 S    
N1    C22   1.368245 A    
C6    O12   1.409621 S    
N4    O14   1.301807 A    
C19   H10   1.111936 S    
N4    O15   1.300422 A    
C10   C12   1.558200 S    
C12   H5    1.114102 S    
O11   H20   0.993001 S    
C5    C6    1.550728 S    
C25   C26   1.517768 S    
O3    Zn1   2.009919 S    
O4    C2    1.280282 A    
C21   C24   1.404216 A    
O3    C2    1.287258 A    
C23   H15   1.081271 S    
C15   C16   1.386986 A    
O8    C4    1.281493 A    
N2    C24   1.362142 A    
C20   H12   1.110415 S    
O2    C1    1.285035 A    
C7    H7    1.111093 S    
C16   N3    1.435627 S    
C8    H4    1.115170 S    
C1    C14   1.417345 S    
C26   H19   1.109577 S    
O7    C4    1.285893 A    
C22   C23   1.419531 A    
C6    C10   1.560726 S    
C7    C11   1.539823 S    
C7    C9    1.550188 S    
N3    O10   1.301608 A    
C5    H1    1.117695 S    
C2    C9    1.455825 S    
C13   C18   1.363545 A    
C15   H9    1.080075 S    
C10   C11   1.566078 S    
C19   H11   1.112591 S    
Zn2   O6    1.997549 S    
O13   H22   0.991187 S    
C22   H14   1.081504 S    
C26   H18   1.111205 S    
C4    C10   1.456318 S    
C11   H8    1.113075 S    
C13   C20   1.495558 S    
O5    C3    1.286399 A    
Zn2   N1    2.010464 S    
C17   C18   1.394001 A    
C20   H13   1.110841 S    
C16   C17   1.417825 A    
O2    Zn2   1.995236 S    
N3    O9    1.298750 A    
C8    C9    1.573627 S    
C21   C26   1.489934 S    
C5    C9    1.564915 S    
C8    N4    1.471708 S    
C21   N1    1.362697 A    
H3    C7    1.113559 S    
Zn1   N2    2.010086 S    
C25   H16   1.111019 S    
O12   H21   0.992056 S    
O1    C1    1.280930 A    
O6    C3    1.282332 A    
C19   C20   1.514842 S    
