data_mof_unit_27592.cif
_audit_creation_date              2012-10-26T18:29:47-0400
_audit_creation_method            fapswitch 2.2
_symmetry_space_group_name_H-M    P1
_symmetry_Int_Tables_number       1
_space_group_crystal_system       triclinic
_cell_length_a                    11.119016
_cell_length_b                    13.129125
_cell_length_c                    11.844943
_cell_angle_alpha                 100.641461
_cell_angle_beta                  94.240025
_cell_angle_gamma                 93.75307
_cell_volume                      1689.24077327

loop_
_atom_site_label
_atom_site_type_symbol
_atom_type_description
_atom_site_fract_x
_atom_site_fract_y
_atom_site_fract_z
_atom_type_partial_charge
Br1   Br    Br    0.186942 0.628654 0.746658 -0.194910
Br2   Br    Br    0.826346 0.308375 0.311534 -0.214447
Br3   Br    Br    0.876425 0.529599 0.258296 -0.314665
Br4   Br    Br    0.455183 0.073839 0.796719 -0.392298
Br5   Br    Br    0.644900 0.211953 0.685378 -0.358434
Br6   Br    Br    0.686310 0.699731 0.798564 -0.358811
Br7   Br    Br    0.778279 0.667364 0.051063 -0.173468
Br8   Br    Br    0.867855 0.464997 0.754036 -0.276395
Br9   Br    Br    0.144977 0.272840 0.418395 -0.395053
C1    C     C_R   0.504469 0.299145 0.477293 0.577743
C2    C     C_R   0.501554 0.031849 0.552134 0.045587
C3    C     C_R   0.472499 0.966185 0.443056 -0.057059
C4    C     C_R   0.260096 0.501587 0.500626 0.620134
C5    C     C_R   0.445917 0.858426 0.437777 0.025623
C6    C     C_R   0.487412 0.881639 0.645512 0.000661
C7    C     C_R   0.492751 0.989575 0.652730 0.163045
C8    C     C_R   0.386041 0.401777 0.019663 -0.069801
C9    C     C_R   0.393451 0.409807 0.139829 0.188569
C10   C     C_R   0.546885 0.548353 0.159179 0.188980
C11   C     C_R   0.546642 0.536994 0.035820 -0.002255
C12   C     C_3   0.878250 0.501213 0.503598 -0.123137
C13   C     C_R   0.464021 0.462568 0.965907 -0.073460
C14   C     C_R   0.460071 0.449310 0.843090 0.149367
C15   C     C_R   0.602635 0.593841 0.859176 0.340438
C16   C     C_R   0.492445 0.700494 0.522137 0.588318
C17   C     C_R   0.625309 0.596450 0.978655 0.192850
C18   C     C_R   0.739901 0.499509 0.500693 0.508116
C19   C     C_3   0.083720 0.517882 0.635225 0.088374
C20   C     C_3   0.942525 0.535865 0.635869 0.040981
C21   C     C_3   0.073845 0.598059 0.445831 -0.058187
C22   C     C_3   0.055440 0.398778 0.430798 -0.024490
C23   C     C_3   0.928714 0.580993 0.424421 0.038259
C24   C     C_3   0.122170 0.504232 0.503624 -0.100134
C25   C     C_2   0.124960 0.610156 0.331339 0.398971
C26   C     C_2   0.348270 0.805283 0.350185 0.265497
C27   C     C_2   0.480565 0.844114 0.755168 0.355848
C28   C     C_2   0.471580 0.943297 0.225472 0.307169
C29   C     C_2   0.475518 0.158715 0.241479 0.297138
C30   C     C_2   0.400178 0.350123 0.777352 0.335386
C31   C     C_2   0.110251 0.422379 0.686443 0.390570
C32   C     C_2   0.305765 0.342269 0.186787 0.322631
C33   C     C_2   0.608311 0.642460 0.232321 0.391248
C34   C     C_3   0.917504 0.386489 0.453312 0.099243
C35   C     C_2   0.922539 0.648026 0.687976 0.336880
C36   C     C_2   0.117168 0.701959 0.524605 0.230358
C37   C     C_2   0.868418 0.683338 0.437397 0.202940
C38   C     C_2   0.882928 0.310829 0.530131 0.328505
C39   C     C_R   0.477107 0.814446 0.535744 0.025978
C40   C     C_R   0.509312 0.184214 0.461060 0.017127
C41   C     C_R   0.472683 0.009757 0.341808 -0.030662
C42   C     C_R   0.485325 0.118372 0.350735 -0.005471
C43   C     C_R   0.533670 0.138341 0.558213 0.174353
Cu1   Cu    Cu3+1 0.509350 0.507730 0.615930 1.152726
Cu2   Cu    Cu3+1 0.490650 0.492270 0.384070 1.077087
H1    H     H_    0.316920 0.347620 0.967864 0.183783
H2    H     H_    0.313443 0.335684 0.275249 0.174033
H3    H     H_    0.666011 0.637503 0.306895 0.147678
H4    H     H_    0.871300 0.696020 0.642778 0.082963
H5    H     H_    0.056147 0.751629 0.570854 0.169113
H6    H     H_    0.783444 0.691846 0.476100 0.095185
H7    H     H_    0.795884 0.315821 0.564339 0.171002
H8    H     H_    0.054945 0.405559 0.339443 0.258705
H9    H     H_    0.127662 0.685870 0.306841 0.177561
H10   H     H_    0.265148 0.843097 0.340828 0.116032
H11   H     H_    0.542264 0.879376 0.829474 0.182346
H12   H     H_    0.388907 0.900538 0.182858 0.137147
H13   H     H_    0.395684 0.135903 0.181369 0.127335
H14   H     H_    0.414823 0.279576 0.808876 0.157996
H15   H     H_    0.113534 0.347629 0.633629 0.201902
N1    N     N_R   0.523430 0.519360 0.790130 -0.233626
N2    N     N_R   0.476570 0.480640 0.209880 -0.276326
O1    O     O_R   0.506640 0.354460 0.582000 -0.451278
O2    O     O_2   0.360838 0.725023 0.283391 -0.439387
O3    O     O_2   0.400630 0.780060 0.766794 -0.377636
O4    O     O_2   0.563295 0.940018 0.174720 -0.352803
O5    O     O_2   0.559848 0.210327 0.213943 -0.386987
O6    O     O_2   0.329929 0.345106 0.692995 -0.460543
O7    O     O_2   0.125723 0.427023 0.790734 -0.365007
O8    O     O_2   0.221440 0.291314 0.125319 -0.435879
O9    O     O_2   0.591242 0.728212 0.211390 -0.411993
O10   O     O_2   0.954805 0.685383 0.788922 -0.320058
O11   O     O_2   0.224305 0.731838 0.538703 -0.489688
O12   O     O_R   0.490840 0.341410 0.386200 -0.519957
O13   O     O_2   0.908164 0.754927 0.394334 -0.441099
O14   O     O_2   0.939570 0.236613 0.542480 -0.389380
O15   O     O_R   0.325590 0.506510 0.597900 -0.424960
O16   O     O_R   0.309790 0.493450 0.402100 -0.492450
O17   O     O_R   0.509160 0.658590 0.613800 -0.457116
O18   O     O_R   0.493360 0.645540 0.418000 -0.501931
O19   O     O_R   0.690210 0.506550 0.597900 -0.483315
O20   O     O_R   0.674410 0.493490 0.402100 -0.492172
O21   O     O_2   0.150369 0.536917 0.259974 -0.422754

loop_
_geom_bond_atom_site_label_1
_geom_bond_atom_site_label_2
_ccdc_geom_bond_type
C33   O9    D    
C30   H14   S    
C21   C36   S    
C10   N2    A    
C36   O11   D    
C14   N1    A    
C15   N1    A    
C29   O5    D    
Cu1   Cu2   S    
Br7   C17   S    
C22   C34   S    
Br8   C20   S    
C38   O14   D    
C19   C20   S    
C15   C17   A    
Cu2   O16   S    
C19   C31   S    
C6    C7    A    
C1    O12   A    
C18   O19   A    
C2    C43   A    
C12   C34   S    
C26   O2    D    
Cu2   N2    S    
C10   C11   A    
C35   H4    S    
C40   C42   A    
C4    O15   A    
Br1   C19   S    
C22   C24   S    
Br5   C43   S    
C18   O20   A    
Cu1   O15   S    
C8    H1    S    
C10   C33   S    
C28   O4    D    
C22   H8    S    
C6    C39   A    
Cu1   N1    S    
C33   H3    S    
Cu2   O12   S    
C41   C42   A    
C12   C23   S    
C31   H15   S    
C21   C25   S    
C38   H7    S    
Cu2   O18   S    
C35   O10   D    
C9    C32   S    
C5    C26   S    
C27   H11   S    
C5    C39   A    
C29   C42   S    
C12   C20   S    
C16   O17   A    
Br4   C7    S    
C32   H2    S    
C4    C24   S    
C2    C7    A    
Br2   C34   S    
C40   C43   A    
Br6   C15   S    
C28   H12   S    
C4    O16   A    
C8    C9    A    
C16   C39   S    
C26   H10   S    
C27   O3    D    
C37   O13   D    
C3    C5    A    
C19   C24   S    
C20   C35   S    
C31   O7    D    
C30   O6    D    
C6    C27   S    
C9    N2    A    
C36   H5    S    
C21   C24   S    
C37   H6    S    
C23   C37   S    
C11   C13   A    
C32   O8    D    
C3    C41   A    
C2    C3    A    
C16   O18   A    
C8    C13   A    
Cu2   O20   S    
C21   C23   S    
C28   C41   S    
C1    C40   S    
C11   C17   A    
C14   C30   S    
C25   H9    S    
Cu1   O17   S    
C12   C18   S    
Br3   C23   S    
C25   O21   D    
Br9   C22   S    
C29   H13   S    
Cu1   O19   S    
C13   C14   A    
Cu1   O1    S    
C34   C38   S    
C1    O1    A    
