data_mof_unit_67979.cif
_audit_creation_date              2012-12-10T20:52:10-0500
_audit_creation_method            fapswitch 2.2
_symmetry_space_group_name_H-M    P1
_symmetry_Int_Tables_number       1
_space_group_crystal_system       triclinic
_cell_length_a                    11.052828
_cell_length_b                    8.955457
_cell_length_c                    8.365253
_cell_angle_alpha                 91.061845
_cell_angle_beta                  91.310878
_cell_angle_gamma                 90.37732
_cell_volume                      827.639680307

loop_
_atom_site_label
_atom_site_type_symbol
_atom_type_description
_atom_site_fract_x
_atom_site_fract_y
_atom_site_fract_z
_atom_type_partial_charge
C1    C     C_R   0.500101 0.219016 0.499072 0.938193
C2    C     C_R   0.500404 0.780993 0.501000 0.919521
C3    C     C_R   0.873116 0.495118 0.503255 -0.080924
C4    C     C_R   0.127035 0.510583 0.496788 -0.065656
C5    C     C_R   0.943592 0.488987 0.643747 0.104743
C6    C     C_R   0.056404 0.520532 0.356676 0.129681
C7    C     C_1   0.500515 0.065374 0.498806 -0.172167
C8    C     C_1   0.500673 0.934665 0.501544 -0.189128
C9    C     C_R   0.260061 0.505209 0.498477 0.853669
C10   C     C_R   0.740017 0.496353 0.501507 0.843310
C11   C     C_R   0.212408 0.728640 0.039704 0.454066
C12   C     C_R   0.785364 0.272674 0.950723 0.516560
C13   C     C_R   0.135356 0.702491 0.165899 -0.075664
C14   C     C_R   0.861622 0.304471 0.825168 -0.136715
C15   C     C_R   0.109375 0.552154 0.204605 -0.133351
C16   C     C_R   0.890999 0.455332 0.795550 -0.146355
C17   C     C_R   0.156448 0.430403 0.117214 -0.101898
C18   C     C_R   0.844623 0.574634 0.887433 -0.104733
C19   C     C_R   0.233194 0.459164 0.990193 0.491601
C20   C     C_R   0.766050 0.541765 0.011180 0.421593
C21   C     C_R   0.259677 0.609153 0.954628 -0.302602
C22   C     C_R   0.739880 0.390426 0.042307 -0.343991
C23   C     C_R   0.932638 0.504371 0.360391 -0.259413
C24   C     C_R   0.067589 0.500470 0.639510 -0.184981
H1    H     H_    0.320480 0.638860 0.862573 0.220031
H2    H     H_    0.681254 0.359997 0.136469 0.212750
H3    H     H_    0.884202 0.500405 0.250750 0.171783
H4    H     H_    0.116251 0.498746 0.748783 0.168325
N1    N     N_1   0.500020 0.500030 0.073640 -0.001937
N2    N     N_1   0.499980 0.499970 0.926360 -0.020407
O1    O     O_R   0.499990 0.285340 0.636850 -0.610780
O2    O     O_R   0.500010 0.714660 0.363150 -0.617298
O3    O     O_R   0.500010 0.285350 0.363100 -0.619008
O4    O     O_R   0.499990 0.714650 0.636900 -0.627232
O5    O     O_R   0.316750 0.500000 0.636870 -0.621568
O6    O     O_R   0.683250 0.500000 0.363130 -0.612178
O7    O     O_R   0.316770 0.500020 0.363120 -0.605078
O8    O     O_R   0.683230 0.499980 0.636880 -0.628169
Zn1   Zn    Zn3+2 0.499990 0.499990 0.682780 0.995642
Zn2   Zn    Zn3+2 0.500010 0.500010 0.317220 1.010704
O9    O     O_3   0.245367 0.872182 0.000391 -0.619064
C25   C     C_3   0.358977 0.904834 0.073626 -0.241624
H5    H     H_    0.430159 0.826237 0.033327 0.160792
H6    H     H_    0.352912 0.905000 0.206068 0.186621
H7    H     H_    0.387417 0.018293 0.039239 0.211541
O10   O     O_3   0.758663 0.125254 0.984984 -0.599400
C26   C     C_3   0.632172 0.101096 0.985079 -0.302897
H8    H     H_    0.597935 0.118066 0.107759 0.172775
H9    H     H_    0.613308 0.983524 0.948203 0.188920
H10   H     H_    0.581291 0.172272 0.899465 0.201804
C27   C     C_2   0.091388 0.834638 0.259229 0.383887
H11   H     H_    0.100435 0.945401 0.211064 0.151472
O11   O     O_2   0.044955 0.823299 0.389439 -0.544194
C28   C     C_2   0.900592 0.182599 0.713665 0.476002
H12   H     H_    0.977051 0.198946 0.636775 0.041859
O12   O     O_2   0.845179 0.064532 0.701522 -0.512746
C29   C     C_2   0.140655 0.276263 0.176992 0.406082
H13   H     H_    0.053707 0.240286 0.220757 0.051228
O13   O     O_2   0.226480 0.191721 0.186024 -0.565664
C30   C     C_2   0.861901 0.732247 0.838745 0.476957
H14   H     H_    0.788025 0.810603 0.848784 0.136821
O14   O     O_2   0.959080 0.776494 0.790967 -0.507690
O15   O     O_3   0.293751 0.345248 0.910163 -0.579576
C31   C     C_3   0.213909 0.240821 0.833366 -0.161139
H15   H     H_    0.240182 0.126970 0.867720 0.243246
H16   H     H_    0.223840 0.246057 0.702119 0.155201
H17   H     H_    0.116999 0.255549 0.860944 0.088101
O16   O     O_3   0.703344 0.653158 0.092651 -0.611270
C32   C     C_3   0.780324 0.759222 0.171788 -0.245785
H18   H     H_    0.878044 0.740806 0.154670 0.145901
H19   H     H_    0.763147 0.759764 0.301741 0.216728
H20   H     H_    0.758159 0.871890 0.129492 0.204170

loop_
_geom_bond_atom_site_label_1
_geom_bond_atom_site_label_2
_ccdc_geom_bond_type
C32   H20   S    
O5    Zn1   S    
C15   C17   A    
N1    N2    T    
C14   C16   A    
C23   H3    S    
C26   H10   S    
C24   H4    S    
O9    C25   S    
C28   H12   S    
C3    C23   A    
C26   H8    S    
O1    Zn1   S    
O6    Zn2   S    
C10   O8    A    
C31   H15   S    
C2    O4    A    
O2    Zn2   S    
C4    C9    S    
C3    C5    A    
C1    O3    A    
C7    C8    T    
C26   H9    S    
C3    C10   S    
C13   C27   S    
C30   O14   D    
C11   C13   A    
C29   H13   S    
C32   H18   S    
C5    C24   A    
C25   H6    S    
C6    C23   A    
N1    Zn2   S    
C18   C30   S    
C19   C21   A    
C12   C14   A    
N2    Zn1   S    
C11   O9    S    
O7    Zn2   S    
C18   C20   A    
C13   C15   A    
C20   O16   S    
O8    Zn1   S    
C4    C24   A    
C28   O12   D    
C29   O13   D    
O3    Zn2   S    
C25   H5    S    
C20   C22   A    
C9    O5    A    
O15   C31   S    
C14   C28   S    
C31   H17   S    
C12   C22   A    
C1    O1    A    
C2    O2    A    
C4    C6    A    
C22   H2    S    
C19   O15   S    
C32   H19   S    
C21   H1    S    
O10   C26   S    
C30   H14   S    
C12   O10   S    
C10   O6    A    
C17   C19   A    
C6    C15   S    
C1    C7    S    
C5    C16   S    
O4    Zn1   S    
C11   C21   A    
C16   C18   A    
C2    C8    S    
C9    O7    A    
C27   H11   S    
C17   C29   S    
O16   C32   S    
C27   O11   D    
C25   H7    S    
C31   H16   S    
