data_mof_unit_53959.cif
_audit_creation_date              2012-12-11T15:50:27-0500
_audit_creation_method            fapswitch 2.2
_symmetry_space_group_name_H-M    P1
_symmetry_Int_Tables_number       1
_space_group_crystal_system       triclinic
_cell_length_a                    18.994017
_cell_length_b                    11.011175
_cell_length_c                    18.720129
_cell_angle_alpha                 90.318554
_cell_angle_beta                  90.733232
_cell_angle_gamma                 90.462776
_cell_volume                      3914.7373446

loop_
_atom_site_label
_atom_site_type_symbol
_atom_type_description
_atom_site_fract_x
_atom_site_fract_y
_atom_site_fract_z
_atom_type_partial_charge
C1    C     C_R   0.291122 0.994482 0.860545 0.569620
C2    C     C_R   0.711560 0.001840 0.138738 0.551311
C3    C     C_R   0.791122 0.494482 0.860545 0.569620
C4    C     C_R   0.211558 0.501834 0.138738 0.551307
C5    C     C_3   0.518995 0.744389 0.969068 -0.000468
C6    C     C_3   0.471230 0.714130 0.031532 0.004065
C7    C     C_3   0.019001 0.244398 0.969067 -0.000475
C8    C     C_3   0.971237 0.214127 0.031529 0.004079
C9    C     C_R   0.224912 0.530972 0.064277 0.026659
C10   C     C_R   0.783898 0.504808 0.938718 0.039658
C11   C     C_R   0.724914 0.030976 0.064277 0.026664
C12   C     C_R   0.283898 0.004809 0.938718 0.039676
C13   C     C_R   0.289862 0.509748 0.032698 0.058978
C14   C     C_R   0.732470 0.443622 0.978764 -0.006032
C15   C     C_R   0.789863 0.009749 0.032697 0.058965
C16   C     C_R   0.232471 0.943621 0.978764 -0.006032
C17   C     C_R   0.301205 0.538001 0.961265 0.006173
C18   C     C_R   0.718896 0.478973 0.048755 0.092930
C19   C     C_R   0.801204 0.037994 0.961263 0.006174
C20   C     C_R   0.218897 0.978970 0.048756 0.092910
C21   C     C_R   0.178838 0.592878 0.949115 -0.135952
C22   C     C_R   0.822606 0.602302 0.049253 -0.184775
C23   C     C_R   0.678838 0.092877 0.949115 -0.135950
C24   C     C_R   0.322605 0.102303 0.049252 -0.184775
C25   C     C_R   0.169723 0.575762 0.021817 -0.166976
C26   C     C_R   0.833282 0.574978 0.977417 -0.137572
C27   C     C_R   0.669723 0.075762 0.021817 -0.166949
C28   C     C_R   0.333281 0.074979 0.977417 -0.137571
C29   C     C_3   0.325707 0.390845 0.025839 -0.233097
C30   C     C_3   0.656808 0.414970 0.964683 -0.283279
C31   C     C_3   0.825707 0.890844 0.025842 -0.233092
C32   C     C_3   0.156809 0.914964 0.964685 -0.283276
C33   C     C_3   0.343154 0.425289 0.949769 -0.130339
C34   C     C_3   0.641463 0.460540 0.040354 -0.110946
C35   C     C_3   0.843148 0.925276 0.949769 -0.130343
C36   C     C_3   0.141464 0.960531 0.040356 -0.110939
C37   C     C_R   0.245487 0.579118 0.918743 0.057968
C38   C     C_R   0.760131 0.567325 0.083550 0.023917
C39   C     C_R   0.745486 0.079113 0.918742 0.057964
C40   C     C_R   0.260131 0.067325 0.083549 0.023930
C41   C     C_R   0.493583 0.827379 0.420141 0.011441
C42   C     C_R   0.476593 0.829742 0.568233 0.002599
C43   C     C_R   0.993596 0.327384 0.420148 0.011451
C44   C     C_R   0.976624 0.329748 0.568243 0.002615
C45   C     C_R   0.439611 0.817593 0.862517 0.539604
C46   C     C_R   0.530001 0.820338 0.144814 0.556185
C47   C     C_R   0.939613 0.317594 0.862517 0.539596
C48   C     C_R   0.030001 0.320338 0.144814 0.556184
C49   C     C_R   0.485136 0.718765 0.458053 -0.027133
C50   C     C_R   0.476083 0.720885 0.530353 -0.026895
C51   C     C_R   0.985132 0.218770 0.458057 -0.027067
C52   C     C_R   0.976090 0.220896 0.530359 -0.026869
C53   C     C_R   0.473416 0.939165 0.529852 -0.162544
C54   C     C_R   0.480757 0.937825 0.455396 -0.164505
C55   C     C_R   0.973474 0.439176 0.529867 -0.162561
C56   C     C_R   0.980803 0.437835 0.455410 -0.164497
C57   C     C_3   0.531036 0.607716 0.463234 -0.103539
C58   C     C_3   0.517888 0.608832 0.543341 -0.076865
C59   C     C_3   0.031011 0.107691 0.463233 -0.103582
C60   C     C_3   0.017877 0.108827 0.543344 -0.076828
C61   C     C_R   0.250034 0.605401 0.418628 0.022146
C62   C     C_R   0.750543 0.581345 0.576207 0.032208
C63   C     C_R   0.750006 0.105333 0.418654 0.022110
C64   C     C_R   0.250541 0.081353 0.576210 0.032217
C65   C     C_R   0.199212 0.669246 0.456766 0.013090
C66   C     C_R   0.780373 0.683838 0.545747 -0.012306
C67   C     C_R   0.699155 0.169075 0.456804 0.013147
C68   C     C_R   0.280368 0.183849 0.545749 -0.012262
C69   C     C_R   0.203156 0.674427 0.529178 0.015962
C70   C     C_R   0.780037 0.693742 0.473281 0.014155
C71   C     C_R   0.703100 0.174245 0.529214 0.016030
C72   C     C_R   0.280036 0.193748 0.473284 0.014221
C73   C     C_R   0.316047 0.577472 0.527969 -0.154753
C74   C     C_R   0.709223 0.512161 0.459446 -0.182616
C75   C     C_R   0.816020 0.077409 0.527988 -0.154752
C76   C     C_R   0.209220 0.012171 0.459448 -0.182642
C77   C     C_R   0.312647 0.572824 0.453431 -0.157675
C78   C     C_R   0.710908 0.499180 0.533081 -0.140309
C79   C     C_R   0.812621 0.072780 0.453452 -0.157700
C80   C     C_R   0.210904 0.999194 0.533084 -0.140347
C81   C     C_3   0.120365 0.655959 0.459146 -0.255889
C82   C     C_3   0.852713 0.738624 0.552450 -0.249755
C83   C     C_3   0.620327 0.155615 0.459186 -0.255949
C84   C     C_3   0.352699 0.238669 0.552458 -0.249848
C85   C     C_3   0.125762 0.664109 0.539400 -0.269935
C86   C     C_3   0.853020 0.744620 0.471899 -0.218033
C87   C     C_3   0.625722 0.163768 0.539440 -0.270030
C88   C     C_3   0.353012 0.244654 0.471905 -0.218151
C89   C     C_R   0.259753 0.634633 0.850349 0.535506
C90   C     C_R   0.740310 0.633834 0.148838 0.541884
C91   C     C_R   0.759753 0.134631 0.850349 0.535489
C92   C     C_R   0.240310 0.133834 0.148838 0.541896
C93   C     C_R   0.257534 0.618557 0.566344 0.019471
C94   C     C_R   0.748269 0.605781 0.429204 0.016914
C95   C     C_R   0.757505 0.118449 0.566369 0.019448
C96   C     C_R   0.248269 0.105786 0.429206 0.016953
C97   C     C_R   0.271702 0.043924 0.645859 0.595875
C98   C     C_R   0.729080 0.048790 0.352402 0.561615
C99   C     C_R   0.771702 0.543921 0.645858 0.595876
C100  C     C_R   0.229083 0.548799 0.352399 0.561628
C101  C     C_R   0.464425 0.823174 0.644165 0.575183
C102  C     C_R   0.529021 0.822899 0.352127 0.541998
C103  C     C_R   0.964444 0.323177 0.644173 0.575199
C104  C     C_R   0.029024 0.322899 0.352129 0.542031
C105  C     C_R   0.261512 0.641966 0.641646 0.548999
C106  C     C_R   0.740316 0.637016 0.355965 0.552124
C107  C     C_R   0.761504 0.141933 0.641659 0.548997
C108  C     C_R   0.240315 0.137017 0.355965 0.552132
C109  C     C_3   0.445344 0.906288 0.042840 -0.137535
C110  C     C_3   0.493422 0.936733 0.978565 -0.126122
C111  C     C_3   0.945340 0.406280 0.042840 -0.137536
C112  C     C_3   0.993417 0.436736 0.978567 -0.126135
C113  C     C_3   0.413009 0.796126 0.001101 -0.142474
C114  C     C_3   0.551002 0.853104 0.009668 -0.108980
C115  C     C_3   0.913012 0.296115 0.001099 -0.142467
C116  C     C_3   0.051001 0.353115 0.009670 -0.108969
C117  C     C_3   0.461760 0.826251 0.938064 0.019916
C118  C     C_3   0.502320 0.823309 0.072128 0.033852
C119  C     C_3   0.961763 0.326252 0.938063 0.019905
C120  C     C_3   0.002320 0.323308 0.072129 0.033858
Cr1   Cr    Cr6+3 0.229640 0.835880 0.747370 1.055314
Cr2   Cr    Cr6+3 0.770360 0.835880 0.252630 1.040727
Cr3   Cr    Cr6+3 0.729640 0.335880 0.747370 1.055335
Cr4   Cr    Cr6+3 0.270360 0.335880 0.252630 1.040731
Cr5   Cr    Cr6+3 0.387390 0.989720 0.750850 1.008179
Cr6   Cr    Cr6+3 0.612610 0.989720 0.249150 1.041786
Cr7   Cr    Cr6+3 0.887390 0.489720 0.750850 1.008182
Cr8   Cr    Cr6+3 0.112610 0.489720 0.249150 1.041768
Cr9   Cr    Cr6+3 0.385770 0.677220 0.749340 1.025944
Cr10  Cr    Cr6+3 0.614230 0.677220 0.250660 1.061564
Cr11  Cr    Cr6+3 0.885770 0.177220 0.749340 1.025927
Cr12  Cr    Cr6+3 0.114230 0.177220 0.250660 1.061541
H1    H     H_    0.356053 0.773905 0.996586 0.119276
H2    H     H_    0.608532 0.867202 0.014797 0.144148
H3    H     H_    0.856058 0.273887 0.996582 0.119279
H4    H     H_    0.108529 0.367219 0.014803 0.144161
H5    H     H_    0.469040 0.025016 0.557405 0.130500
H6    H     H_    0.482891 0.022918 0.426846 0.129151
H7    H     H_    0.969123 0.525027 0.557423 0.130483
H8    H     H_    0.982943 0.522928 0.426862 0.129140
H9    H     H_    0.355426 0.533994 0.423828 0.131139
H10   H     H_    0.684776 0.421113 0.555695 0.172243
H11   H     H_    0.855409 0.034001 0.423842 0.131262
H12   H     H_    0.184766 0.921137 0.555700 0.172176
H13   H     H_    0.101941 0.565067 0.441043 0.165241
H14   H     H_    0.893441 0.676925 0.573703 0.162136
H15   H     H_    0.601976 0.064694 0.441073 0.165216
H16   H     H_    0.393435 0.176995 0.573719 0.162117
H17   H     H_    0.093068 0.734118 0.434277 0.195643
H18   H     H_    0.851902 0.829325 0.578630 0.140647
H19   H     H_    0.592975 0.233702 0.434322 0.195793
H20   H     H_    0.351869 0.329373 0.578632 0.140617
H21   H     H_    0.420932 0.967325 0.081997 0.135271
H22   H     H_    0.502402 0.028321 0.955797 0.111052
H23   H     H_    0.920924 0.467309 0.081998 0.135275
H24   H     H_    0.002395 0.528325 0.955801 0.111049
H25   H     H_    0.134203 0.622235 0.917220 0.131038
H26   H     H_    0.861212 0.660479 0.075622 0.130358
H27   H     H_    0.634203 0.122236 0.917221 0.131035
H28   H     H_    0.361211 0.160480 0.075622 0.130354
H29   H     H_    0.399847 0.446507 0.942081 0.066872
H30   H     H_    0.612106 0.547074 0.042372 0.118203
H31   H     H_    0.899841 0.946486 0.942075 0.066879
H32   H     H_    0.112104 0.047063 0.042377 0.118250
O1    O     O_R   0.214300 0.709080 0.827500 -0.536984
O2    O     O_R   0.785700 0.709080 0.172500 -0.540543
O3    O     O_R   0.714300 0.209080 0.827500 -0.536989
O4    O     O_R   0.285700 0.209080 0.172500 -0.540546
O5    O     O_R   0.445900 0.919370 0.676500 -0.507579
O6    O     O_R   0.554100 0.919370 0.323500 -0.509236
O7    O     O_R   0.945900 0.419370 0.676500 -0.507576
O8    O     O_R   0.054100 0.419370 0.323500 -0.509218
O9    O     O_R   0.456660 0.717710 0.669820 -0.480136
O10   O     O_R   0.543340 0.717710 0.330180 -0.532152
O11   O     O_R   0.956660 0.217710 0.669820 -0.480141
O12   O     O_R   0.043340 0.217710 0.330180 -0.532180
O13   O     O_R   0.320590 0.625770 0.672930 -0.512751
O14   O     O_R   0.679410 0.625770 0.327070 -0.504442
O15   O     O_R   0.820590 0.125770 0.672930 -0.512757
O16   O     O_R   0.179410 0.125770 0.327070 -0.504465
O17   O     O_3   0.334270 0.834280 0.749190 -0.313751
O18   O     O_3   0.665730 0.834280 0.250810 -0.290571
O19   O     O_3   0.834270 0.334280 0.749190 -0.313730
O20   O     O_3   0.165730 0.334280 0.250810 -0.290564
O21   O     O_R   0.236190 0.958390 0.823150 -0.464328
O22   O     O_R   0.763810 0.958390 0.176850 -0.471376
O23   O     O_R   0.736190 0.458390 0.823150 -0.464321
O24   O     O_R   0.263810 0.458390 0.176850 -0.471368
O25   O     O_R   0.332090 0.075280 0.831290 -0.517084
O26   O     O_R   0.667910 0.075280 0.168710 -0.465042
O27   O     O_R   0.832090 0.575280 0.831290 -0.517103
O28   O     O_R   0.167910 0.575280 0.168710 -0.465073
O29   O     O_R   0.446280 0.918040 0.826620 -0.507429
O30   O     O_R   0.553720 0.918040 0.173380 -0.532078
O31   O     O_R   0.946280 0.418040 0.826620 -0.507433
O32   O     O_R   0.053720 0.418040 0.173380 -0.532083
O33   O     O_R   0.457080 0.716270 0.831760 -0.499613
O34   O     O_R   0.542920 0.716270 0.168240 -0.479023
O35   O     O_R   0.957080 0.216270 0.831760 -0.499662
O36   O     O_R   0.042920 0.216270 0.168240 -0.479009
O37   O     O_R   0.320980 0.624440 0.823040 -0.527456
O38   O     O_R   0.679020 0.624440 0.176960 -0.476952
O39   O     O_R   0.820980 0.124440 0.823040 -0.527458
O40   O     O_R   0.179020 0.124440 0.176960 -0.476931
O41   O     O_R   0.213880 0.710510 0.665560 -0.514652
O42   O     O_R   0.786120 0.710510 0.334440 -0.518382
O43   O     O_R   0.713880 0.210510 0.665560 -0.514645
O44   O     O_R   0.286120 0.210510 0.334440 -0.518375
O45   O     O_R   0.235800 0.959720 0.673040 -0.468137
O46   O     O_R   0.764200 0.959720 0.326960 -0.503170
O47   O     O_R   0.735800 0.459720 0.673040 -0.468120
O48   O     O_R   0.264200 0.459720 0.326960 -0.503167
O49   O     O_R   0.331670 0.076720 0.669350 -0.533146
O50   O     O_R   0.668330 0.076720 0.330650 -0.511501
O51   O     O_R   0.831670 0.576720 0.669350 -0.533145
O52   O     O_R   0.168330 0.576720 0.330650 -0.511522
H33   H     H_    0.086187 0.127495 0.448086 0.134439
H34   H     H_    0.984690 0.032908 0.563270 0.181201
H35   H     H_    0.586213 0.627554 0.448101 0.134480
H36   H     H_    0.484712 0.532885 0.563254 0.181096
C121  C     C_2   0.499722 0.499996 0.424140 0.196333
H37   H     H_    0.480047 0.510034 0.369852 0.147090
O53   O     O_2   0.497976 0.400091 0.451962 -0.576115
C122  C     C_2   0.582284 0.633117 0.588677 0.228131
H38   H     H_    0.618868 0.705130 0.574601 0.101757
O54   O     O_2   0.592797 0.573934 0.642638 -0.479138
C123  C     C_2   0.999668 0.999984 0.424150 0.196144
H39   H     H_    0.980086 0.010015 0.369805 0.147036
O55   O     O_2   0.997792 0.900091 0.452052 -0.576108
C124  C     C_2   0.082280 0.133090 0.588667 0.228052
H40   H     H_    0.118874 0.205079 0.574580 0.101797
O56   O     O_2   0.092788 0.073924 0.642634 -0.479175
H41   H     H_    0.362808 0.546036 0.555258 0.134540
H42   H     H_    0.679251 0.448561 0.426528 0.147577
H43   H     H_    0.862788 0.046012 0.555273 0.134605
H44   H     H_    0.179246 0.948573 0.426531 0.147440
H45   H     H_    0.102637 0.748575 0.561429 0.175412
H46   H     H_    0.854600 0.837909 0.450979 0.175206
H47   H     H_    0.602544 0.248180 0.561474 0.175430
H48   H     H_    0.354580 0.337940 0.450981 0.175053
H49   H     H_    0.110181 0.578828 0.566798 0.139931
H50   H     H_    0.891036 0.681314 0.447095 0.155554
H51   H     H_    0.610201 0.078462 0.566837 0.139911
H52   H     H_    0.391040 0.181363 0.447108 0.155534
C125  C     C_2   0.561447 0.659619 0.925509 0.238220
H53   H     H_    0.537783 0.575063 0.906920 0.084568
O57   O     O_2   0.621097 0.687548 0.908253 -0.436729
C126  C     C_2   0.459507 0.590945 0.062465 0.234501
H54   H     H_    0.481245 0.511532 0.036724 0.041420
O58   O     O_2   0.425326 0.579595 0.116807 -0.479652
C127  C     C_2   0.061466 0.159646 0.925508 0.238185
H55   H     H_    0.037800 0.075116 0.906880 0.084654
O59   O     O_2   0.121135 0.187555 0.908306 -0.436796
C128  C     C_2   0.959519 0.090937 0.062457 0.234502
H56   H     H_    0.981257 0.011528 0.036711 0.041429
O60   O     O_2   0.925341 0.079580 0.116801 -0.479655
H57   H     H_    0.118192 0.591588 0.044040 0.132539
H58   H     H_    0.878715 0.614507 0.951747 0.126172
H59   H     H_    0.618192 0.091590 0.044040 0.132563
H60   H     H_    0.378714 0.114507 0.951747 0.126173
H61   H     H_    0.785793 0.817653 0.030339 0.168978
H62   H     H_    0.147508 0.817024 0.957396 0.122980
H63   H     H_    0.285793 0.317651 0.030328 0.168986
H64   H     H_    0.647506 0.317030 0.957395 0.122999
H65   H     H_    0.372486 0.382130 0.061406 0.152387
H66   H     H_    0.635449 0.467724 0.920016 0.180671
H67   H     H_    0.872489 0.882133 0.061405 0.152399
H68   H     H_    0.135445 0.967717 0.920019 0.180657
C129  C     C_2   0.313902 0.341139 0.892811 0.244915
H69   H     H_    0.347023 0.315473 0.848561 0.122501
O61   O     O_2   0.253298 0.303674 0.894687 -0.425698
C130  C     C_2   0.611840 0.363925 0.088153 0.235059
H70   H     H_    0.563190 0.317829 0.072868 0.079131
O62   O     O_2   0.640806 0.338467 0.144663 -0.457222
C131  C     C_2   0.813886 0.841120 0.892819 0.244905
H71   H     H_    0.847005 0.815443 0.848563 0.122511
O63   O     O_2   0.753281 0.803654 0.894708 -0.425718
C132  C     C_2   0.111848 0.863909 0.088158 0.235068
H72   H     H_    0.063223 0.817751 0.072854 0.079134
O64   O     O_2   0.140790 0.838518 0.144690 -0.457238

loop_
_geom_bond_atom_site_label_1
_geom_bond_atom_site_label_2
_ccdc_geom_bond_type
C2    O26   A    
Cr2   O42   S    
C73   C93   A    
C75   C95   A    
C48   C120  S    
C57   C121  S    
Cr10  O10   S    
C53   H5    S    
C47   O31   A    
C63   C98   S    
C69   C93   A    
C5    C6    S    
C20   C40   A    
C46   O34   A    
C71   C95   A    
C22   C38   A    
C29   C33   S    
C55   H7    S    
C9    C13   A    
Cr3   O19   S    
Cr4   O4    S    
C11   C15   A    
C12   C16   A    
C130  H70   S    
C74   H42   S    
Cr5   O5    S    
C107  O43   A    
Cr10  O38   S    
C98   O50   A    
C59   C60   S    
C113  H1    S    
C125  H53   S    
Cr4   O44   S    
C34   C130  S    
C41   C49   A    
C126  O58   D    
C109  C118  S    
C51   C52   A    
C7    C119  S    
C59   H33   S    
C30   C34   S    
C35   H31   S    
C33   H29   S    
Cr7   O31   S    
C66   C82   S    
C92   O4    A    
C123  H39   S    
C11   C27   A    
C68   C72   A    
C124  O56   D    
C59   C123  S    
C64   C97   S    
C48   O36   A    
C129  O61   D    
C6    C126  S    
C100  O52   A    
C107  O15   A    
C84   C88   S    
C105  O13   A    
C3    O23   A    
C106  O42   A    
C1    O21   A    
C38   C90   S    
C31   H61   S    
C4    O24   A    
C18   C38   A    
C19   C35   S    
C76   C96   A    
C44   C55   A    
Cr7   O51   S    
C66   C70   A    
C56   H8    S    
C86   H46   S    
C77   H9    S    
C62   C99   S    
C72   C96   A    
C61   C65   A    
C73   C77   A    
C75   C79   A    
Cr9   O33   S    
C90   O38   A    
C102  O6    A    
C67   C83   S    
C101  O9    A    
C111  C112  S    
C108  O44   A    
C7    C8    S    
C104  O12   A    
C99   O47   A    
C53   C54   A    
C97   O45   A    
C64   C68   A    
C91   O3    A    
Cr4   O20   S    
C42   C53   A    
C81   H17   S    
Cr2   O22   S    
C45   O33   A    
Cr12  O36   S    
C49   C57   S    
C41   C102  S    
Cr6   O26   S    
C43   C104  S    
C52   C60   S    
C58   H36   S    
C79   H11   S    
C61   C77   A    
C80   H12   S    
C23   H27   S    
C128  O60   D    
Cr2   O46   S    
Cr10  O14   S    
C110  C114  S    
C85   H45   S    
C25   H57   S    
C44   C52   A    
C103  O7    A    
C47   O35   A    
C1    C12   S    
Cr5   O49   S    
C2    C11   S    
C44   C103  S    
C46   O30   A    
C87   H47   S    
C62   C66   A    
C31   H67   S    
C10   C14   A    
Cr4   O24   S    
Cr7   O27   S    
C116  C120  S    
C7    C127  S    
Cr8   O28   S    
C7    C116  S    
C121  H37   S    
Cr6   O6    S    
C60   H34   S    
C114  H2    S    
C76   H44   S    
C114  C118  S    
C36   C132  S    
Cr8   O52   S    
C113  C117  S    
C123  O55   D    
C42   C50   A    
C115  C119  S    
C74   C78   A    
C61   C100  S    
C42   C101  S    
C112  C116  S    
C109  H21   S    
C45   C117  S    
C21   C25   A    
C62   C78   A    
C76   C80   A    
C34   H30   S    
C15   C31   S    
C16   C32   S    
Cr1   O1    S    
C81   H13   S    
C13   C17   A    
Cr12  O16   S    
C57   C58   S    
C115  H3    S    
C96   C108  S    
C130  O62   D    
C49   C50   A    
C112  H24   S    
C132  H72   S    
C35   C131  S    
C4    C9    S    
C106  O14   A    
C81   C85   S    
C86   H50   S    
C1    O25   A    
Cr5   O29   S    
C83   C87   S    
C55   C56   A    
C29   H65   S    
C4    O28   A    
C131  H71   S    
Cr1   O41   S    
Cr9   O9    S    
C122  H38   S    
C9    C25   A    
C127  H55   S    
C15   C19   A    
C12   C28   A    
C60   C124  S    
C13   C29   S    
C70   C94   A    
C78   H10   S    
C88   H48   S    
C46   C118  S    
Cr12  O12   S    
C39   C91   S    
Cr6   O50   S    
Cr11  O19   S    
C28   H60   S    
C101  O5    A    
Cr11  O39   S    
C73   H41   S    
C92   O40   A    
C104  O8    A    
C97   O49   A    
C129  H69   S    
C90   O2    A    
C64   C80   A    
C17   C33   S    
C110  C117  S    
C82   H14   S    
C83   H19   S    
C84   H16   S    
C45   O29   A    
Cr12  O40   S    
Cr5   O17   S    
C68   C84   S    
C24   C28   A    
C58   C122  S    
Cr4   O48   S    
C82   C86   S    
Cr9   O13   S    
C50   C58   S    
C128  H56   S    
C69   C85   S    
Cr6   O30   S    
C65   C81   S    
C26   H58   S    
C103  O11   A    
C95   C107  S    
C71   C87   S    
C125  O57   D    
C31   C35   S    
C111  H23   S    
C32   C36   S    
C126  H54   S    
Cr1   O17   S    
C24   C40   A    
C5    C125  S    
C88   H52   S    
C112  C119  S    
C105  O41   A    
C116  H4    S    
C22   H26   S    
C37   C89   S    
C109  C110  S    
Cr12  O20   S    
C43   C51   A    
C65   C69   A    
Cr11  O11   S    
C67   C71   A    
C124  H40   S    
C20   C36   S    
C21   C37   A    
C22   C26   A    
C74   C94   A    
C36   H32   S    
Cr7   O7    S    
C91   O39   A    
C89   O37   A    
Cr2   O2    S    
C5    C114  S    
Cr7   O19   S    
C14   C18   A    
Cr8   O20   S    
C63   C79   A    
C98   O46   A    
C131  O63   D    
C127  O59   D    
C108  O16   A    
C8    C115  S    
C93   C105  S    
Cr3   O47   S    
C75   H43   S    
C30   H66   S    
C23   C27   A    
C16   C20   A    
Cr3   O3    S    
C10   C26   A    
C47   C119  S    
C48   O32   A    
C14   C30   S    
C85   H49   S    
C72   C88   S    
C63   C67   A    
Cr10  O18   S    
Cr11  O15   S    
C57   H35   S    
C100  O48   A    
C5    C117  S    
C111  C120  S    
Cr11  O35   S    
C2    O22   A    
C6    C113  S    
C110  H22   S    
C3    O27   A    
C87   H51   S    
Cr3   O43   S    
C17   C37   A    
C40   C92   S    
C32   H62   S    
C18   C34   S    
C89   O1    A    
C82   H18   S    
C19   C39   A    
C83   H15   S    
C84   H20   S    
Cr8   O8    S    
Cr1   O45   S    
C132  O64   D    
Cr6   O18   S    
C51   C59   S    
C70   C86   S    
C8    C120  S    
Cr9   O17   S    
C94   C106  S    
C33   C129  S    
C21   H25   S    
Cr8   O32   S    
C122  O54   D    
Cr5   O25   S    
C24   H28   S    
C109  C113  S    
C102  O10   A    
C27   H59   S    
Cr9   O37   S    
C121  O53   D    
C3    C10   S    
C54   H6    S    
C99   O51   A    
C23   C39   A    
C8    C128  S    
C29   H63   S    
C32   H68   S    
C30   H64   S    
Cr3   O23   S    
C41   C54   A    
Cr1   O21   S    
C43   C56   A    
Cr2   O18   S    
C111  C115  S    
Cr10  O34   S    
C6    C118  S    
