data_mof_unit_6519.cif
_audit_creation_date              2012-12-10T18:04:01-0500
_audit_creation_method            fapswitch 2.2
_symmetry_space_group_name_H-M    P1
_symmetry_Int_Tables_number       1
_space_group_crystal_system       triclinic
_cell_length_a                    10.84231
_cell_length_b                    9.635696
_cell_length_c                    10.859328
_cell_angle_alpha                 90.594174
_cell_angle_beta                  94.046782
_cell_angle_gamma                 90.811904
_cell_volume                      1131.49303275

loop_
_atom_site_label
_atom_site_type_symbol
_atom_type_description
_atom_site_fract_x
_atom_site_fract_y
_atom_site_fract_z
_atom_type_partial_charge
C1    C     C_R   0.262507 0.498646 0.501513 0.789758
C2    C     C_R   0.737396 0.499743 0.497006 0.781983
C3    C     C_R   0.412300 0.074039 0.431648 -0.070232
C4    C     C_R   0.585103 0.079215 0.570198 -0.051091
C5    C     C_R   0.409996 0.926631 0.431950 0.080472
C6    C     C_R   0.595176 0.933115 0.560043 0.091974
C7    C     C_R   0.496252 0.499123 0.262776 0.800934
C8    C     C_R   0.500613 0.500622 0.737850 0.779919
C9    C     C_R   0.525124 0.616985 0.069532 0.116557
C10   C     C_R   0.527105 0.619930 0.942661 0.119821
C11   C     C_R   0.487682 0.498915 0.129420 -0.085927
C12   C     C_R   0.493412 0.501478 0.871483 -0.092459
C13   C     C_R   0.441920 0.383942 0.059119 -0.217874
C14   C     C_R   0.444889 0.385223 0.930495 -0.209287
C15   C     C_3   0.647960 0.698347 0.954990 -0.514234
C16   C     C_3   0.643812 0.694755 0.093055 -0.460593
C17   C     C_R   0.061799 0.369475 0.489692 -0.188613
C18   C     C_R   0.933487 0.370078 0.487907 -0.175055
C19   C     C_R   0.871280 0.496747 0.493642 -0.029699
C20   C     C_R   0.128535 0.495212 0.502670 -0.018911
C21   C     C_R   0.938529 0.620459 0.500182 -0.187369
C22   C     C_R   0.065791 0.619319 0.513862 -0.165913
Cu1   Cu    Cu3+1 0.500000 0.640660 0.500000 0.946023
Cu2   Cu    Cu3+1 0.500000 0.359340 0.500000 0.935728
H1    H     H_    0.725151 0.636688 0.921982 0.189599
H2    H     H_    0.632385 0.798886 0.135168 0.191848
H3    H     H_    0.639396 0.806199 0.920453 0.201458
H4    H     H_    0.717994 0.631167 0.139308 0.194534
H5    H     H_    0.108234 0.271288 0.481884 0.141998
H6    H     H_    0.883449 0.272079 0.480971 0.147678
N1    N     N_R   0.500000 0.852070 0.500000 -0.194676
N2    N     N_R   0.500000 0.147940 0.500000 -0.177645
O1    O     O_R   0.319640 0.618740 0.499990 -0.576552
O2    O     O_R   0.680360 0.618740 0.500010 -0.586484
O3    O     O_R   0.319620 0.381170 0.499990 -0.592283
O4    O     O_R   0.680380 0.381170 0.500010 -0.590481
O5    O     O_R   0.499990 0.618810 0.319660 -0.582269
O6    O     O_R   0.500010 0.618810 0.680340 -0.592754
O7    O     O_R   0.499960 0.381240 0.319650 -0.582792
O8    O     O_R   0.500040 0.381240 0.680350 -0.578138
H7    H     H_    0.407789 0.292234 0.103378 0.157999
H8    H     H_    0.412147 0.294291 0.877803 0.164541
H9    H     H_    0.892459 0.717733 0.496451 0.186191
H10   H     H_    0.114948 0.715497 0.533466 0.157776
H11   H     H_    0.343685 0.130010 0.375169 0.130032
H12   H     H_    0.654932 0.140079 0.623914 0.143360
C23   C     C_R   0.313611 0.862851 0.345829 0.159674
C24   C     C_R   0.188957 0.877841 0.369345 -0.197176
C25   C     C_R   0.094814 0.836413 0.281332 -0.126220
C26   C     C_R   0.124619 0.785363 0.166514 -0.110631
C27   C     C_R   0.248210 0.781095 0.138325 -0.164322
C28   C     C_R   0.341751 0.823913 0.226443 -0.114386
H13   H     H_    0.165198 0.924053 0.455482 0.106028
H14   H     H_    0.998941 0.845826 0.301599 0.132379
H15   H     H_    0.051958 0.753685 0.098087 0.123899
H16   H     H_    0.271294 0.748329 0.047235 0.134084
H17   H     H_    0.435757 0.831649 0.200648 0.130756
C29   C     C_R   0.724105 0.888305 0.593725 0.131840
C30   C     C_R   0.822173 0.964770 0.545759 -0.230185
C31   C     C_R   0.941534 0.963122 0.603413 -0.167497
C32   C     C_R   0.966873 0.879652 0.705961 -0.104265
C33   C     C_R   0.872898 0.797480 0.749999 -0.165822
C34   C     C_R   0.752261 0.803418 0.694819 -0.135731
H18   H     H_    0.804114 0.032652 0.467890 0.130108
H19   H     H_    0.013738 0.027540 0.569143 0.125734
H20   H     H_    0.059476 0.877097 0.750096 0.124259
H21   H     H_    0.893602 0.731047 0.828127 0.126098
H22   H     H_    0.680536 0.743529 0.730815 0.162519

loop_
_geom_bond_atom_site_label_1
_geom_bond_atom_site_label_2
_ccdc_geom_bond_type
C19   C21   A    
C16   H4    S    
C3    N2    A    
Cu1   Cu2   S    
Cu2   N2    S    
C23   C28   A    
C18   H6    S    
Cu1   O5    S    
Cu1   O6    S    
C17   H5    S    
C9    C10   A    
C6    C29   S    
C15   H3    S    
C23   C24   A    
C8    C12   S    
C14   H8    S    
Cu1   O2    S    
C2    O2    A    
C33   C34   A    
C13   H7    S    
C17   C18   A    
C7    O5    A    
C1    O1    A    
C30   C31   A    
Cu2   O4    S    
C13   C14   A    
C7    C11   S    
C5    C23   S    
C30   H18   S    
C4    N2    A    
C8    O6    A    
C33   H21   S    
C26   H15   S    
C10   C12   A    
C21   C22   A    
C24   C25   A    
Cu2   O8    S    
C9    C16   S    
C12   C14   A    
C31   H19   S    
C26   C27   A    
C10   C15   S    
C9    C11   A    
C16   H2    S    
C24   H13   S    
C4    H12   S    
C15   H1    S    
Cu2   O3    S    
C32   C33   A    
C32   H20   S    
C15   C16   S    
C11   C13   A    
C17   C20   A    
C27   C28   A    
C1    O3    A    
C4    C6    A    
C27   H16   S    
C28   H17   S    
C2    O4    A    
C29   C34   A    
C25   C26   A    
C7    O7    A    
C34   H22   S    
C18   C19   A    
C1    C20   S    
C6    N1    A    
C8    O8    A    
C5    N1    A    
C3    C5    A    
C29   C30   A    
C21   H9    S    
Cu2   O7    S    
C3    H11   S    
C22   H10   S    
C25   H14   S    
C2    C19   S    
C20   C22   A    
C31   C32   A    
Cu1   O1    S    
Cu1   N1    S    
