data_mof_unit_13910.cif
_audit_creation_date              2012-12-11T14:44:33-0500
_audit_creation_method            fapswitch 2.2
_symmetry_space_group_name_H-M    P1
_symmetry_Int_Tables_number       1
_space_group_crystal_system       triclinic
_cell_length_a                    20.25103
_cell_length_b                    7.287748
_cell_length_c                    19.157898
_cell_angle_alpha                 89.999858
_cell_angle_beta                  98.19117
_cell_angle_gamma                 89.999972
_cell_volume                      2798.56230634

loop_
_atom_site_label
_atom_site_type_symbol
_atom_type_description
_atom_site_fract_x
_atom_site_fract_y
_atom_site_fract_z
_atom_type_partial_charge
O1    O     O_R   0.673210 0.377390 0.686390 -0.529901
O2    O     O_R   0.326790 0.622610 0.313610 -0.529601
O3    O     O_R   0.826790 0.877390 0.813610 -0.529901
O4    O     O_R   0.173210 0.122610 0.186390 -0.529601
O5    O     O_R   0.810750 0.706450 0.681250 -0.549044
O6    O     O_R   0.189250 0.293550 0.318750 -0.550081
O7    O     O_R   0.689250 0.206450 0.818750 -0.549044
O8    O     O_R   0.310750 0.793550 0.181250 -0.550081
C1    C     C_R   0.831116 0.538986 0.666014 0.740736
C2    C     C_R   0.169044 0.461094 0.334070 0.743800
C3    C     C_R   0.668883 0.038985 0.833985 0.740737
C4    C     C_R   0.330955 0.961094 0.165930 0.743800
O9    O     O_R   0.672750 0.707060 0.678240 -0.553253
O10   O     O_R   0.327250 0.292940 0.321760 -0.552284
O11   O     O_R   0.827250 0.207060 0.821760 -0.553252
O12   O     O_R   0.172750 0.792940 0.178240 -0.552284
O13   O     O_R   0.687800 0.877990 0.810580 -0.511706
O14   O     O_R   0.312200 0.122010 0.189420 -0.512468
O15   O     O_R   0.812200 0.377990 0.689420 -0.511706
O16   O     O_R   0.187800 0.622010 0.310580 -0.512468
C5    C     C_R   0.648784 0.538438 0.662155 0.833165
C6    C     C_R   0.351272 0.461530 0.337945 0.832953
C7    C     C_R   0.851216 0.038438 0.837845 0.833166
C8    C     C_R   0.148728 0.961530 0.162055 0.832953
O17   O     O_3   0.755100 0.544060 0.793420 -0.384351
O18   O     O_3   0.244900 0.455940 0.206580 -0.385379
O19   O     O_3   0.744900 0.044060 0.706580 -0.384351
O20   O     O_3   0.255100 0.955940 0.293420 -0.385378
V1    V     V_3+5 0.749050 0.818670 0.741950 1.501604
V2    V     V_3+5 0.250950 0.181330 0.258050 1.494164
V3    V     V_3+5 0.750950 0.318670 0.758050 1.501603
V4    V     V_3+5 0.249050 0.681330 0.241950 1.494165
C9    C     C_R   0.087332 0.973620 0.109956 -0.152641
C10   C     C_R   0.912563 0.025868 0.889713 -0.153937
C11   C     C_R   0.412668 0.473619 0.390044 -0.152641
C12   C     C_R   0.587437 0.525868 0.610287 -0.153937
C13   C     C_R   0.033194 0.004278 0.913914 -0.298535
C14   C     C_R   0.966638 0.993892 0.085387 -0.297721
C15   C     C_R   0.466806 0.504279 0.586086 -0.298535
C16   C     C_R   0.533362 0.493891 0.414613 -0.297720
C17   C     C_R   0.974308 0.014745 0.864368 0.368314
C18   C     C_R   0.025438 0.986373 0.135164 0.373316
C19   C     C_R   0.525692 0.514747 0.635632 0.368313
C20   C     C_R   0.474562 0.486372 0.364836 0.373317
C21   C     C_R   0.909040 0.019729 0.963011 -0.082524
C22   C     C_R   0.090842 0.976476 0.036471 -0.093628
C23   C     C_R   0.590960 0.519728 0.536989 -0.082523
C24   C     C_R   0.409158 0.476476 0.463529 -0.093630
C25   C     C_R   0.968643 0.002933 0.012072 0.047523
C26   C     C_R   0.031261 0.993357 0.987308 0.046670
C27   C     C_R   0.531357 0.502933 0.487928 0.047524
C28   C     C_R   0.468739 0.493357 0.512692 0.046671
H1    H     H_    0.080894 0.008232 0.895317 0.103489
H2    H     H_    0.918789 0.991579 0.103600 0.100300
H3    H     H_    0.419106 0.508233 0.604684 0.103490
H4    H     H_    0.581210 0.491577 0.396400 0.100300
C29   C     C_R   0.552612 0.961714 0.857022 0.367132
C30   C     C_R   0.447021 0.038575 0.142962 0.361660
C31   C     C_R   0.947388 0.461717 0.642978 0.367127
C32   C     C_R   0.052979 0.538573 0.357038 0.361659
C33   C     C_R   0.617218 0.032162 0.880781 -0.175951
C34   C     C_R   0.382470 0.968505 0.119133 -0.176610
C35   C     C_R   0.882781 0.532162 0.619219 -0.175946
C36   C     C_R   0.117530 0.468505 0.380867 -0.176610
C37   C     C_R   0.633268 0.094965 0.950302 -0.206446
C38   C     C_R   0.366186 0.908025 0.049468 -0.195928
C39   C     C_R   0.866731 0.594962 0.549697 -0.206447
C40   C     C_R   0.133814 0.408028 0.450532 -0.195926
C41   C     C_R   0.587612 0.079328 0.998720 0.019530
C42   C     C_R   0.411864 0.923602 0.001094 0.026481
C43   C     C_R   0.912388 0.579325 0.501280 0.019529
C44   C     C_R   0.088137 0.423605 0.498907 0.026485
C45   C     C_R   0.523189 0.008320 0.975837 -0.037244
C46   C     C_R   0.476435 0.993076 0.024074 -0.044054
C47   C     C_R   0.976811 0.508319 0.524162 -0.037243
C48   C     C_R   0.023565 0.493075 0.475926 -0.044054
C49   C     C_R   0.505357 0.952778 0.904777 -0.004098
C50   C     C_R   0.494031 0.049617 0.095049 -0.012307
C51   C     C_R   0.994644 0.452780 0.595223 -0.004098
C52   C     C_R   0.005968 0.549614 0.404950 -0.012308
C53   C     C_R   0.605515 0.130334 0.069974 0.399848
C54   C     C_R   0.393620 0.872515 0.930028 0.406258
C55   C     C_R   0.894484 0.630328 0.430025 0.399848
C56   C     C_R   0.106381 0.372522 0.569972 0.406259
C57   C     C_R   0.558612 0.116824 0.116965 -0.259818
C58   C     C_R   0.440063 0.890356 0.882436 -0.275887
C59   C     C_R   0.941387 0.616818 0.383034 -0.259817
C60   C     C_R   0.059938 0.390362 0.617565 -0.275885
H5    H     H_    0.682679 0.150050 0.967146 0.189365
H6    H     H_    0.316781 0.852834 0.032722 0.194100
H7    H     H_    0.817320 0.650045 0.532852 0.189364
H8    H     H_    0.183219 0.352838 0.467279 0.194101
H9    H     H_    0.573491 0.159353 0.171070 0.176248
H10   H     H_    0.424383 0.857665 0.827471 0.167633
H11   H     H_    0.926508 0.659346 0.328929 0.176249
H12   H     H_    0.075618 0.357674 0.672530 0.167631
C61   C     C_2   0.156851 0.960293 0.011302 0.318269
H13   H     H_    0.162890 0.871035 0.967330 0.064828
O21   O     O_2   0.204684 0.049479 0.038580 -0.541061
C62   C     C_2   0.842931 0.034252 0.987980 0.304811
H14   H     H_    0.836374 0.125425 0.031114 0.056439
O22   O     O_2   0.795628 0.942233 0.961246 -0.546547
C63   C     C_2   0.343149 0.460294 0.488698 0.318271
H15   H     H_    0.337110 0.371037 0.532671 0.064829
O23   O     O_2   0.295316 0.549480 0.461420 -0.541060
C64   C     C_2   0.657068 0.534250 0.512020 0.304809
H16   H     H_    0.663626 0.625423 0.468886 0.056440
O24   O     O_2   0.704372 0.442230 0.538754 -0.546548
O25   O     O_3   0.026738 0.989369 0.208706 -0.551317
C65   C     C_3   0.963733 0.008651 0.231804 0.119490
H17   H     H_    0.933473 0.882599 0.219249 0.135929
H18   H     H_    0.936412 0.130423 0.207789 0.105612
C66   C     C_3   0.972923 0.036232 0.311521 -0.670523
H19   H     H_    0.991972 0.175584 0.325796 0.191309
H20   H     H_    0.924203 0.020178 0.331108 0.184817
H21   H     H_    0.008783 0.935108 0.338297 0.261873
O26   O     O_3   0.972936 0.022605 0.790932 -0.546437
C67   C     C_3   0.034032 0.980344 0.766865 0.130833
H22   H     H_    0.056538 0.853159 0.791553 0.104317
H23   H     H_    0.069608 0.096392 0.777886 0.125761
C68   C     C_3   0.021935 0.949052 0.687339 -0.677546
H24   H     H_    0.003609 0.075901 0.659496 0.250703
H25   H     H_    0.068958 0.905481 0.668790 0.152287
H26   H     H_    0.984009 0.841392 0.672896 0.209993
O27   O     O_3   0.473262 0.489369 0.291294 -0.551317
C69   C     C_3   0.536267 0.508652 0.268196 0.119488
H27   H     H_    0.566527 0.382601 0.280751 0.135929
H28   H     H_    0.563587 0.630424 0.292211 0.105613
C70   C     C_3   0.527077 0.536235 0.188479 -0.670522
H29   H     H_    0.508028 0.675587 0.174204 0.191309
H30   H     H_    0.575796 0.520182 0.168892 0.184817
H31   H     H_    0.491217 0.435112 0.161703 0.261873
O28   O     O_3   0.527064 0.522611 0.709067 -0.546435
C71   C     C_3   0.465969 0.480337 0.733135 0.130833
H32   H     H_    0.443466 0.353151 0.708447 0.104316
H33   H     H_    0.430390 0.596380 0.722116 0.125758
C72   C     C_3   0.478068 0.449042 0.812661 -0.677546
H34   H     H_    0.496386 0.575897 0.840505 0.250696
H35   H     H_    0.431047 0.405446 0.831211 0.152289
H36   H     H_    0.516001 0.341399 0.827104 0.209998
O29   O     O_3   0.537149 0.879332 0.791082 -0.548685
C73   C     C_3   0.541102 0.003178 0.734829 0.143400
H37   H     H_    0.582693 0.960466 0.706504 0.149231
H38   H     H_    0.550381 0.147960 0.751231 0.103263
C74   C     C_3   0.476811 0.994736 0.683010 -0.741468
H39   H     H_    0.433423 0.026856 0.710356 0.207232
H40   H     H_    0.478998 0.094956 0.639740 0.183833
H41   H     H_    0.469945 0.856239 0.659479 0.235978
O30   O     O_3   0.463126 0.114711 0.209939 -0.552954
C75   C     C_3   0.458916 0.985081 0.264256 0.128558
H42   H     H_    0.451392 0.841238 0.245574 0.121456
H43   H     H_    0.416227 0.021658 0.292018 0.147395
C76   C     C_3   0.522150 0.993240 0.317578 -0.741029
H44   H     H_    0.526991 0.129664 0.343250 0.230632
H45   H     H_    0.519989 0.888089 0.359109 0.189001
H46   H     H_    0.566524 0.967659 0.290947 0.206912
O31   O     O_3   0.962851 0.379339 0.708919 -0.548688
C77   C     C_3   0.958897 0.503186 0.765170 0.143391
H47   H     H_    0.917305 0.460475 0.793494 0.149230
H48   H     H_    0.949619 0.647968 0.748768 0.103273
C78   C     C_3   0.023187 0.494744 0.816992 -0.741468
H49   H     H_    0.066576 0.526860 0.789647 0.207233
H50   H     H_    0.020999 0.594966 0.860260 0.183836
H51   H     H_    0.030052 0.356247 0.840524 0.235975
O32   O     O_3   0.036874 0.614708 0.290060 -0.552954
C79   C     C_3   0.041084 0.485079 0.235744 0.128557
H52   H     H_    0.048607 0.341236 0.254425 0.121458
H53   H     H_    0.083773 0.521655 0.207982 0.147395
C80   C     C_3   0.977850 0.493239 0.182421 -0.741028
H54   H     H_    0.973010 0.629663 0.156749 0.230632
H55   H     H_    0.980012 0.388088 0.140890 0.189002
H56   H     H_    0.933476 0.467657 0.209051 0.206912
O33   O     O_3   0.667473 0.205781 0.093235 -0.555164
C81   C     C_3   0.708290 0.071253 0.131030 0.096420
H57   H     H_    0.724952 0.970139 0.093643 0.151698
H58   H     H_    0.682265 0.996837 0.170106 0.107658
C82   C     C_3   0.769462 0.163547 0.171634 -0.733824
H59   H     H_    0.754050 0.259035 0.211542 0.221527
H60   H     H_    0.803339 0.058119 0.199015 0.167307
H61   H     H_    0.796727 0.242186 0.135159 0.220510
O34   O     O_3   0.328082 0.823637 0.906249 -0.553525
C83   C     C_3   0.325394 0.641564 0.880807 0.079505
H62   H     H_    0.357514 0.547608 0.917071 0.124402
H63   H     H_    0.340788 0.636612 0.827414 0.121038
C84   C     C_3   0.253892 0.572618 0.874919 -0.684845
H64   H     H_    0.220379 0.661501 0.838401 0.213114
H65   H     H_    0.250884 0.429969 0.854306 0.187273
H66   H     H_    0.237044 0.574179 0.927620 0.221418
O35   O     O_3   0.832526 0.705772 0.406763 -0.555164
C85   C     C_3   0.791710 0.571242 0.368970 0.096420
H67   H     H_    0.775047 0.470131 0.406359 0.151700
H68   H     H_    0.817735 0.496821 0.329895 0.107658
C86   C     C_3   0.730537 0.663531 0.328364 -0.733828
H69   H     H_    0.745949 0.759015 0.288455 0.221527
H70   H     H_    0.696660 0.558102 0.300985 0.167307
H71   H     H_    0.703272 0.742175 0.364837 0.220510
O36   O     O_3   0.171920 0.323655 0.593752 -0.553524
C87   C     C_3   0.174612 0.141590 0.619201 0.079508
H72   H     H_    0.142493 0.047622 0.582941 0.124403
H73   H     H_    0.159220 0.136648 0.672595 0.121038
C88   C     C_3   0.246116 0.072650 0.625088 -0.684865
H74   H     H_    0.279628 0.161551 0.661597 0.213119
H75   H     H_    0.249128 0.930014 0.645712 0.187273
H76   H     H_    0.262960 0.074187 0.572386 0.221418

loop_
_geom_bond_atom_site_label_1
_geom_bond_atom_site_label_2
_ccdc_geom_bond_type
O17   V3    S    
C55   C59   A    
C60   H12   S    
C30   C34   A    
C85   H67   S    
O19   V1    S    
O13   V1    S    
C88   H74   S    
O1    C5    A    
O3    C7    A    
C44   C48   A    
O15   V3    S    
C74   H41   S    
C71   C72   S    
C19   O28   S    
C78   H49   S    
C38   H6    S    
C14   C25   A    
O33   C81   S    
C37   H5    S    
C6    C11   S    
C72   H35   S    
C54   O34   S    
O32   C79   S    
C9    C18   A    
C36   C40   A    
O9    V1    S    
C18   O25   S    
C14   C18   A    
C52   C59   A    
C42   C46   A    
O16   V4    S    
O4    C8    A    
C82   H61   S    
C84   H65   S    
C64   H16   S    
C61   H13   S    
O1    V3    S    
C12   C23   A    
O2    V4    S    
C80   H54   S    
O3    V1    S    
C67   H22   S    
C68   H26   S    
C58   H10   S    
C85   C86   S    
C78   H50   S    
C81   H57   S    
C57   H9    S    
C1    O15   A    
O31   C77   S    
C15   H3    S    
C40   H8    S    
C2    O16   A    
C16   H4    S    
C75   C76   S    
C59   H11   S    
O2    C6    A    
C69   H28   S    
C41   C45   A    
C87   H72   S    
O14   V2    S    
C76   H45   S    
O25   C65   S    
C16   C20   A    
C43   C55   A    
C77   C78   S    
C30   O30   S    
C40   C44   A    
C66   H21   S    
C13   H1    S    
C7    C10   S    
O11   C7    A    
C15   C28   A    
C73   H38   S    
O12   C8    A    
C86   H69   S    
C77   H48   S    
C9    C22   A    
C88   H75   S    
C73   C74   S    
C79   H52   S    
O35   C85   S    
C10   C17   A    
O10   V2    S    
C11   C24   A    
C39   H7    S    
C51   C60   A    
C74   H40   S    
C74   H39   S    
O5    V1    S    
C45   C46   A    
C72   H36   S    
C35   C39   A    
C20   O27   S    
O7    V3    S    
C34   C38   A    
C27   C28   A    
O8    V4    S    
C29   C49   A    
C79   H53   S    
C61   O21   D    
C31   C51   A    
C5    C12   S    
O18   V4    S    
C84   H66   S    
C23   C27   A    
C69   C70   S    
C82   H60   S    
O34   C83   S    
C24   C63   S    
O4    V2    S    
C65   H17   S    
C83   C84   S    
C86   H70   S    
C77   H47   S    
O7    C3    A    
C47   C48   A    
O5    C1    A    
O28   C71   S    
C4    C34   S    
C14   H2    S    
C21   C25   A    
O8    C4    A    
C23   C64   S    
C87   C88   S    
C62   O22   D    
O9    C5    A    
C63   O23   D    
C10   C21   A    
C76   H46   S    
O11   V3    S    
C11   C20   A    
C65   C66   S    
C68   H24   S    
C44   C56   A    
C81   C82   S    
C67   H23   S    
C50   C57   A    
O6    V2    S    
C22   C61   S    
C49   C58   A    
C82   H59   S    
O29   C73   S    
O27   C69   S    
C80   H56   S    
C75   H43   S    
C78   H51   S    
C66   H19   S    
C80   H55   S    
C3    O13   A    
C85   H68   S    
C83   H63   S    
C32   C52   A    
C1    C35   S    
C55   O35   S    
C2    C36   S    
C48   C52   A    
C3    C33   S    
C21   C62   S    
O6    C2    A    
C15   C19   A    
C29   C33   A    
C71   H32   S    
C32   O32   S    
C56   O36   S    
O12   V4    S    
C16   C27   A    
C72   H34   S    
C22   C26   A    
C31   C35   A    
C8    C9    S    
C75   H42   S    
C29   O29   S    
C32   C36   A    
C70   H31   S    
O20   V2    S    
C70   H29   S    
C54   C58   A    
O30   C75   S    
C86   H71   S    
C43   C47   A    
C13   C26   A    
C31   O31   S    
O10   C6    A    
C84   H64   S    
C38   C42   A    
C56   C60   A    
C64   O24   D    
C69   H27   S    
C37   C41   A    
C70   H30   S    
C62   H14   S    
C88   H76   S    
C81   H58   S    
C71   H33   S    
C39   C43   A    
C13   C17   A    
O36   C87   S    
C42   C54   A    
C65   H18   S    
C68   H25   S    
C41   C53   A    
C30   C50   A    
C33   C37   A    
C24   C28   A    
C79   C80   S    
C25   C26   A    
C46   C50   A    
C4    O14   A    
C63   H15   S    
C45   C49   A    
C73   H37   S    
C12   C19   A    
C87   H73   S    
C17   O26   S    
C76   H44   S    
O26   C67   S    
C47   C51   A    
C67   C68   S    
C53   C57   A    
C83   H62   S    
C53   O33   S    
C66   H20   S    
