data_mof_unit_39460.cif
_audit_creation_date              2012-12-10T20:57:12-0500
_audit_creation_method            fapswitch 2.2
_symmetry_space_group_name_H-M    P1
_symmetry_Int_Tables_number       1
_space_group_crystal_system       triclinic
_cell_length_a                    15.808686
_cell_length_b                    15.083698
_cell_length_c                    14.92469
_cell_angle_alpha                 90.184477
_cell_angle_beta                  90.804733
_cell_angle_gamma                 89.862652
_cell_volume                      3558.46444436

loop_
_atom_site_label
_atom_site_type_symbol
_atom_type_description
_atom_site_fract_x
_atom_site_fract_y
_atom_site_fract_z
_atom_type_partial_charge
C1    C     C_R   0.338900 0.500238 0.500242 0.918902
C2    C     C_R   0.661119 0.499881 0.499618 0.915856
C3    C     C_R   0.343204 0.528984 0.044185 0.510493
C4    C     C_R   0.655289 0.526775 0.955897 0.494490
C5    C     C_R   0.954562 0.566137 0.436546 0.100500
C6    C     C_R   0.045560 0.422667 0.512717 0.118325
C7    C     C_R   0.043103 0.565656 0.433693 0.154823
C8    C     C_R   0.957042 0.423575 0.515832 0.131471
C9    C     C_R   0.912827 0.496040 0.479259 -0.014440
C10   C     C_R   0.087330 0.495236 0.474703 -0.003187
C11   C     C_1   0.823775 0.498113 0.485941 0.013633
C12   C     C_1   0.176093 0.499962 0.485067 0.029543
C13   C     C_1   0.250690 0.500912 0.493507 -0.197964
C14   C     C_1   0.749212 0.499370 0.492762 -0.184493
C15   C     C_R   0.448976 0.951949 0.435807 0.347475
C16   C     C_R   0.538098 0.047113 0.569650 0.341884
C17   C     C_R   0.541251 0.952941 0.567651 0.312702
C18   C     C_R   0.450278 0.046372 0.434784 0.348812
C19   C     C_R   0.496099 0.904729 0.501505 -0.280953
C20   C     C_R   0.495842 0.094664 0.500956 -0.270795
C21   C     C_1   0.498802 0.806954 0.500731 0.202485
C22   C     C_1   0.498168 0.192847 0.499845 0.220238
C23   C     C_R   0.498547 0.500110 0.326740 0.964781
C24   C     C_R   0.501455 0.500215 0.673314 0.957078
C25   C     C_R   0.577145 0.499344 0.815705 0.418303
C26   C     C_R   0.421759 0.504760 0.185517 0.383321
C27   C     C_R   0.499926 0.501716 0.768691 -0.274844
C28   C     C_R   0.499297 0.502100 0.231457 -0.247634
C29   C     C_R   0.422521 0.513489 0.811438 0.122226
C30   C     C_R   0.576685 0.510172 0.188084 0.121547
C31   C     C_R   0.422145 0.518872 0.904907 0.066737
C32   C     C_R   0.576480 0.518289 0.094992 0.070777
C33   C     C_R   0.499713 0.518968 0.953255 -0.083506
C34   C     C_R   0.498782 0.518874 0.046864 -0.079466
C35   C     C_R   0.578146 0.515705 0.908035 -0.053912
C36   C     C_R   0.420437 0.517885 0.092329 -0.071814
C37   C     C_R   0.345388 0.524352 0.950322 -0.348115
C38   C     C_R   0.652775 0.528462 0.049745 -0.342923
H1    H     H_    0.287423 0.524039 0.911699 0.183927
H2    H     H_    0.710282 0.537904 0.088272 0.187800
N1    N     N_1   0.500000 0.270550 0.500000 -0.114693
N2    N     N_1   0.500000 0.729450 0.500000 -0.122352
O1    O     O_R   0.378020 0.573650 0.500030 -0.623383
O2    O     O_R   0.621980 0.426350 0.499970 -0.612678
O3    O     O_R   0.621980 0.573650 0.499970 -0.614840
O4    O     O_R   0.378020 0.426350 0.500030 -0.617872
O5    O     O_R   0.499980 0.573670 0.367860 -0.622823
O6    O     O_R   0.500020 0.426330 0.632140 -0.650638
O7    O     O_R   0.500020 0.573670 0.632140 -0.603431
O8    O     O_R   0.499980 0.426330 0.367860 -0.626716
Zn1   Zn    Zn3+2 0.500000 0.598370 0.500000 0.966235
Zn2   Zn    Zn3+2 0.500000 0.401630 0.500000 0.956945
O9    O     O_3   0.651376 0.479816 0.770959 -0.608674
C39   C     C_3   0.656890 0.387003 0.755569 0.109597
H3    H     H_    0.679636 0.376563 0.686219 0.172431
H4    H     H_    0.595212 0.351641 0.760084 0.130183
C40   C     C_3   0.720142 0.344471 0.821022 -0.364600
H5    H     H_    0.784089 0.371910 0.809451 0.225430
H6    H     H_    0.701739 0.359549 0.890926 0.219328
C41   C     C_3   0.722853 0.243993 0.809631 -0.961663
H7    H     H_    0.661912 0.214997 0.830714 0.266074
H8    H     H_    0.774258 0.215989 0.852444 0.263566
H9    H     H_    0.734618 0.225598 0.738778 0.279329
O10   O     O_3   0.347644 0.496004 0.233229 -0.617399
C42   C     C_3   0.321418 0.406396 0.229534 0.137139
H10   H     H_    0.359333 0.366628 0.278315 0.146898
H11   H     H_    0.328563 0.376799 0.161359 0.134005
C43   C     C_3   0.228064 0.401335 0.254070 -0.310309
H12   H     H_    0.220070 0.426702 0.323044 0.216003
H13   H     H_    0.189571 0.442974 0.207727 0.254035
C44   C     C_3   0.195515 0.306622 0.249663 -1.015883
H14   H     H_    0.203071 0.278647 0.181302 0.275359
H15   H     H_    0.127439 0.305397 0.266960 0.274831
H16   H     H_    0.231182 0.265691 0.298749 0.270796
N3    N     N_2   0.344972 0.515892 0.760947 -0.312450
H17   H     H_    0.342422 0.473758 0.706436 0.224241
C45   C     C_3   0.314014 0.604023 0.740487 -0.778015
H18   H     H_    0.357628 0.638223 0.694392 0.261612
H19   H     H_    0.307673 0.644031 0.802647 0.244552
H20   H     H_    0.250782 0.599222 0.707514 0.234114
N4    N     N_2   0.654715 0.508968 0.237703 -0.316830
H21   H     H_    0.654525 0.544444 0.296848 0.228945
C46   C     C_3   0.692170 0.421878 0.247542 -0.797986
H22   H     H_    0.650894 0.378708 0.288212 0.261161
H23   H     H_    0.754623 0.427669 0.281962 0.235680
H24   H     H_    0.701904 0.390846 0.180851 0.246667
O11   O     O_3   0.268663 0.540564 0.092632 -0.623098
C47   C     C_3   0.198674 0.577756 0.045695 0.073546
H25   H     H_    0.144547 0.576802 0.092373 0.165849
H26   H     H_    0.177417 0.535882 0.988482 0.124853
C48   C     C_3   0.213528 0.674997 0.019812 -0.371862
H27   H     H_    0.227330 0.714392 0.081215 0.229296
H28   H     H_    0.268339 0.680962 0.974653 0.219376
C49   C     C_3   0.135867 0.714013 0.972517 -0.954021
H29   H     H_    0.120829 0.675742 0.910615 0.267065
H30   H     H_    0.148605 0.783862 0.953828 0.266235
H31   H     H_    0.080563 0.712794 0.017537 0.265300
O12   O     O_3   0.728676 0.546004 0.908344 -0.594073
C50   C     C_3   0.804737 0.516062 0.949822 0.082642
H32   H     H_    0.845596 0.488797 0.896427 0.157962
H33   H     H_    0.795537 0.460213 0.997402 0.110567
C51   C     C_3   0.852377 0.594011 0.993216 -0.326560
H34   H     H_    0.873680 0.639856 0.939947 0.226952
H35   H     H_    0.810195 0.632074 0.038109 0.221581
C52   C     C_3   0.929274 0.562111 0.047186 -1.000709
H36   H     H_    0.909301 0.516813 0.101458 0.269914
H37   H     H_    0.961951 0.619834 0.078213 0.262251
H38   H     H_    0.974343 0.526971 0.002920 0.264035
N5    N     N_2   0.087456 0.638717 0.395694 -0.300571
H39   H     H_    0.054799 0.697971 0.395170 0.249930
C53   C     C_3   0.128619 0.620495 0.311481 -0.776427
H40   H     H_    0.085277 0.585259 0.264314 0.229462
H41   H     H_    0.186413 0.580307 0.322854 0.269080
H42   H     H_    0.148120 0.683679 0.279990 0.237741
N6    N     N_2   0.911832 0.351341 0.553671 -0.290985
H43   H     H_    0.937758 0.289723 0.541712 0.232284
C54   C     C_3   0.888046 0.363951 0.646104 -0.804188
H44   H     H_    0.945117 0.370700 0.689813 0.225010
H45   H     H_    0.851354 0.305717 0.668476 0.245439
H46   H     H_    0.847902 0.423951 0.653456 0.263280
N7    N     N_2   0.908184 0.638448 0.398668 -0.310781
H47   H     H_    0.859717 0.661484 0.438074 0.231478
C55   C     C_3   0.881870 0.625239 0.306389 -0.773307
H48   H     H_    0.850718 0.686379 0.280903 0.239541
H49   H     H_    0.836207 0.569577 0.301109 0.244460
H50   H     H_    0.937262 0.610885 0.263878 0.251003
N8    N     N_2   0.093345 0.352461 0.553058 -0.293032
H51   H     H_    0.066825 0.324159 0.608715 0.233019
C56   C     C_3   0.125696 0.287554 0.490683 -0.817959
H52   H     H_    0.072730 0.254095 0.454515 0.232649
H53   H     H_    0.163305 0.236903 0.527659 0.234985
H54   H     H_    0.167766 0.319624 0.441719 0.264461
O13   O     O_3   0.409977 0.091432 0.365760 -0.604337
C57   C     C_3   0.322110 0.097026 0.382266 0.114231
H55   H     H_    0.307279 0.165575 0.404717 0.133250
H56   H     H_    0.299501 0.051181 0.435491 0.098752
C58   C     C_3   0.273409 0.077435 0.295101 -0.305483
H57   H     H_    0.287193 0.129601 0.245071 0.220232
H58   H     H_    0.294863 0.013170 0.266731 0.253129
C59   C     C_3   0.178176 0.072960 0.310331 -1.006508
H59   H     H_    0.162972 0.016089 0.354296 0.258742
H60   H     H_    0.144658 0.063836 0.245097 0.275128
H61   H     H_    0.155081 0.134900 0.342116 0.274580
O14   O     O_3   0.585448 0.907925 0.634005 -0.626510
C60   C     C_3   0.668524 0.891633 0.604352 0.110376
H62   H     H_    0.705179 0.954598 0.604460 0.165531
H63   H     H_    0.668747 0.862431 0.535534 0.129784
C61   C     C_3   0.711502 0.825880 0.668119 -0.305004
H64   H     H_    0.714999 0.855062 0.736559 0.226688
H65   H     H_    0.673300 0.764159 0.670888 0.245430
C62   C     C_3   0.800606 0.802556 0.637623 -0.965833
H66   H     H_    0.798297 0.771102 0.570218 0.261825
H67   H     H_    0.830026 0.755122 0.685592 0.275680
H68   H     H_    0.840361 0.863101 0.635185 0.261471
O15   O     O_3   0.582327 0.092968 0.635592 -0.627753
C63   C     C_3   0.536018 0.092930 0.716169 0.132291
H69   H     H_    0.582585 0.094199 0.772467 0.168204
H70   H     H_    0.497279 0.032013 0.725913 0.144341
C64   C     C_3   0.479496 0.175473 0.721379 -0.390531
H71   H     H_    0.515968 0.234652 0.700999 0.243641
H72   H     H_    0.424875 0.167815 0.674357 0.206564
C65   C     C_3   0.446275 0.190228 0.815749 -0.961326
H73   H     H_    0.408942 0.131990 0.837367 0.266622
H74   H     H_    0.404865 0.249809 0.816421 0.271852
H75   H     H_    0.499615 0.201158 0.863721 0.261718
O16   O     O_3   0.408510 0.907020 0.366201 -0.581514
C66   C     C_3   0.335742 0.862069 0.397231 0.078005
H76   H     H_    0.278431 0.901386 0.380201 0.143461
H77   H     H_    0.334909 0.851708 0.471210 0.074847
C67   C     C_3   0.328471 0.771086 0.351894 -0.304741
H78   H     H_    0.386547 0.731665 0.365446 0.245505
H79   H     H_    0.274215 0.734810 0.380752 0.189576
C68   C     C_3   0.315243 0.778426 0.250721 -0.818105
H80   H     H_    0.255988 0.815352 0.235156 0.232194
H81   H     H_    0.310436 0.710828 0.221407 0.264543
H82   H     H_    0.369494 0.812836 0.219770 0.289773

loop_
_geom_bond_atom_site_label_1
_geom_bond_atom_site_label_2
_ccdc_geom_bond_type
C7    C10   A    
C38   H2    S    
O11   C47   S    
C4    O12   S    
C27   C29   A    
N6    C54   S    
C47   H26   S    
C15   C18   A    
C53   H40   S    
C24   C27   S    
C57   C58   S    
C60   H62   S    
C55   H48   S    
C66   H77   S    
C68   H80   S    
C15   C19   A    
C58   H58   S    
C51   C52   S    
C41   H9    S    
C63   H69   S    
C19   C21   S    
C25   O9    S    
C6    N8    S    
C65   H73   S    
C54   H45   S    
C11   C14   T    
C1    O4    A    
C40   H6    S    
C22   N1    T    
C67   H78   S    
O3    Zn1   S    
N6    H43   S    
O4    Zn2   S    
C18   O13   S    
C41   H8    S    
C62   H68   S    
C26   O10   S    
C8    N6    S    
C60   H63   S    
C43   H12   S    
C1    O1    A    
O5    Zn1   S    
C64   H71   S    
C2    O2    A    
C16   C17   A    
C42   H11   S    
O8    Zn2   S    
C62   H66   S    
C61   C62   S    
C15   O16   S    
C32   C38   A    
N1    Zn2   S    
C34   C36   A    
C45   H18   S    
N2    Zn1   S    
C56   H54   S    
C47   H25   S    
O2    Zn2   S    
C68   H81   S    
C4    C35   A    
C49   H29   S    
N4    C46   S    
N4    H21   S    
C66   C67   S    
C65   H74   S    
C45   H19   S    
C2    O3    A    
C58   C59   S    
C39   H4    S    
O15   C63   S    
C23   O5    A    
C3    O11   S    
C24   O6    A    
C61   H64   S    
C54   H46   S    
C66   H76   S    
C5    C7    A    
C8    C9    A    
C55   H50   S    
C57   H56   S    
C49   H31   S    
O7    Zn1   S    
O9    C39   S    
C31   C37   A    
C41   H7    S    
C32   C34   A    
C49   H30   S    
N3    H17   S    
N8    C56   S    
C5    C9    A    
C48   H28   S    
C65   H75   S    
C52   H37   S    
C46   H22   S    
C47   C48   S    
O6    Zn2   S    
C16   C20   A    
C42   C43   S    
C46   H24   S    
C16   O15   S    
C31   C33   A    
C33   C34   A    
C64   C65   S    
C53   H41   S    
C23   C28   S    
C59   H59   S    
C59   H61   S    
C51   H35   S    
N3    C45   S    
N7    H47   S    
C10   C12   S    
C25   C35   A    
C26   C36   A    
C46   H23   S    
C4    C38   A    
O12   C50   S    
C9    C11   S    
O16   C66   S    
C1    C13   S    
C20   C22   S    
C17   C19   A    
N8    H51   S    
C48   H27   S    
C60   C61   S    
C44   H15   S    
C56   H52   S    
C52   H36   S    
C45   H20   S    
C24   O7    A    
C39   H3    S    
C5    N7    S    
C17   O14   S    
C50   H33   S    
C63   C64   S    
C61   H65   S    
O14   C60   S    
C23   O8    A    
C6    C10   A    
C44   H16   S    
C6    C8    A    
C68   H82   S    
C57   H55   S    
C29   N3    S    
C25   C27   A    
C58   H57   S    
C26   C28   A    
C50   H32   S    
O10   C42   S    
C30   N4    S    
C28   C30   A    
C64   H72   S    
C44   H14   S    
C37   H1    S    
C54   H44   S    
C48   C49   S    
C30   C32   A    
O1    Zn1   S    
C40   H5    S    
O13   C57   S    
C67   H79   S    
C3    C36   A    
C43   C44   S    
N5    C53   S    
C63   H70   S    
C33   C35   A    
C53   H42   S    
C18   C20   A    
C62   H67   S    
C51   H34   S    
C2    C14   S    
N7    C55   S    
C55   H49   S    
C21   N2    T    
C7    N5    S    
C40   C41   S    
C50   C51   S    
C12   C13   T    
C3    C37   A    
C29   C31   A    
C42   H10   S    
C52   H38   S    
C43   H13   S    
C59   H60   S    
N5    H39   S    
C67   C68   S    
C56   H53   S    
C39   C40   S    
