data_mof_unit_20449.cif
_audit_creation_date              2012-12-10T18:37:09-0500
_audit_creation_method            fapswitch 2.2
_symmetry_space_group_name_H-M    P1
_symmetry_Int_Tables_number       1
_space_group_crystal_system       triclinic
_cell_length_a                    15.01551
_cell_length_b                    15.498575
_cell_length_c                    23.395075
_cell_angle_alpha                 89.993732
_cell_angle_beta                  104.324833
_cell_angle_gamma                 82.715466
_cell_volume                      5229.81646783

loop_
_atom_site_label
_atom_site_type_symbol
_atom_type_description
_atom_site_fract_x
_atom_site_fract_y
_atom_site_fract_z
_atom_type_partial_charge
C1    C     C_R   0.442201 0.662001 0.490425 0.900084
C2    C     C_R   0.421462 0.478440 0.284563 -0.297180
C3    C     C_R   0.426441 0.543599 0.750527 0.530431
C4    C     C_R   0.417274 0.486015 0.224559 0.530863
C5    C     C_R   0.510443 0.516265 0.792697 0.181105
C6    C     C_R   0.486918 0.523263 0.206574 0.196039
C7    C     C_R   0.407854 0.753924 0.476697 -0.116764
C8    C     C_R   0.591368 0.246352 0.501876 -0.118594
C9    C     C_R   0.282624 0.872429 0.446030 0.472393
C10   C     C_R   0.711318 0.131125 0.491214 0.471999
C11   C     C_R   0.313046 0.784540 0.461679 -0.294793
C12   C     C_R   0.557809 0.337972 0.507133 0.907668
C13   C     C_R   0.684160 0.217784 0.503247 -0.293082
C14   C     C_R   0.472224 0.810672 0.475420 -0.252843
C15   C     C_R   0.526186 0.188480 0.489178 -0.240810
C16   C     C_R   0.500830 0.500994 0.610452 0.901797
C17   C     C_R   0.498304 0.501956 0.389279 0.902826
C18   C     C_R   0.444424 0.898325 0.459385 0.029064
C19   C     C_R   0.549847 0.103155 0.474343 0.031357
C20   C     C_R   0.348466 0.930193 0.446974 0.058933
C21   C     C_R   0.644456 0.072787 0.478482 0.058680
C22   C     C_R   0.510712 0.956021 0.460071 0.111709
C23   C     C_R   0.590094 0.484163 0.774553 -0.140944
C24   C     C_R   0.481747 0.046212 0.459185 0.112383
C25   C     C_R   0.385728 0.076588 0.443607 -0.237153
C26   C     C_R   0.604949 0.926848 0.462517 -0.249254
C27   C     C_R   0.320288 0.019250 0.436751 -0.204366
C28   C     C_R   0.670218 0.984765 0.470299 -0.200767
C29   C     C_R   0.848990 0.629399 0.591293 0.347380
C30   C     C_R   0.155078 0.368357 0.405504 0.344621
C31   C     C_R   0.756701 0.613955 0.573888 -0.020313
C32   C     C_R   0.245827 0.388050 0.423852 -0.005442
C33   C     C_R   0.792694 0.508738 0.506477 -0.084263
C34   C     C_R   0.556369 0.557607 0.248015 -0.167024
C35   C     C_R   0.205580 0.483640 0.495302 -0.081168
C36   C     C_R   0.885296 0.526258 0.518405 -0.063350
C37   C     C_R   0.114398 0.460945 0.481840 -0.057628
C38   C     C_R   0.914547 0.580616 0.566347 0.017220
C39   C     C_R   0.087919 0.409166 0.432500 0.013299
C40   C     C_R   0.510309 0.444883 0.121688 0.576427
C41   C     C_R   0.499914 0.596766 0.879638 0.565506
C42   C     C_R   0.951200 0.487888 0.487716 0.046692
C43   C     C_R   0.047557 0.492968 0.513161 0.052364
C44   C     C_R   0.073946 0.527860 0.569885 -0.037519
C45   C     C_R   0.586601 0.478344 0.714893 -0.207443
C46   C     C_R   0.926306 0.446184 0.432611 -0.028328
C47   C     C_R   0.008848 0.578716 0.592601 -0.214381
C48   C     C_R   0.994501 0.402776 0.408523 -0.220492
C49   C     C_R   0.475787 0.600102 0.114940 0.483008
C50   C     C_R   0.528844 0.441207 0.885683 0.469112
C51   C     C_R   0.482289 0.601083 0.056357 -0.011628
C52   C     C_R   0.526493 0.440693 0.944952 -0.015105
C53   C     C_R   0.502133 0.521376 0.030264 -0.020222
C54   C     C_R   0.508073 0.520531 0.971233 -0.022798
C55   C     C_R   0.515890 0.442448 0.063021 -0.041171
C56   C     C_R   0.558854 0.552027 0.307542 -0.195220
C57   C     C_R   0.495058 0.599442 0.938535 -0.041005
C58   C     C_R   0.469620 0.679420 0.023461 -0.157231
C59   C     C_R   0.540253 0.362416 0.978014 -0.153015
C60   C     C_R   0.476316 0.678627 0.965116 -0.156282
C61   C     C_R   0.535300 0.363306 0.036620 -0.159726
C62   C     C_3   0.146159 0.883518 0.376233 0.076232
C63   C     C_3   0.042736 0.914334 0.363764 -0.816225
C64   C     C_3   0.827952 0.132223 0.445146 0.080128
C65   C     C_3   0.928913 0.098601 0.448770 -0.795029
C66   C     C_1   0.314680 0.345489 0.396346 0.286471
C67   C     C_R   0.503459 0.505204 0.672860 -0.109190
C68   C     C_1   0.689467 0.659545 0.601421 0.303102
C69   C     C_3   0.875942 0.768750 0.608706 0.072449
C70   C     C_3   0.902988 0.833841 0.656475 -0.746542
C71   C     C_3   0.131302 0.230039 0.380173 0.082282
C72   C     C_3   0.114453 0.169065 0.328808 -0.798348
C73   C     C_1   0.161436 0.497248 0.610602 0.144031
C74   C     C_1   0.833463 0.451858 0.395180 0.119799
C75   C     C_3   0.305176 0.513666 0.786771 0.100403
C76   C     C_3   0.204585 0.548104 0.783718 -0.760539
C77   C     C_3   0.272457 0.516418 0.165268 0.064825
C78   C     C_R   0.493119 0.510144 0.326341 -0.109512
C79   C     C_3   0.198889 0.480894 0.117607 -0.757981
C80   C     C_R   0.424544 0.540076 0.690726 -0.259448
H1    H     H_    0.454555 0.741480 0.042655 0.192680
H2    H     H_    0.546191 0.301859 0.060999 0.193334
H3    H     H_    0.654572 0.463192 0.806884 0.171242
H4    H     H_    0.609391 0.587238 0.234049 0.169649
H5    H     H_    0.648609 0.452546 0.701539 0.170877
H6    H     H_    0.612597 0.580018 0.338842 0.184339
H7    H     H_    0.362022 0.565894 0.658244 0.182323
H8    H     H_    0.369098 0.447347 0.298144 0.189764
H9    H     H_    0.247583 0.045293 0.425839 0.182460
H10   H     H_    0.741539 0.959686 0.471899 0.183482
H11   H     H_    0.456714 0.210610 0.492567 0.169629
H12   H     H_    0.554604 0.300286 0.958711 0.193983
H13   H     H_    0.544830 0.786030 0.489603 0.170657
H14   H     H_    0.735488 0.262412 0.513344 0.172627
H15   H     H_    0.262504 0.740794 0.462493 0.175625
H16   H     H_    0.155338 0.812134 0.369266 0.144999
H17   H     H_    0.174931 0.917654 0.344297 0.141942
H18   H     H_    0.030705 0.985597 0.369322 0.249323
H19   H     H_    0.008226 0.899543 0.317775 0.213551
H20   H     H_    0.011904 0.880732 0.394636 0.258315
H21   H     H_    0.819986 0.204656 0.442352 0.145910
H22   H     H_    0.784402 0.107709 0.404195 0.145875
H23   H     H_    0.359507 0.144650 0.435196 0.146905
H24   H     H_    0.939394 0.026328 0.451150 0.262414
H25   H     H_    0.948340 0.121331 0.409038 0.197332
H26   H     H_    0.974368 0.123325 0.488626 0.262696
H27   H     H_    0.805812 0.793721 0.580676 0.135979
H28   H     H_    0.927149 0.764353 0.581187 0.148082
H29   H     H_    0.973311 0.811485 0.684730 0.255472
H30   H     H_    0.903306 0.898326 0.635872 0.216165
H31   H     H_    0.852463 0.840564 0.684278 0.261419
H32   H     H_    0.075264 0.228348 0.403495 0.143621
H33   H     H_    0.199071 0.205743 0.411058 0.125250
H34   H     H_    0.629645 0.859702 0.456817 0.142956
H35   H     H_    0.170825 0.167613 0.305621 0.267063
H36   H     H_    0.113027 0.102286 0.345281 0.200896
H37   H     H_    0.046930 0.191491 0.297275 0.260084
H38   H     H_    0.340087 0.494732 0.833465 0.145367
H39   H     H_    0.306217 0.454554 0.759635 0.156111
H40   H     H_    0.167168 0.568074 0.737561 0.256295
H41   H     H_    0.170202 0.496596 0.799248 0.207823
H42   H     H_    0.201165 0.605146 0.812199 0.260861
H43   H     H_    0.292698 0.574760 0.146301 0.158752
H44   H     H_    0.241716 0.536041 0.202807 0.143721
H45   H     H_    0.031562 0.609804 0.634306 0.190676
H46   H     H_    0.176091 0.423222 0.135238 0.264828
H47   H     H_    0.138081 0.531589 0.102689 0.204635
H48   H     H_    0.227409 0.461684 0.079273 0.256920
H49   H     H_    0.973616 0.368689 0.367819 0.193042
H50   H     H_    0.226807 0.532612 0.526754 0.155938
H51   H     H_    0.768622 0.456313 0.479400 0.165077
H52   H     H_    0.465973 0.740080 0.940816 0.193987
N1    N     N_R   0.489936 0.522797 0.146121 -0.343391
N2    N     N_R   0.514546 0.518400 0.854282 -0.353765
N3    N     N_R   0.731690 0.552740 0.533440 -0.148243
N4    N     N_R   0.268310 0.447260 0.466560 -0.144961
N5    N     N_1   0.369177 0.310286 0.373970 -0.209920
N6    N     N_1   0.635945 0.696561 0.623784 -0.190206
N7    N     N_1   0.230951 0.470781 0.643129 -0.213537
N8    N     N_1   0.759618 0.455464 0.364519 -0.202126
O1    O     O_R   0.383120 0.605620 0.483150 -0.622287
O2    O     O_2   0.489533 0.671566 0.847743 -0.523296
O3    O     O_2   0.455279 0.675501 0.140614 -0.573617
O4    O     O_2   0.543075 0.365183 0.859104 -0.562084
O5    O     O_3   0.189099 0.902881 0.434754 -0.614457
O6    O     O_3   0.803910 0.102230 0.495636 -0.616689
O7    O     O_3   0.875711 0.687135 0.635483 -0.611218
O8    O     O_3   0.131314 0.314881 0.358188 -0.608480
O9    O     O_3   0.347725 0.580027 0.766815 -0.589224
O10   O     O_3   0.349059 0.451236 0.183797 -0.583776
O11   O     O_R   0.616880 0.394380 0.516850 -0.620582
O12   O     O_R   0.531890 0.639510 0.504600 -0.626063
O13   O     O_R   0.468110 0.360490 0.495400 -0.619907
O14   O     O_R   0.425590 0.483070 0.573110 -0.609324
O15   O     O_R   0.574410 0.516930 0.426890 -0.616545
O16   O     O_R   0.574360 0.516970 0.594570 -0.613087
O17   O     O_R   0.425640 0.483030 0.405430 -0.622022
O18   O     O_2   0.526015 0.370185 0.154396 -0.530863
Zn1   Zn    Zn3+2 0.400660 0.477370 0.485670 0.953730
Zn2   Zn    Zn3+2 0.599340 0.522630 0.514330 0.950421

loop_
_geom_bond_atom_site_label_1
_geom_bond_atom_site_label_2
_ccdc_geom_bond_type
C79   H48   S    
O12   Zn2   S    
C34   C56   A    
C8    C13   A    
C23   C45   A    
C62   H16   S    
C14   C18   A    
C77   O10   S    
C68   N6    T    
C63   H18   S    
C12   O13   A    
C75   C76   S    
C60   H52   S    
C69   H27   S    
C53   C54   A    
C15   C19   A    
C72   H35   S    
C76   H40   S    
C23   H3    S    
C77   H43   S    
C76   H41   S    
C40   O18   S    
C35   C37   A    
C6    N1    S    
C61   H2    S    
C58   C60   A    
C55   C61   A    
C33   C36   A    
C56   C78   A    
C71   H33   S    
C1    O12   A    
C42   C46   A    
C51   C58   A    
C7    C11   A    
C63   H19   S    
C70   H30   S    
N4    Zn1   S    
C36   C42   A    
O1    Zn1   S    
C7    C14   A    
C52   C54   A    
C49   C51   A    
C62   O5    S    
C29   C38   A    
C16   O16   A    
C50   C52   A    
C2    H8    S    
C17   O17   A    
C14   H13   S    
C44   C47   A    
C33   H51   S    
C53   C55   A    
C71   O8    S    
O17   Zn1   S    
C1    C7    S    
C12   O11   A    
C31   C68   S    
C75   H38   S    
C34   H4    S    
C3    C80   A    
C72   H37   S    
C65   H25   S    
C41   N2    A    
C69   H28   S    
C50   O4    S    
C47   H45   S    
C45   H5    S    
C77   C79   S    
C10   C21   A    
C5    N2    S    
C46   C48   A    
C3    O9    S    
C59   C61   A    
O16   Zn2   S    
C75   H39   S    
C24   C25   A    
C31   N3    A    
C50   N2    A    
C58   H1    S    
C32   N4    A    
C25   H23   S    
C57   C60   A    
C64   H21   S    
C73   N7    T    
C74   N8    T    
C6    C34   A    
C51   C53   A    
C37   C43   A    
C64   H22   S    
C43   C44   A    
C26   H34   S    
C45   C67   A    
C63   H20   S    
C2    C78   A    
C52   C59   A    
C62   H17   S    
C33   N3    A    
C9    C20   A    
C56   H6    S    
C5    C23   A    
C8    C12   S    
C40   C55   A    
C71   H32   S    
C62   C63   S    
C16   C67   S    
C9    C11   A    
C35   H50   S    
C38   C47   A    
C10   O6    S    
C4    C6    A    
C21   C28   A    
C8    C15   A    
C16   O14   A    
C69   O7    S    
C22   C24   A    
C48   H49   S    
C25   C27   A    
C42   C43   A    
C17   O15   A    
C65   H26   S    
C46   C74   S    
O13   Zn1   S    
C32   C66   S    
C11   H15   S    
C79   H47   S    
C70   H29   S    
N3    Zn2   S    
C64   O6    S    
O15   Zn2   S    
C18   C22   A    
C79   H46   S    
C67   C80   A    
C3    C5    A    
C10   C13   A    
C35   N4    A    
C29   O7    S    
C30   O8    S    
C20   C27   A    
C80   H7    S    
C4    O10   S    
C40   N1    A    
C72   H36   S    
C26   C28   A    
C13   H14   S    
C76   H42   S    
O11   Zn2   S    
C36   C38   A    
C19   C24   A    
C41   C57   A    
O14   Zn1   S    
C37   C39   A    
C77   H44   S    
C64   C65   S    
C30   C32   A    
C66   N5    T    
C75   O9    S    
C2    C4    A    
C49   O3    S    
C9    O5    S    
C17   C78   S    
C30   C39   A    
C27   H9    S    
C18   C20   A    
C59   H12   S    
C44   C73   S    
C69   C70   S    
C1    O1    A    
C70   H31   S    
C15   H11   S    
C41   O2    S    
C71   C72   S    
C29   C31   A    
C22   C26   A    
C49   N1    A    
C28   H10   S    
C65   H24   S    
C39   C48   A    
C19   C21   A    
C54   C57   A    
