data_mof_unit_27587.cif
_audit_creation_date              2013-03-05T15:41:33-0500
_audit_creation_method            fapswitch 2.2
_symmetry_space_group_name_H-M    P1
_symmetry_Int_Tables_number       1
_space_group_crystal_system       triclinic
_cell_length_a                    15.865974
_cell_length_b                    8.748619
_cell_length_c                    7.513576
_cell_angle_alpha                 103.341453
_cell_angle_beta                  94.191302
_cell_angle_gamma                 92.750757
_cell_volume                      1009.80156453

loop_
_atom_site_label
_atom_site_type_symbol
_atom_site_description
_atom_site_fract_x
_atom_site_fract_y
_atom_site_fract_z
_atom_type_partial_charge
O1    O     O_R   0.506070 0.286130 0.619780 -0.520268
O2    O     O_R   0.493930 0.713870 0.380220 -0.520223
O3    O     O_R   0.490300 0.256770 0.308360 -0.596056
O4    O     O_R   0.509700 0.743230 0.691640 -0.596071
C1    C     C_R   0.495152 0.200182 0.453827 0.776152
C2    C     C_R   0.504848 0.799818 0.546173 0.776178
O5    O     O_R   0.386960 0.514660 0.655680 -0.554178
O6    O     O_R   0.613040 0.485340 0.344320 -0.554178
O7    O     O_R   0.371190 0.485310 0.344260 -0.541023
O8    O     O_R   0.628810 0.514690 0.655740 -0.541027
C3    C     C_R   0.340361 0.499935 0.502083 0.794611
C4    C     C_R   0.659639 0.500065 0.497917 0.794630
Cu1   Cu    Cu3+1 0.509330 0.517380 0.684380 1.160829
Cu2   Cu    Cu3+1 0.490670 0.482620 0.315620 1.160852
C5    C     C_2   0.483795 0.032049 0.432325 0.224409
C6    C     C_2   0.516207 0.967951 0.567674 0.224403
C7    C     C_3   0.972715 0.390067 0.583353 0.163580
C8    C     C_3   0.027285 0.609934 0.416647 0.163581
C9    C     C_3   0.022453 0.359503 0.411794 0.243816
C10   C     C_3   0.977547 0.640498 0.588206 0.243818
C11   C     C_1   0.251295 0.501088 0.506072 -0.023125
C12   C     C_1   0.748705 0.498912 0.493928 -0.023124
C13   C     C_3   0.034280 0.532848 0.673106 0.243460
C14   C     C_3   0.965719 0.467153 0.326894 0.243460
C15   C     C_3   0.084671 0.502434 0.501562 -0.138610
C16   C     C_3   0.915329 0.497567 0.498438 -0.138609
N1    N     N_2   0.476600 0.456420 0.038510 0.030590
N2    N     N_2   0.523400 0.543580 0.961490 0.030574
C17   C     C_1   0.176011 0.501894 0.505330 0.241283
C18   C     C_1   0.823989 0.498107 0.494670 0.241284
O9    O     O_3   0.046476 0.212663 0.319012 -0.602190
H1    H     H_    0.992709 0.148422 0.273924 0.388164
O10   O     O_3   0.953524 0.787337 0.680988 -0.602190
H2    H     H_    0.007290 0.851579 0.726076 0.388164
N3    N     N_R   0.945637 0.268438 0.674478 0.172059
O11   O     O_R   0.001525 0.184870 0.735737 -0.265278
O12   O     O_R   0.865903 0.241894 0.693994 -0.287996
N4    N     N_R   0.054363 0.731563 0.325522 0.172059
O13   O     O_R   0.998475 0.815131 0.264263 -0.265278
O14   O     O_R   0.134097 0.758107 0.306006 -0.287996
O15   O     O_3   0.929021 0.432417 0.146152 -0.619201
H3    H     H_    0.975316 0.394489 0.069235 0.378781
O16   O     O_3   0.070979 0.567584 0.853848 -0.619201
H4    H     H_    0.024684 0.605512 0.930765 0.378781
O17   O     O_3   0.435819 0.940349 0.279576 -0.685235
H5    H     H_    0.411380 0.008694 0.203559 0.362654
O18   O     O_3   0.564184 0.059650 0.720421 -0.685249
H6    H     H_    0.588622 0.991305 0.796438 0.362647
N5    N     N_R   0.395787 0.413907 0.953300 0.260432
O19   O     O_R   0.375047 0.266620 0.876185 -0.328543
O20   O     O_R   0.336120 0.510468 0.990644 -0.279134
N6    N     N_R   0.604216 0.586113 0.046726 0.260414
O21   O     O_R   0.624924 0.733397 0.124010 -0.328550
O22   O     O_R   0.663909 0.489604 0.009313 -0.279133

loop_
_geom_bond_atom_site_label_1
_geom_bond_atom_site_label_2
_geom_bond_distance
_ccdc_geom_bond_type
N4    O14   1.300163 A    
O7    Cu2   1.924053 S    
O8    Cu1   1.924053 S    
Cu1   N2    2.035769 S    
O3    Cu2   1.963718 S    
Cu2   N1    2.035768 S    
O7    C3    1.297133 A    
O15   H3    0.990229 S    
O9    H1    0.991069 S    
C10   C13   1.542350 S    
O6    C4    1.301004 A    
C9    O9    1.397883 S    
N5    O20   1.301832 A    
C9    C14   1.542350 S    
C8    N4    1.456356 S    
C13   O16   1.397345 S    
C7    C13   1.538530 S    
Cu1   Cu2   2.709159 S    
N6    O21   1.300621 A    
O5    C3    1.301004 A    
C14   O15   1.397345 S    
N2    N6    1.384523 S    
O2    C2    1.293594 A    
C8    C15   1.547491 S    
C10   C16   1.545305 S    
O1    C1    1.293594 A    
C7    C16   1.547492 S    
O8    C4    1.297134 A    
C6    O18   1.388869 S    
C7    N3    1.456356 S    
N3    O12   1.300163 A    
N6    O22   1.301923 A    
C16   C18   1.447665 S    
C8    C10   1.538092 S    
C13   C15   1.544037 S    
O16   H4    0.990230 S    
C15   C17   1.447665 S    
N4    O13   1.300194 A    
O2    Cu2   1.965801 S    
C8    C14   1.538531 S    
C1    C5    1.443202 S    
O1    Cu1   1.965801 S    
C10   O10   1.397883 S    
C9    C15   1.545305 S    
C2    C6    1.443202 S    
C5    C6    1.351868 D    
C4    C12   1.416092 S    
O5    Cu1   1.936122 S    
O10   H2    0.991070 S    
N1    N5    1.384393 S    
O4    C2    1.298731 A    
N5    O19   1.300475 A    
N1    N2    1.296073 D    
C5    O17   1.388869 S    
O6    Cu2   1.936122 S    
C12   C18   1.194415 T    
C7    C9    1.538091 S    
O17   H5    0.990745 S    
C11   C17   1.194415 T    
C3    C11   1.416092 S    
O18   H6    0.990745 S    
O4    Cu1   1.963719 S    
C14   C16   1.544037 S    
O3    C1    1.298731 A    
N3    O11   1.300194 A    
