data_mof_unit_61802.cif
_audit_creation_date              2012-12-10T19:38:03-0500
_audit_creation_method            fapswitch 2.2
_symmetry_space_group_name_H-M    P1
_symmetry_Int_Tables_number       1
_space_group_crystal_system       triclinic
_cell_length_a                    27.768361
_cell_length_b                    26.845408
_cell_length_c                    18.31793
_cell_angle_alpha                 89.998678
_cell_angle_beta                  90.032065
_cell_angle_gamma                 89.999912
_cell_volume                      13655.1533737

loop_
_atom_site_label
_atom_site_type_symbol
_atom_type_description
_atom_site_fract_x
_atom_site_fract_y
_atom_site_fract_z
_atom_type_partial_charge
C1    C     C_R   0.069554 0.434703 0.500023 0.915276
C2    C     C_R   0.000008 0.500001 0.843395 0.058608
C3    C     C_1   0.878362 0.408108 0.363527 0.352514
C4    C     C_1   0.121346 0.407419 0.363686 0.353145
C5    C     C_1   0.878545 0.592332 0.636326 0.353105
C6    C     C_1   0.878410 0.591987 0.363512 0.352613
C7    C     C_1   0.121641 0.408114 0.636475 0.352471
C8    C     C_1   0.378623 0.907506 0.636333 0.353146
C9    C     C_1   0.621445 0.092361 0.363681 0.353064
C10   C     C_1   0.621542 0.092065 0.636493 0.352636
C11   C     C_1   0.378372 0.908079 0.363529 0.352519
C12   C     C_1   0.621364 0.907471 0.363678 0.353136
C13   C     C_R   0.499996 0.999999 0.156605 0.058602
C14   C     C_1   0.378499 0.092245 0.636320 0.353064
C15   C     C_1   0.378443 0.092049 0.363507 0.352653
C16   C     C_1   0.621622 0.908070 0.636475 0.352505
C17   C     C_R   0.500006 1.000000 0.843395 0.058610
C18   C     C_R   0.999967 0.455231 0.196265 -0.235930
C19   C     C_R   0.999996 0.544770 0.803735 -0.235933
C20   C     C_R   0.000002 0.544770 0.196262 -0.235930
C21   C     C_R   0.000039 0.455231 0.803739 -0.235921
C22   C     C_R   0.499967 0.955230 0.196265 -0.235930
C23   C     C_R   0.499988 0.044769 0.803735 -0.235933
C24   C     C_R   0.500009 0.044769 0.196261 -0.235927
C25   C     C_R   0.930439 0.565286 0.499980 0.915326
C26   C     C_R   0.500038 0.955230 0.803738 -0.235924
C27   C     C_R   0.999962 0.455879 0.273057 0.112528
C28   C     C_R   0.000001 0.544121 0.726942 0.112534
C29   C     C_R   0.999997 0.544121 0.273055 0.112530
C30   C     C_R   0.000044 0.455879 0.726946 0.112523
C31   C     C_R   0.499962 0.955879 0.273058 0.112524
C32   C     C_R   0.499990 0.044121 0.726943 0.112539
C33   C     C_R   0.500004 0.044121 0.273054 0.112537
C34   C     C_R   0.500041 0.955879 0.726945 0.112523
C35   C     C_R   0.867276 0.384638 0.566745 -0.116326
C36   C     C_R   0.930445 0.434704 0.499979 0.915266
C37   C     C_R   0.132783 0.615265 0.433231 -0.116288
C38   C     C_R   0.132922 0.615003 0.567036 -0.116150
C39   C     C_R   0.867072 0.385022 0.432941 -0.116094
C40   C     C_R   0.132695 0.384592 0.433275 -0.116317
C41   C     C_R   0.867177 0.615205 0.566773 -0.116304
C42   C     C_R   0.867051 0.614974 0.432968 -0.116165
C43   C     C_R   0.132897 0.384991 0.567076 -0.116055
C44   C     C_R   0.367258 0.884671 0.566756 -0.116320
C45   C     C_R   0.632780 0.115261 0.433223 -0.116270
C46   C     C_R   0.632893 0.115048 0.567030 -0.116157
C47   C     C_R   0.069558 0.565291 0.500020 0.915318
C48   C     C_R   0.367077 0.885009 0.432952 -0.116095
C49   C     C_R   0.632713 0.884627 0.433258 -0.116309
C50   C     C_R   0.367144 0.115151 0.566786 -0.116295
C51   C     C_R   0.367060 0.114996 0.432981 -0.116178
C52   C     C_R   0.632897 0.884980 0.567060 -0.116077
C53   C     C_R   0.832168 0.347389 0.566203 0.332752
C54   C     C_R   0.167908 0.652497 0.433737 0.332749
C55   C     C_R   0.167949 0.652338 0.566795 0.332740
C56   C     C_R   0.832067 0.347665 0.433144 0.332745
C57   C     C_R   0.167768 0.347306 0.433829 0.332776
C58   C     C_R   0.569554 0.934704 0.500022 0.915298
C59   C     C_R   0.832021 0.652406 0.566276 0.332750
C60   C     C_R   0.831997 0.652283 0.433218 0.332743
C61   C     C_R   0.167862 0.347594 0.566888 0.332766
C62   C     C_R   0.332148 0.847423 0.566228 0.332761
C63   C     C_R   0.667900 0.152499 0.433715 0.332740
C64   C     C_R   0.667920 0.152383 0.566774 0.332721
C65   C     C_R   0.332074 0.847650 0.433169 0.332753
C66   C     C_R   0.667797 0.847353 0.433793 0.332766
C67   C     C_R   0.331976 0.152341 0.566309 0.332750
C68   C     C_R   0.331997 0.152296 0.433251 0.332733
C69   C     C_R   0.430437 0.065285 0.499980 0.915312
C70   C     C_R   0.667875 0.847596 0.566852 0.332761
C71   C     C_R   0.816018 0.328088 0.499612 -0.133365
C72   C     C_R   0.184038 0.671847 0.500307 -0.133346
C73   C     C_R   0.183895 0.327991 0.500428 -0.133378
C74   C     C_R   0.815887 0.671764 0.499711 -0.133335
C75   C     C_R   0.316012 0.828096 0.499644 -0.133360
C76   C     C_R   0.684020 0.171869 0.500278 -0.133349
C77   C     C_R   0.683923 0.828022 0.500382 -0.133367
C78   C     C_R   0.315859 0.171732 0.499757 -0.133329
C79   C     C_R   0.000005 0.500001 0.925263 0.333522
C80   C     C_R   0.430443 0.934707 0.499980 0.915270
C81   C     C_R   0.999998 0.500001 0.074737 0.333522
C82   C     C_R   0.500004 0.999999 0.925263 0.333523
C83   C     C_R   0.499999 0.999999 0.074737 0.333523
C84   C     C_R   0.888004 0.401093 0.499897 -0.253554
C85   C     C_R   0.112014 0.598882 0.500089 -0.253568
C86   C     C_R   0.111979 0.401071 0.500116 -0.253578
C87   C     C_R   0.887965 0.598855 0.499912 -0.253565
C88   C     C_R   0.387998 0.901101 0.499904 -0.253563
C89   C     C_R   0.612002 0.098898 0.500086 -0.253559
C90   C     C_R   0.611985 0.901078 0.500105 -0.253575
C91   C     C_R   0.569555 0.065295 0.500019 0.915310
C92   C     C_R   0.387958 0.098845 0.499920 -0.253562
C93   C     C_R   0.218320 0.712309 0.500200 0.421803
C94   C     C_R   0.781741 0.287622 0.499677 0.421853
C95   C     C_R   0.781602 0.712222 0.499832 0.421781
C96   C     C_R   0.218155 0.287506 0.500377 0.421741
C97   C     C_R   0.718310 0.212320 0.500157 0.421895
C98   C     C_R   0.281738 0.787626 0.499726 0.421787
C99   C     C_R   0.281567 0.212184 0.499901 0.421802
C100  C     C_R   0.718188 0.787543 0.500311 0.421755
C101  C     C_1   0.999884 0.409175 0.311565 0.260607
C102  C     C_R   0.999994 0.500000 0.156605 0.058603
C103  C     C_1   0.000038 0.590824 0.688433 0.260612
C104  C     C_1   0.999956 0.590825 0.311560 0.260616
C105  C     C_1   0.000126 0.409175 0.688442 0.260597
C106  C     C_1   0.499891 0.909175 0.311567 0.260612
C107  C     C_1   0.500007 0.090825 0.688435 0.260602
C108  C     C_1   0.499977 0.090825 0.311558 0.260618
C109  C     C_1   0.500111 0.909175 0.688440 0.260599
C110  C     C_1   0.878653 0.407448 0.636335 0.353174
C111  C     C_1   0.121430 0.592394 0.363673 0.353096
C112  C     C_1   0.121585 0.591990 0.636485 0.352593
Cl1   Cl    Cl    0.807130 0.325647 0.649536 -0.487668
Cl2   Cl    Cl    0.692981 0.174148 0.350362 -0.487768
Cl3   Cl    Cl    0.690476 0.176188 0.650547 -0.486769
Cl4   Cl    Cl    0.309511 0.823899 0.349367 -0.486803
Cl5   Cl    Cl    0.692835 0.825622 0.350457 -0.487690
Cl6   Cl    Cl    0.306835 0.173904 0.649667 -0.487786
Cl7   Cl    Cl    0.309452 0.176127 0.349485 -0.486739
Cl8   Cl    Cl    0.690426 0.823842 0.650662 -0.486817
Cl9   Cl    Cl    0.192984 0.674160 0.350388 -0.487747
Cl10  Cl    Cl    0.190510 0.676117 0.650581 -0.486783
Cl11  Cl    Cl    0.809478 0.323951 0.349336 -0.486817
Cl12  Cl    Cl    0.192793 0.325544 0.350500 -0.487655
Cl13  Cl    Cl    0.806914 0.674023 0.649628 -0.487755
Cl14  Cl    Cl    0.809430 0.676069 0.349438 -0.486761
Cl15  Cl    Cl    0.190412 0.323861 0.650711 -0.486839
Cl16  Cl    Cl    0.307093 0.825714 0.649567 -0.487691
H1    H     H_    0.999941 0.419825 0.167834 0.176544
H2    H     H_    0.999992 0.580176 0.832164 0.176534
H3    H     H_    0.000004 0.580176 0.167830 0.176536
H4    H     H_    0.000069 0.419826 0.832171 0.176544
H5    H     H_    0.499940 0.919824 0.167836 0.176543
H6    H     H_    0.499977 0.080175 0.832165 0.176532
H7    H     H_    0.500016 0.080174 0.167828 0.176537
H8    H     H_    0.500067 0.919824 0.832170 0.176542
N1    N     N_R   0.000000 0.500000 0.310560 -0.138506
N2    N     N_R   0.500004 0.956560 0.963544 -0.144787
N3    N     N_R   0.500002 0.956559 0.036459 -0.144786
N4    N     N_R   0.500000 0.043439 0.963541 -0.144795
N5    N     N_R   0.737137 0.294285 0.471502 -0.083935
N6    N     N_R   0.262909 0.705669 0.528441 -0.083912
N7    N     N_R   0.205799 0.756998 0.471683 -0.088827
N8    N     N_R   0.794272 0.242915 0.528125 -0.088822
N9    N     N_R   0.262735 0.294131 0.528659 -0.083925
N10   N     N_R   0.737018 0.705592 0.471566 -0.083867
N11   N     N_R   0.794118 0.756903 0.528376 -0.088862
N12   N     N_R   0.000000 0.500000 0.689440 -0.138504
N13   N     N_R   0.205639 0.242826 0.471825 -0.088735
N14   N     N_R   0.237149 0.794265 0.471483 -0.083913
N15   N     N_R   0.762914 0.205655 0.528328 -0.083964
N16   N     N_R   0.705780 0.257025 0.471704 -0.088858
N17   N     N_R   0.294259 0.742936 0.528240 -0.088801
N18   N     N_R   0.762771 0.794171 0.528578 -0.083924
N19   N     N_R   0.236987 0.205557 0.471621 -0.083874
N20   N     N_R   0.294082 0.256862 0.528459 -0.088886
N21   N     N_R   0.705670 0.742861 0.471770 -0.088758
N22   N     N_1   0.999819 0.371449 0.342167 -0.161913
N23   N     N_R   0.500000 1.000000 0.310560 -0.138506
N24   N     N_1   0.000070 0.628551 0.657830 -0.161908
N25   N     N_1   0.999921 0.628551 0.342160 -0.161911
N26   N     N_1   0.000194 0.371448 0.657843 -0.161898
N27   N     N_1   0.499833 0.871449 0.342169 -0.161905
N28   N     N_1   0.500022 0.128551 0.657832 -0.161916
N29   N     N_1   0.499953 0.128552 0.342157 -0.161913
N30   N     N_1   0.500168 0.871448 0.657841 -0.161900
N31   N     N_1   0.887056 0.425724 0.692137 -0.157054
N32   N     N_1   0.113045 0.574070 0.307899 -0.157062
N33   N     N_1   0.113207 0.573552 0.692167 -0.157181
N34   N     N_R   0.500000 0.000000 0.689440 -0.138503
N35   N     N_1   0.886706 0.426606 0.307875 -0.157178
N36   N     N_1   0.112966 0.425709 0.307885 -0.157052
N37   N     N_1   0.886943 0.574007 0.692095 -0.157055
N38   N     N_1   0.886804 0.573567 0.307823 -0.157192
N39   N     N_1   0.113324 0.426643 0.692113 -0.157168
N40   N     N_1   0.387018 0.925802 0.692124 -0.157024
N41   N     N_1   0.613072 0.074011 0.307922 -0.157052
N42   N     N_1   0.613153 0.073649 0.692188 -0.157211
N43   N     N_1   0.386719 0.926565 0.307869 -0.157196
N44   N     N_1   0.612983 0.925774 0.307887 -0.157037
N45   N     N_R   0.999998 0.543440 0.036456 -0.144794
N46   N     N_1   0.386890 0.073891 0.692072 -0.157028
N47   N     N_1   0.386854 0.073661 0.307802 -0.157225
N48   N     N_1   0.613292 0.926572 0.692128 -0.157188
N49   N     N_R   0.000005 0.456561 0.963544 -0.144787
N50   N     N_R   0.000002 0.456561 0.036459 -0.144787
N51   N     N_R   0.000001 0.543441 0.963541 -0.144793
N52   N     N_R   0.499998 0.043439 0.036456 -0.144795
O1    O     O_R   0.050940 0.449070 0.560830 -0.625626
O2    O     O_R   0.449060 0.050930 0.439170 -0.625623
O3    O     O_R   0.449060 0.050930 0.560830 -0.625676
O4    O     O_R   0.550940 0.949070 0.439170 -0.625662
O5    O     O_R   0.449060 0.949070 0.439170 -0.625626
O6    O     O_R   0.550940 0.050930 0.560830 -0.625614
O7    O     O_R   0.550940 0.050930 0.439170 -0.625662
O8    O     O_R   0.449060 0.949070 0.560830 -0.625676
O9    O     O_R   0.949060 0.550930 0.439170 -0.625623
O10   O     O_R   0.949060 0.550930 0.560830 -0.625669
O11   O     O_R   0.050940 0.449070 0.439170 -0.625657
O12   O     O_R   0.949060 0.449070 0.439170 -0.625630
O13   O     O_R   0.050940 0.550930 0.560830 -0.625619
O14   O     O_R   0.050940 0.550930 0.439170 -0.625659
O15   O     O_R   0.949060 0.449070 0.560830 -0.625669
O16   O     O_R   0.550940 0.949070 0.560830 -0.625618
Zn1   Zn    Zn3+2 0.000000 0.500000 0.581210 0.979947
Zn2   Zn    Zn3+2 0.000000 0.500000 0.418790 0.979949
Zn3   Zn    Zn3+2 0.500000 0.000000 0.581210 0.979947
Zn4   Zn    Zn3+2 0.500000 0.000000 0.418790 0.979949

loop_
_geom_bond_atom_site_label_1
_geom_bond_atom_site_label_2
_ccdc_geom_bond_type
C108  N29   T    
C9    C45   S    
C35   C53   A    
C52   C90   A    
N1    Zn2   S    
C81   N45   A    
C49   C90   A    
C100  N18   A    
C69   O3    A    
C83   N3    A    
C12   C49   S    
N45   N51   A    
N23   Zn4   S    
N10   N21   A    
C14   C50   S    
O6    Zn3   S    
O15   Zn1   S    
C27   N1    A    
C79   N51   A    
C17   C26   A    
C47   C85   S    
C37   C85   A    
C39   C84   A    
N8    N15   A    
C68   Cl7   S    
C103  N24   T    
C20   C102  A    
C63   C76   A    
C57   C73   A    
C25   C87   S    
C47   O13   A    
C77   C100  S    
C17   C82   S    
C18   C102  A    
C40   C86   A    
C66   Cl5   S    
N11   N18   A    
C82   N4    A    
C25   O10   A    
N9    N20   A    
C100  N21   A    
C26   C34   A    
N7    N14   A    
C38   C55   A    
C4    C40   S    
O1    Zn1   S    
C32   C107  S    
C15   N47   T    
C10   C46   S    
C48   C88   A    
C2    C79   S    
C36   O15   A    
C7    C43   S    
C48   C65   A    
C89   C91   S    
C69   C92   S    
C45   C89   A    
C50   C67   A    
C55   C72   A    
C34   N34   A    
C20   C29   A    
C64   C76   A    
C19   H2    S    
C98   N17   A    
C3    C39   S    
O5    Zn4   S    
C70   C77   A    
O4    Zn4   S    
O9    Zn2   S    
C1    O11   A    
C67   C78   A    
C41   C87   A    
C14   N46   T    
C53   Cl1   S    
C81   C102  S    
C68   C78   A    
C80   O8    A    
C28   N12   A    
C37   C111  S    
C49   C66   A    
O7    Zn4   S    
C22   H5    S    
N4    N52   A    
C56   Cl11  S    
C36   O12   A    
C95   N11   A    
C41   C59   A    
C16   C52   S    
C22   C31   A    
C70   Cl8   S    
C104  N25   T    
C46   C89   A    
C91   O6    A    
O3    Zn3   S    
C6    N38   T    
C61   C73   A    
C76   C97   S    
C109  N30   T    
C27   C101  S    
C75   C98   S    
C29   C104  S    
C7    N39   T    
C10   N42   T    
C21   H4    S    
C96   N9    A    
C51   C92   A    
O14   Zn2   S    
C91   O7    A    
C110  N31   T    
C112  N33   T    
O16   Zn3   S    
C38   C85   A    
C56   C71   A    
C99   N20   A    
C2    C21   A    
C16   N48   T    
C97   N15   A    
C61   Cl15  S    
C39   C56   A    
C17   C23   A    
C106  N27   T    
C11   C48   S    
C19   C28   A    
C58   C90   S    
C59   C74   A    
C35   C110  S    
N12   Zn1   S    
C33   C108  S    
C37   C54   A    
C24   H7    S    
O2    Zn4   S    
C12   N44   T    
C54   Cl9   S    
C101  N22   T    
C15   C51   S    
C30   C105  S    
C58   O4    A    
C13   C24   A    
C65   Cl4   S    
C99   N19   A    
C62   C75   A    
C11   N43   T    
C72   C93   S    
C20   H3    S    
C38   C112  S    
C53   C71   A    
C26   H8    S    
C42   C60   A    
C81   N50   A    
C9    N41   T    
C43   C61   A    
C98   N14   A    
C50   C92   A    
C1    C86   S    
C66   C77   A    
C5    C41   S    
C79   N49   A    
O12   Zn2   S    
C40   C57   A    
C4    N36   T    
C23   H6    S    
C2    C19   A    
C43   C86   A    
C5    N37   T    
C74   C95   S    
C18   C27   A    
C8    C44   S    
C93   N7    A    
C69   O2    A    
C35   C84   A    
C8    N40   T    
C25   O9    A    
C30   N12   A    
C111  N32   T    
C95   N10   A    
C63   Cl2   S    
C29   N1    A    
C21   C30   A    
C13   C83   S    
C24   C33   A    
C65   C75   A    
C44   C62   A    
C23   C32   A    
O8    Zn3   S    
C60   Cl14  S    
C80   O5    A    
N13   N19   A    
C94   N8    A    
N34   Zn3   S    
C82   N2    A    
C59   Cl13  S    
C57   Cl12  S    
C62   Cl16  S    
C28   C103  S    
C3    N35   T    
N49   N50   A    
C94   N5    A    
C36   C84   S    
C96   N13   A    
C60   C74   A    
C31   C106  S    
C97   N16   A    
C45   C63   A    
C13   C22   A    
C51   C68   A    
O11   Zn2   S    
N6    N17   A    
C83   N52   A    
C67   Cl6   S    
C55   Cl10  S    
C52   C70   A    
N2    N3    A    
C58   O16   A    
C32   N34   A    
C54   C72   A    
C107  N28   T    
C47   O14   A    
C80   C88   S    
C6    C42   S    
C46   C64   A    
C78   C99   S    
C64   Cl3   S    
C34   C109  S    
O13   Zn1   S    
C105  N26   T    
C18   H1    S    
C71   C94   S    
C42   C87   A    
C73   C96   S    
C44   C88   A    
C31   N23   A    
C93   N6    A    
C33   N23   A    
N5    N16   A    
O10   Zn1   S    
C1    O1    A    
