data_mof_unit_14597.cif
_audit_creation_date              2012-12-11T15:09:35-0500
_audit_creation_method            fapswitch 2.2
_symmetry_space_group_name_H-M    P1
_symmetry_Int_Tables_number       1
_space_group_crystal_system       triclinic
_cell_length_a                    20.916811
_cell_length_b                    7.129132
_cell_length_c                    14.030983
_cell_angle_alpha                 89.998906
_cell_angle_beta                  98.086153
_cell_angle_gamma                 90.001675
_cell_volume                      2071.47990169

loop_
_atom_site_label
_atom_site_type_symbol
_atom_type_description
_atom_site_fract_x
_atom_site_fract_y
_atom_site_fract_z
_atom_type_partial_charge
O1    O     O_R   0.447130 0.507140 0.597350 -0.537116
O2    O     O_R   0.552870 0.007140 0.402650 -0.537115
O3    O     O_R   0.578910 0.181280 0.586990 -0.538741
O4    O     O_R   0.421090 0.681280 0.413010 -0.538743
C1    C     C_R   0.604489 0.344491 0.607384 0.725796
C2    C     C_R   0.395511 0.844489 0.392615 0.725794
O5    O     O_R   0.449230 0.177860 0.608640 -0.540907
O6    O     O_R   0.550770 0.677860 0.391360 -0.540909
O7    O     O_R   0.422260 0.000770 0.424450 -0.534970
O8    O     O_R   0.577740 0.500770 0.575550 -0.534972
C3    C     C_R   0.432966 0.346331 0.634750 0.689453
C4    C     C_R   0.567034 0.846338 0.365250 0.689453
O9    O     O_3   0.491310 0.336980 0.439550 -0.374660
O10   O     O_3   0.508690 0.836980 0.560450 -0.374658
V1    V     V_3+5 0.501610 0.064760 0.511210 1.427583
V2    V     V_3+5 0.498390 0.564760 0.488790 1.427575
C5    C     C_R   0.620183 0.879738 0.121630 -0.157976
C6    C     C_R   0.379821 0.379246 0.878388 -0.157975
H1    H     H_    0.704549 0.895934 0.997682 0.127413
H2    H     H_    0.295458 0.395177 0.002348 0.127411
H3    H     H_    0.598057 0.891447 0.047235 0.113730
H4    H     H_    0.401948 0.390717 0.952792 0.113730
C7    C     C_R   0.607987 0.855213 0.289524 -0.025740
C8    C     C_R   0.392013 0.355171 0.710477 -0.025737
C9    C     C_R   0.921481 0.844191 0.305766 -0.168094
C10   C     C_R   0.078516 0.344539 0.694220 -0.168093
C11   C     C_R   0.884609 0.834382 0.380500 -0.118139
C12   C     C_R   0.115386 0.334878 0.619480 -0.118138
C13   C     C_R   0.817442 0.839082 0.361416 -0.156886
C14   C     C_R   0.182554 0.339445 0.638569 -0.156882
C15   C     C_R   0.785166 0.853988 0.265833 0.076663
C16   C     C_R   0.214833 0.354056 0.734165 0.076662
C17   C     C_R   0.823376 0.864224 0.189528 0.065201
C18   C     C_R   0.176625 0.364116 0.810477 0.065198
C19   C     C_R   0.716419 0.859027 0.243398 0.071486
C20   C     C_R   0.283582 0.358979 0.756604 0.071487
C21   C     C_R   0.687630 0.874321 0.145595 0.140144
C22   C     C_R   0.312373 0.373969 0.854419 0.140145
C23   C     C_R   0.726190 0.884222 0.072323 -0.202516
C24   C     C_R   0.273815 0.383698 0.927698 -0.202515
C25   C     C_R   0.792947 0.879254 0.093734 -0.193578
C26   C     C_R   0.207057 0.378852 0.906282 -0.193572
C27   C     C_R   0.674984 0.849525 0.314567 -0.212735
C28   C     C_R   0.325015 0.349642 0.685428 -0.212734
C29   C     C_R   0.580580 0.870322 0.193319 -0.175188
C30   C     C_R   0.419422 0.369971 0.806694 -0.175188
C31   C     C_R   0.891545 0.859063 0.210646 -0.069798
C32   C     C_R   0.108454 0.359105 0.789353 -0.069795
H5    H     H_    0.692897 0.837913 0.390160 0.095638
H6    H     H_    0.307100 0.338248 0.609827 0.095636
H7    H     H_    0.973668 0.840075 0.322100 0.102262
H8    H     H_    0.026328 0.340558 0.677881 0.102259
H9    H     H_    0.792453 0.830714 0.423291 0.109104
H10   H     H_    0.207542 0.331220 0.576688 0.109103
H11   H     H_    0.908270 0.822885 0.454028 0.119633
H12   H     H_    0.091723 0.323618 0.545943 0.119631
H13   H     H_    0.820565 0.887401 0.034144 0.123799
H14   H     H_    0.179440 0.386858 0.965879 0.123791
C33   C     C_1   0.166597 0.857124 0.168311 -0.192473
C34   C     C_1   0.833403 0.357119 0.831689 -0.192476
C35   C     C_1   0.218994 0.854858 0.219423 0.002006
C36   C     C_1   0.781006 0.354855 0.780577 0.002005
C37   C     C_1   0.280742 0.853416 0.279461 0.000161
C38   C     C_1   0.719258 0.353418 0.720539 0.000162
C39   C     C_1   0.333104 0.851098 0.330672 -0.198969
C40   C     C_1   0.666896 0.351103 0.669327 -0.198968
O11   O     O_R   0.922300 0.202240 0.924350 -0.533495
O12   O     O_R   0.077700 0.702240 0.075650 -0.533487
O13   O     O_R   0.050780 0.535130 0.891350 -0.540242
O14   O     O_R   0.949220 0.035130 0.108650 -0.540250
C41   C     C_R   0.067476 0.368015 0.865506 0.683468
C42   C     C_R   0.932524 0.868008 0.134494 0.683466
O15   O     O_R   0.921100 0.531560 0.912990 -0.538116
O16   O     O_R   0.078900 0.031560 0.087010 -0.538124
O17   O     O_R   0.947120 0.708470 0.097370 -0.537244
O18   O     O_R   0.052880 0.208470 0.902630 -0.537251
C43   C     C_R   0.895874 0.363555 0.893455 0.715523
C44   C     C_R   0.104126 0.863557 0.106545 0.715523
O19   O     O_3   0.008710 0.375800 0.060400 -0.373990
O20   O     O_3   0.991290 0.875800 0.939600 -0.373988
V3    V     V_3+5 0.998380 0.648080 0.988790 1.428564
V4    V     V_3+5 0.001620 0.148080 0.011210 1.428534
H15   H     H_    0.528608 0.874924 0.173878 0.103976
H16   H     H_    0.471396 0.374431 0.826140 0.103973

loop_
_geom_bond_atom_site_label_1
_geom_bond_atom_site_label_2
_ccdc_geom_bond_type
C22   C24   A    
C37   C39   T    
C7    C29   A    
O20   V3    S    
C11   C13   A    
O11   C43   A    
O2    C4    A    
C26   H14   S    
C2    O7    A    
C12   H12   S    
C23   C25   A    
O5    C3    A    
C14   H10   S    
C4    C7    S    
O12   V3    S    
C16   C20   A    
C19   C21   A    
C5    C29   A    
C41   O18   A    
H2    C24   S    
C11   H11   S    
C3    C8    S    
C7    C27   A    
C34   C36   T    
O13   C41   A    
C36   C38   S    
C2    C39   S    
C18   C26   A    
O1    C3    A    
C15   C17   A    
C19   C27   A    
C9    C31   A    
C10   C32   A    
C24   C26   A    
O6    V2    S    
C29   H15   S    
O16   V4    S    
C42   O17   A    
C6    C30   A    
C33   C44   S    
O15   V3    S    
O12   C44   A    
C34   C43   S    
C33   C35   T    
O20   V4    S    
O18   V4    S    
O19   V3    S    
C27   H5    S    
O5    V1    S    
C5    H3    S    
C16   C18   A    
O4    V2    S    
C9    H7    S    
C10   H8    S    
O6    C4    A    
C35   C37   S    
O1    V2    S    
C5    C21   A    
O2    V1    S    
H1    C23   S    
C30   H16   S    
O4    C2    A    
C17   C31   A    
C15   C19   A    
C20   C28   A    
C18   C32   A    
C32   C41   S    
O3    V1    S    
C28   H6    S    
C6    H4    S    
O17   V3    S    
C1    C40   S    
O3    C1    A    
O19   V4    S    
C9    C11   A    
C10   C12   A    
C17   C25   A    
C12   C14   A    
C6    C22   A    
C25   H13   S    
C1    O8    A    
C21   C23   A    
O8    V2    S    
C14   C16   A    
C13   H9    S    
C8    C28   A    
C20   C22   A    
O7    V1    S    
O14   V4    S    
C31   C42   S    
O13   V3    S    
O11   V4    S    
C13   C15   A    
O16   C44   A    
O9    V2    S    
O15   C43   A    
O10   V1    S    
O14   C42   A    
C38   C40   T    
C8    C30   A    
