data_mof_unit_59994.cif
_audit_creation_date              2012-12-11T19:42:00-0500
_audit_creation_method            fapswitch 2.2
_symmetry_space_group_name_H-M    P1
_symmetry_Int_Tables_number       1
_space_group_crystal_system       triclinic
_cell_length_a                    8.272064
_cell_length_b                    15.157616
_cell_length_c                    26.916889
_cell_angle_alpha                 99.253697
_cell_angle_beta                  92.870886
_cell_angle_gamma                 81.273
_cell_volume                      3291.33935394

loop_
_atom_site_label
_atom_site_type_symbol
_atom_type_description
_atom_site_fract_x
_atom_site_fract_y
_atom_site_fract_z
_atom_type_partial_charge
Ba1   Ba    Ba6+2 0.860050 0.456430 0.522530 1.636586
Ba2   Ba    Ba6+2 0.329780 0.543490 0.477460 1.648549
C1    C     C_3   0.528732 0.186073 0.682739 -0.370443
C2    C     C_R   0.971960 0.595185 0.187532 0.586928
C3    C     C_2   0.774701 0.570438 0.275306 -0.089823
C4    C     C_3   0.071785 0.262962 0.650267 0.325859
C5    C     C_3   0.744788 0.593873 0.331343 -0.087815
C6    C     C_1   0.992089 0.486241 0.343178 0.018262
C7    C     C_2   0.028883 0.474658 0.294734 -0.094821
C8    C     C_2   0.915492 0.519517 0.257958 0.224387
C9    C     C_R   0.038730 0.511145 0.103922 -0.079120
C10   C     C_R   0.033264 0.430422 0.123129 -0.035226
C11   C     C_R   0.065555 0.348115 0.090670 -0.060434
C12   C     C_3   0.542807 0.263879 0.654604 0.320029
C13   C     C_R   0.008166 0.593952 0.136575 -0.028183
C14   C     C_2   0.866556 0.542667 0.363256 -0.236732
C15   C     C_2   0.347161 0.481216 0.640273 -0.289734
C16   C     C_3   0.057451 0.235820 0.701683 -0.338973
C17   C     C_R   0.151891 0.423209 0.968554 0.019398
C18   C     C_R   0.103751 0.589764 0.980915 0.019733
C19   C     C_R   0.145353 0.505654 0.949103 0.049976
C20   C     C_R   0.200233 0.341576 0.935669 -0.099008
C21   C     C_R   0.237430 0.340885 0.885598 -0.063733
C22   C     C_R   0.227815 0.421409 0.865626 -0.031923
C23   C     C_3   0.481938 0.687956 0.632052 0.293805
C24   C     C_R   0.180934 0.504043 0.897273 -0.078783
C25   C     C_R   0.169803 0.585123 0.877093 -0.035394
C26   C     C_R   0.205404 0.582590 0.825876 0.588951
C27   C     C_R   0.265022 0.421015 0.814704 0.589225
C28   C     C_3   0.217908 0.266147 0.411177 0.300900
C29   C     C_2   0.452161 0.485817 0.729019 -0.079521
C30   C     C_3   0.492954 0.492277 0.675173 -0.055640
C31   C     C_1   0.202637 0.518171 0.656999 0.068227
C32   C     C_2   0.162367 0.518396 0.704270 -0.106700
C33   C     C_2   0.294092 0.500107 0.743225 0.220616
C34   C     C_3   0.451764 0.724228 0.687398 -0.369076
C35   C     C_R   0.110900 0.424987 0.019898 0.019614
C36   C     C_R   0.075016 0.509171 0.052107 0.049854
C37   C     C_R   0.074947 0.591509 0.033092 0.020033
C38   C     C_R   0.103609 0.345282 0.040433 -0.099389
C39   C     C_R   0.014940 0.674201 0.117759 -0.067244
C40   C     C_3   0.245698 0.164519 0.394567 -0.403137
C41   C     C_R   0.091035 0.669630 0.959057 -0.100742
C42   C     C_R   0.123206 0.667190 0.908496 -0.061574
C43   C     C_R   0.047251 0.673191 0.067378 -0.101240
C44   C     C_R   0.847144 0.832039 0.467210 -0.007220
C45   C     C_3   0.935566 0.765611 0.348040 0.325525
C46   C     C_R   0.777741 0.924035 0.468681 -0.035869
C47   C     C_R   0.641309 0.110482 0.477084 -0.040030
C48   C     C_R   0.785621 0.076004 0.450452 -0.062843
C49   C     C_R   0.854075 0.985068 0.447187 -0.119098
C50   C     C_R   0.577768 0.204369 0.485412 0.060469
C51   C     C_R   0.434541 0.233906 0.512021 -0.301108
C52   C     C_3   0.994277 0.743884 0.596992 0.280210
C53   C     C_R   0.615549 0.804220 0.511525 0.029362
C54   C     C_R   0.546204 0.895904 0.514755 -0.025202
C55   C     C_R   0.626697 0.955994 0.492868 0.018980
C56   C     C_3   0.867400 0.829294 0.311323 -0.361022
C57   C     C_R   0.400199 0.929539 0.540061 -0.050988
C58   C     C_R   0.331249 0.019132 0.542450 -0.099539
C59   C     C_R   0.410114 0.080501 0.522376 -0.032509
C60   C     C_R   0.559063 0.048969 0.497172 0.000011
C61   C     C_R   0.346212 0.173031 0.528006 0.019695
C62   C     C_R   0.762511 0.773540 0.487193 -0.288112
C63   C     C_3   0.018314 0.839913 0.620622 -0.235425
C64   C     C_3   0.749763 0.322651 0.371900 0.307783
C65   C     C_3   0.738338 0.303262 0.314686 -0.332245
C66   C     C_3   0.924242 0.911420 0.592447 -0.274339
C67   C     C_3   0.411367 0.739646 0.325192 0.339539
C68   C     C_3   0.926381 0.005842 0.622507 -0.209113
C69   C     C_3   0.821190 0.075617 0.595649 -0.361175
C70   C     C_3   0.280433 0.890596 0.298781 -0.250209
C71   C     C_3   0.426129 0.943387 0.310270 -0.198891
C72   C     C_3   0.485665 0.950144 0.365309 -0.406228
C73   C     C_3   0.328845 0.788134 0.282890 -0.184946
C74   C     C_R   0.993691 0.433723 0.174234 0.594023
H1    H     H_    0.563190 0.237149 0.614175 0.001767
H2    H     H_    0.706064 0.395151 0.385146 0.042542
H3    H     H_    0.439505 0.143968 0.662896 0.102458
H4    H     H_    0.792996 0.232367 0.301269 0.110344
H5    H     H_    0.805280 0.349172 0.298232 0.079545
H6    H     H_    0.608384 0.313192 0.301573 0.152611
H7    H     H_    0.425515 0.310332 0.658581 -0.006263
H8    H     H_    0.487227 0.212938 0.721550 0.163483
H9    H     H_    0.365692 0.668658 0.614370 0.027690
H10   H     H_    0.577880 0.627691 0.628977 0.036986
H11   H     H_    0.363573 0.787791 0.691026 0.131101
H12   H     H_    0.342583 0.146798 0.366119 0.131011
H13   H     H_    0.399534 0.674583 0.705510 0.088839
H14   H     H_    0.568507 0.737958 0.707185 0.123833
H15   H     H_    0.648951 0.143095 0.685308 0.113347
H16   H     H_    0.997694 0.294552 0.727865 0.133225
H17   H     H_    0.988373 0.699786 0.326435 0.089098
H18   H     H_    0.830222 0.755625 0.369599 -0.071494
H19   H     H_    0.962272 0.836874 0.285469 0.131066
H20   H     H_    0.766176 0.801671 0.288334 0.107704
H21   H     H_    0.821036 0.896854 0.332280 0.099077
H22   H     H_    0.543458 0.745962 0.325290 -0.078123
H23   H     H_    0.284359 0.129293 0.427048 0.061073
H24   H     H_    0.361816 0.772232 0.362322 0.092730
H25   H     H_    0.410770 0.775111 0.250173 0.086587
H26   H     H_    0.947816 0.282667 0.635017 0.124413
H27   H     H_    0.216582 0.758562 0.269686 0.146086
H28   H     H_    0.144866 0.436116 0.281930 0.110392
H29   H     H_    0.061294 0.284809 0.104038 0.119739
H30   H     H_    0.550379 0.475426 0.756717 0.086273
H31   H     H_    0.274075 0.276242 0.862387 0.115870
H32   H     H_    0.213390 0.276344 0.947590 0.068007
H33   H     H_    0.124083 0.278911 0.018426 0.067704
H34   H     H_    0.130877 0.141307 0.377950 0.115870
H35   H     H_    0.690707 0.604325 0.249707 0.087831
H36   H     H_    0.994411 0.738950 0.142080 0.113515
H37   H     H_    0.053342 0.735844 0.979793 0.067819
H38   H     H_    0.141578 0.320961 0.654828 0.025848
H39   H     H_    0.111551 0.730643 0.894040 0.120595
H40   H     H_    0.036574 0.537739 0.715748 0.116198
H41   H     H_    0.052399 0.738206 0.056794 0.067237
H42   H     H_    0.857588 0.562401 0.403715 0.081424
H43   H     H_    0.360582 0.443048 0.602536 0.068973
H44   H     H_    0.849702 0.118730 0.432517 0.101001
H45   H     H_    0.863506 0.740302 0.587271 0.004930
H46   H     H_    0.967858 0.963474 0.427741 0.104564
H47   H     H_    0.216560 0.039437 0.561198 0.114557
H48   H     H_    0.335716 0.887402 0.558257 0.099029
H49   H     H_    0.386062 0.305133 0.517939 0.064530
H50   H     H_    0.982834 0.180065 0.698550 0.109998
H51   H     H_    0.815597 0.703422 0.485881 0.059805
H52   H     H_    0.180564 0.213059 0.717300 0.136651
H53   H     H_    0.335311 0.289117 0.424222 0.026335
H54   H     H_    0.130017 0.282060 0.442299 0.059970
H55   H     H_    0.858714 0.067311 0.556187 0.174625
H56   H     H_    0.068613 0.722259 0.562807 0.054514
H57   H     H_    0.690658 0.066748 0.596225 0.110652
H58   H     H_    0.835644 0.144444 0.614455 0.145632
H59   H     H_    0.877385 0.009682 0.660631 0.119823
H60   H     H_    0.053788 0.021245 0.626955 0.145663
H61   H     H_    0.981351 0.907152 0.555539 0.121001
H62   H     H_    0.795341 0.899164 0.586767 0.120713
H63   H     H_    0.381640 0.970924 0.391183 0.142550
H64   H     H_    0.553809 0.885158 0.373455 0.115966
H65   H     H_    0.569495 0.001590 0.373036 0.125562
H66   H     H_    0.528537 0.913528 0.284896 0.124198
H67   H     H_    0.975131 0.852552 0.660022 0.141191
H68   H     H_    0.386092 0.013198 0.302327 0.120883
H69   H     H_    0.208384 0.916522 0.266809 0.103070
H70   H     H_    0.197345 0.904696 0.331138 0.154095
H71   H     H_    0.150934 0.845766 0.622111 0.098095
H72   H     H_    0.878251 0.305840 0.383633 0.036059
N1    N     N_R   0.961517 0.515730 0.205774 -0.422164
N2    N     N_R   0.253585 0.501129 0.795406 -0.424866
O1    O     O_2   0.906480 0.548660 0.619050 -0.459077
O2    O     O_2   0.190252 0.824037 0.468662 -0.488938
O3    O     O_3   0.060891 0.801759 0.378219 -0.615104
O4    O     O_3   0.138490 0.548590 0.558870 -0.492454
O5    O     O_3   0.572560 0.389960 0.472890 -0.472384
O6    O     O_2   0.345660 0.723580 0.528500 -0.471948
O7    O     O_3   0.534769 0.755493 0.609677 -0.647995
O8    O     O_2   0.504036 0.487324 0.334062 -0.480675
O9    O     O_3   0.383228 0.648979 0.316333 -0.588983
O10   O     O_2   0.985999 0.363640 0.190381 -0.597102
O11   O     O_2   0.307151 0.349314 0.787525 -0.621130
O12   O     O_3   0.656530 0.267479 0.391369 -0.640435
O13   O     O_2   0.950600 0.667306 0.215820 -0.630901
O14   O     O_2   0.194946 0.653047 0.808531 -0.594886
O15   O     O_3   0.686300 0.382310 0.585700 -0.478483
O16   O     O_2   0.830789 0.440119 0.672812 -0.507203
O17   O     O_3   0.043036 0.691275 0.634419 -0.639236
O18   O     O_3   0.675075 0.306781 0.675377 -0.606475
O19   O     O_2   0.844040 0.276390 0.471470 -0.485152
O20   O     O_3   0.101510 0.335500 0.560330 -0.494733
O21   O     O_2   0.008632 0.175535 0.528042 -0.498733
O22   O     O_3   0.150570 0.189540 0.617772 -0.649401
O23   O     O_2   0.283210 0.451310 0.380920 -0.419857
O24   O     O_3   0.051220 0.451340 0.441120 -0.509597
O25   O     O_3   0.503410 0.617620 0.414290 -0.463801
O26   O     O_3   0.157284 0.307003 0.369794 -0.634977
O27   O     O_3   0.617150 0.609960 0.527100 -0.473636
O28   O     O_3   0.088210 0.664420 0.439670 -0.469749
P1    P     P_3+3 0.071950 0.575820 0.612140 0.992970
P2    P     P_3+3 0.664370 0.290050 0.457240 0.980106
P3    P     P_3+3 0.149337 0.218890 0.557369 0.900046
P4    P     P_3+3 0.117760 0.424110 0.387850 0.979703
P5    P     P_3+3 0.047569 0.781492 0.439901 0.949031
P6    P     P_3+3 0.669071 0.408020 0.651455 0.937840
P7    P     P_3+3 0.531572 0.723953 0.544257 0.939472
P8    P     P_3+3 0.534049 0.586208 0.349252 0.975209

loop_
_geom_bond_atom_site_label_1
_geom_bond_atom_site_label_2
_ccdc_geom_bond_type
C34   H13   S    
O17   P1    S    
C53   C54   A    
C26   N2    Am   
Ba2   O5    S    
C61   P3    S    
C8    N1    S    
C31   P1    S    
Ba1   O5    S    
C71   C72   S    
C5    P8    S    
C66   H62   S    
C52   O17   S    
C19   C24   A    
C1    H3    S    
O24   P4    S    
C69   H58   S    
C55   C60   A    
C52   C63   S    
C4    O22   S    
O6    P7    D    
C50   C51   A    
O26   P4    S    
C2    N1    Am   
C24   C25   A    
C48   H44   S    
O9    P8    S    
C17   C19   A    
O7    P7    S    
C32   C33   S    
C35   C38   A    
Ba2   O23   S    
C36   C37   A    
C63   H67   S    
Ba1   P2    S    
C20   H32   S    
C34   H14   S    
C70   H69   S    
C73   H27   S    
Ba1   O20   S    
O27   P7    S    
C54   C55   A    
C64   O12   S    
C1    H15   S    
Ba1   Ba2   S    
Ba2   P4    S    
C12   H1    S    
C52   H45   S    
C59   C61   A    
C56   H20   S    
C22   C27   A    
C4    H38   S    
C11   C38   A    
C17   C35   A    
C16   H52   S    
C27   N2    Am   
C9    C13   A    
C25   C42   A    
C46   C49   A    
O3    P5    S    
C42   H39   S    
C6    C7    D    
O18   P6    S    
C39   H36   S    
C21   C22   A    
C67   C73   S    
C68   C69   S    
Ba2   O27   S    
C63   H71   S    
C7    C8    S    
O19   P2    D    
C64   H72   S    
O28   P5    S    
C37   C43   A    
C67   H22   S    
C63   C66   S    
C53   P7    S    
C64   C65   S    
C57   C58   A    
C6    C14   D    
O4    P1    S    
C68   H60   S    
C66   H61   S    
C59   C60   A    
C56   H21   S    
C15   C31   D    
C12   H7    S    
C70   C73   S    
C64   H2    S    
O8    P8    D    
C28   O26   S    
O21   P3    D    
C31   C32   D    
C71   H66   S    
C34   H11   S    
C4    C16   S    
C44   C46   A    
Ba1   O24   S    
C6    P4    S    
C27   O11   D    
C46   C55   A    
C17   C20   A    
O16   P6    D    
C13   C39   A    
C11   H29   S    
C3    C5    S    
C18   C37   A    
C45   O3    S    
C28   H54   S    
C72   H64   S    
C44   C62   A    
C58   C59   A    
C44   P5    S    
C9    C36   A    
C56   H19   S    
C50   P2    S    
C35   C36   A    
Ba1   P1    S    
C14   H42   S    
Ba2   O25   S    
O1    P1    D    
C29   C30   S    
Ba1   O15   S    
C62   H51   S    
C21   H31   S    
C53   C62   A    
C23   H9    S    
C48   C49   A    
C45   H17   S    
C2    O13   D    
C18   C19   A    
O2    P5    D    
C16   H50   S    
C1    C12   S    
C51   H49   S    
C66   C68   S    
C5    C14   S    
C33   N2    S    
C72   H65   S    
O23   P4    D    
C65   H5    S    
C10   C74   A    
C41   C42   A    
C23   O7    S    
C68   H59   S    
C29   H30   S    
C29   C33   D    
C40   H12   S    
C12   O18   S    
C1    H8    S    
C18   C41   A    
C52   H56   S    
O5    P2    S    
C26   O14   D    
C43   H41   S    
C57   H48   S    
C15   C30   S    
C74   O10   D    
Ba2   O6    S    
C47   C60   A    
O15   P6    S    
O12   P2    S    
C30   P6    S    
C65   H4    S    
C47   C50   A    
C22   C24   A    
C70   C71   S    
C69   H57   S    
C9    C10   A    
C38   H33   S    
C28   H53   S    
C3    H35   S    
C72   H63   S    
C54   C57   A    
C16   H16   S    
C2    C13   A    
C40   H34   S    
C3    C8    D    
O20   P3    S    
C40   H23   S    
C41   H37   S    
C45   C56   S    
C51   C61   A    
C32   H40   S    
C74   N1    Am   
C7    H28   S    
C70   H70   S    
Ba1   O19   S    
C23   H10   S    
C67   O9    S    
C45   H18   S    
Ba1   O1    S    
C4    H26   S    
Ba1   O4    S    
C15   H43   S    
C23   C34   S    
C69   H55   S    
C67   H24   S    
C58   H47   S    
C10   C11   A    
C65   H6    S    
Ba2   O4    S    
C47   C48   A    
C25   C26   A    
C73   H25   S    
C49   H46   S    
C39   C43   A    
C20   C21   A    
C28   C40   S    
Ba2   O28   S    
O22   P3    S    
Ba1   O27   S    
Ba2   O24   S    
O25   P8    S    
C71   H68   S    
