data_mof_unit_30530.cif
_audit_creation_date              2012-12-10T19:43:23-0500
_audit_creation_method            fapswitch 2.2
_symmetry_space_group_name_H-M    P1
_symmetry_Int_Tables_number       1
_space_group_crystal_system       triclinic
_cell_length_a                    10.885538
_cell_length_b                    10.860858
_cell_length_c                    9.588117
_cell_angle_alpha                 89.422617
_cell_angle_beta                  91.013668
_cell_angle_gamma                 92.110336
_cell_volume                      1132.57092947

loop_
_atom_site_label
_atom_site_type_symbol
_atom_type_description
_atom_site_fract_x
_atom_site_fract_y
_atom_site_fract_z
_atom_type_partial_charge
C1    C     C_R   0.504663 0.262124 0.502209 0.798298
C2    C     C_R   0.183260 0.581197 0.959106 -0.158404
C3    C     C_R   0.931722 0.527962 0.381736 -0.226448
C4    C     C_R   0.870882 0.492749 0.503481 -0.080016
C5    C     C_R   0.938829 0.451791 0.620774 0.002297
C6    C     C_R   0.066505 0.456919 0.616300 -0.246665
C7    C     C_R   0.127650 0.495433 0.495500 -0.089634
C8    C     C_R   0.058401 0.524573 0.374513 0.040589
C9    C     C_R   0.865622 0.456650 0.866329 -0.125838
C10   C     C_R   0.813090 0.397740 0.982337 -0.131410
C11   C     C_R   0.778454 0.272704 0.976827 -0.138729
C12   C     C_R   0.262126 0.499043 0.498462 0.772011
C13   C     C_R   0.797376 0.206191 0.855562 -0.169499
C14   C     C_R   0.846917 0.265481 0.738161 -0.146145
C15   C     C_R   0.881031 0.391249 0.742948 0.132565
C16   C     C_R   0.508564 0.110604 0.772153 -0.186542
C17   C     C_R   0.474302 0.045171 0.891650 -0.164370
C18   C     C_R   0.420460 0.928281 0.879985 -0.137176
C19   C     C_R   0.409956 0.872972 0.749893 -0.157789
C20   C     C_R   0.458192 0.932771 0.629263 0.096921
C21   C     C_R   0.491488 0.059259 0.636892 0.099204
C22   C     C_R   0.506443 0.127153 0.509134 -0.118186
C23   C     C_R   0.489665 0.736723 0.499910 0.780058
C24   C     C_R   0.510094 0.064277 0.382516 -0.220774
C25   C     C_R   0.500416 0.937279 0.379916 -0.224473
C26   C     C_R   0.477041 0.870235 0.502370 -0.119217
C27   C     C_R   0.654252 0.671369 0.144856 -0.256327
C28   C     C_R   0.726163 0.758305 0.073496 -0.242339
C29   C     C_R   0.727705 0.758534 0.929088 0.279784
C30   C     C_R   0.654996 0.670823 0.857111 -0.223294
C31   C     C_R   0.574844 0.585227 0.925744 0.182840
C32   C     C_R   0.574600 0.585353 0.075229 0.210056
C33   C     C_R   0.432933 0.415939 0.073471 -0.040905
C34   C     C_R   0.737318 0.496482 0.501456 0.782227
C35   C     C_R   0.432555 0.416148 0.925560 -0.072063
C36   C     C_R   0.183793 0.679443 0.051759 -0.153296
C37   C     C_R   0.148431 0.659785 0.189595 -0.182810
C38   C     C_R   0.111119 0.541378 0.235083 0.112920
C39   C     C_R   0.109740 0.441680 0.141581 0.301334
C40   C     C_R   0.146475 0.462818 0.003941 -0.216444
Cu1   Cu    Cu3+1 0.499990 0.499990 0.640660 0.922774
Cu2   Cu    Cu3+1 0.500010 0.500010 0.359340 0.932215
H1    H     H_    0.210669 0.597094 0.852376 0.158963
H2    H     H_    0.738605 0.227036 0.067072 0.136213
H3    H     H_    0.860049 0.213288 0.644250 0.124207
H4    H     H_    0.523227 0.113222 0.284560 0.157624
H5    H     H_    0.487986 0.086276 0.993463 0.125448
H6    H     H_    0.390195 0.879225 0.972508 0.129100
H7    H     H_    0.362793 0.783779 0.745575 0.155266
H8    H     H_    0.512278 0.891578 0.281373 0.170919
H9    H     H_    0.378021 0.347281 0.128417 0.135222
H10   H     H_    0.667058 0.674775 0.254588 0.217689
H11   H     H_    0.668742 0.670645 0.748058 0.201954
H12   H     H_    0.146688 0.737193 0.259810 0.125025
H13   H     H_    0.145997 0.386692 0.932293 0.125225
H14   H     H_    0.880385 0.555434 0.289327 0.148375
H15   H     H_    0.118452 0.424141 0.705083 0.150553
H16   H     H_    0.894386 0.552752 0.872638 0.135330
H17   H     H_    0.800984 0.448466 0.077226 0.145724
N1    N     N_R   0.501190 0.501210 0.147910 -0.189111
N2    N     N_R   0.501230 0.501290 0.852040 -0.191167
O1    O     O_R   0.499990 0.319640 0.618810 -0.592431
O2    O     O_R   0.500000 0.319660 0.381240 -0.587746
O3    O     O_R   0.319640 0.500000 0.618780 -0.594538
O4    O     O_R   0.319650 0.500020 0.381210 -0.569431
O5    O     O_R   0.500000 0.680340 0.618760 -0.610304
O6    O     O_R   0.500010 0.680360 0.381190 -0.593862
O7    O     O_R   0.680350 0.499980 0.618790 -0.587688
O8    O     O_R   0.680360 0.500000 0.381220 -0.604995
H18   H     H_    0.772360 0.108944 0.852033 0.172189
H19   H     H_    0.554276 0.198118 0.791354 0.188001
H20   H     H_    0.208953 0.771378 0.016039 0.128121
H21   H     H_    0.781918 0.825110 0.131961 0.158038
N3    N     N_2   0.799658 0.849121 0.855054 -0.432573
H22   H     H_    0.776523 0.858303 0.750719 0.243313
C41   C     C_3   0.931195 0.847544 0.879643 -0.718049
H23   H     H_    0.976516 0.926126 0.823262 0.226604
H24   H     H_    0.967939 0.760652 0.840375 0.225393
H25   H     H_    0.954280 0.857238 0.992290 0.235493
H26   H     H_    0.376370 0.347948 0.869993 0.133590
N4    N     N_2   0.061241 0.323178 0.181982 -0.440806
H27   H     H_    0.012961 0.278252 0.103038 0.261502
C42   C     C_3   0.148281 0.242896 0.248192 -0.693267
H28   H     H_    0.098157 0.160645 0.291453 0.226212
H29   H     H_    0.198446 0.289751 0.335242 0.243080
H30   H     H_    0.214471 0.211279 0.170635 0.204294

loop_
_geom_bond_atom_site_label_1
_geom_bond_atom_site_label_2
_ccdc_geom_bond_type
C16   C21   A    
Cu1   Cu2   S    
C31   N2    A    
C19   C20   A    
C41   H25   S    
Cu1   N2    S    
C1    O1    A    
N4    H27   S    
C7    C8    A    
C37   C38   A    
N3    C41   S    
C23   O5    A    
C36   C37   A    
C41   H24   S    
C18   C19   A    
C5    C6    A    
C12   O3    A    
C13   H18   S    
C35   H26   S    
C9    H16   S    
C23   C26   S    
C23   O6    A    
C25   H8    S    
C42   H28   S    
C16   C17   A    
Cu2   O4    S    
C14   H3    S    
C9    C10   A    
C1    C22   S    
C13   C14   A    
C6    H15   S    
C16   H19   S    
C8    C38   S    
Cu1   O1    S    
C28   H21   S    
C1    O2    A    
N4    C42   S    
Cu1   O7    S    
C7    C12   S    
C30   H11   S    
C4    C34   S    
N3    H22   S    
C24   C25   A    
C39   N4    S    
C3    C8    A    
Cu2   N1    S    
C39   C40   A    
C29   N3    S    
C25   C26   A    
Cu2   O8    S    
C29   C30   A    
C3    H14   S    
C19   H7    S    
C31   C32   A    
C2    H1    S    
C40   H13   S    
C17   C18   A    
C11   H2    S    
C35   N2    A    
C41   H23   S    
C34   O8    A    
C6    C7    A    
C37   H12   S    
C42   H29   S    
C33   N1    A    
Cu2   O6    S    
C22   C24   A    
C32   N1    A    
C34   O7    A    
C3    C4    A    
C27   H10   S    
C2    C36   A    
C28   C29   A    
C27   C32   A    
C17   H5    S    
C4    C5    A    
C18   H6    S    
Cu1   O5    S    
C33   H9    S    
C12   O4    A    
C24   H4    S    
C10   H17   S    
C9    C15   A    
C11   C13   A    
C30   C31   A    
C38   C39   A    
C20   C26   A    
C33   C35   A    
C5    C15   S    
C10   C11   A    
C2    C40   A    
C42   H30   S    
C20   C21   A    
C27   C28   A    
C14   C15   A    
Cu1   O3    S    
C21   C22   A    
Cu2   O2    S    
C36   H20   S    
