data_mof_unit_29038.cif
_audit_creation_date              2012-12-10T19:27:33-0500
_audit_creation_method            fapswitch 2.2
_symmetry_space_group_name_H-M    P1
_symmetry_Int_Tables_number       1
_space_group_crystal_system       triclinic
_cell_length_a                    23.33328
_cell_length_b                    10.496054
_cell_length_c                    9.835267
_cell_angle_alpha                 89.988847
_cell_angle_beta                  89.126776
_cell_angle_gamma                 91.873456
_cell_volume                      2407.16163282

loop_
_atom_site_label
_atom_site_type_symbol
_atom_type_description
_atom_site_fract_x
_atom_site_fract_y
_atom_site_fract_z
_atom_type_partial_charge
C1    C     C_R   0.499034 0.257890 0.500159 0.929963
C2    C     C_R   0.706061 0.497104 0.614636 0.393088
C3    C     C_R   0.234528 0.419072 0.570951 0.392064
C4    C     C_R   0.764687 0.471639 0.608706 0.378855
C5    C     C_R   0.209065 0.511070 0.489120 0.129154
C6    C     C_R   0.790754 0.445690 0.482687 0.150749
C7    C     C_3   0.494547 0.040839 0.630258 -0.317520
C8    C     C_3   0.504420 0.959915 0.368875 -0.285632
C9    C     C_3   0.544816 0.962907 0.572558 -0.334714
C10   C     C_3   0.454476 0.037488 0.426825 -0.236844
C11   C     C_3   0.500692 0.877099 0.498044 -0.113778
C12   C     C_R   0.500636 0.742120 0.499654 0.903784
C13   C     C_3   0.498500 0.122897 0.500860 -0.079720
C14   C     C_3   0.451486 0.953213 0.554520 0.542750
C15   C     C_3   0.547606 0.046410 0.444392 0.554040
C16   C     C_R   0.389775 0.500534 0.500737 0.952453
C17   C     C_R   0.610525 0.495321 0.499361 0.924506
C18   C     C_3   0.483295 0.390821 0.048478 0.531691
C19   C     C_3   0.516458 0.609220 0.952027 0.517295
C20   C     C_3   0.534034 0.415997 0.950461 -0.137240
C21   C     C_3   0.466009 0.584051 0.050095 -0.149003
C22   C     C_3   0.449121 0.474806 0.954925 -0.151366
C23   C     C_R   0.243013 0.602144 0.418750 -0.167555
C24   C     C_3   0.550727 0.525498 0.045345 -0.108141
C25   C     C_R   0.877438 0.574432 0.490750 0.603591
C26   C     C_R   0.122552 0.398948 0.421511 0.604686
C27   C     C_R   0.882317 0.352826 0.436759 0.527726
C28   C     C_R   0.117387 0.609415 0.511562 0.518290
C29   C     C_R   0.942132 0.362572 0.429882 -0.064409
C30   C     C_R   0.057758 0.604655 0.501085 -0.043482
C31   C     C_R   0.969819 0.480215 0.461035 -0.082086
C32   C     C_R   0.030068 0.489657 0.461637 -0.082443
C33   C     C_R   0.937388 0.588184 0.491926 -0.127487
C34   C     C_R   0.757489 0.422109 0.368384 -0.204421
C35   C     C_R   0.062599 0.383919 0.424051 -0.149796
C36   C     C_R   0.974621 0.256780 0.396218 -0.264600
C37   C     C_R   0.025542 0.711413 0.531124 -0.284358
C38   C     C_R   0.034404 0.266194 0.393813 0.489352
C39   C     C_R   0.965719 0.705003 0.525873 0.490803
C40   C     C_1   0.572197 0.322071 0.890634 0.272467
C41   C     C_1   0.427369 0.676422 0.111371 0.193683
C42   C     C_3   0.444805 0.185594 0.013456 0.055044
C43   C     C_3   0.383429 0.145953 0.053252 -0.806779
C44   C     C_3   0.537634 0.822877 0.993310 0.054213
C45   C     C_R   0.302182 0.600693 0.427515 -0.283181
C46   C     C_3   0.582884 0.925038 0.956787 -0.854172
C47   C     C_1   0.390569 0.453287 0.906569 0.253314
C48   C     C_1   0.607693 0.563909 0.094608 0.241686
C49   C     C_3   0.075425 0.094605 0.487661 0.102026
C50   C     C_3   0.124402 0.004520 0.465463 -0.685745
C51   C     C_3   0.934672 0.848542 0.682617 0.117996
C52   C     C_3   0.898252 0.964985 0.702064 -0.753365
C53   C     C_3   0.306038 0.190362 0.559501 0.132911
C54   C     C_3   0.315194 0.193852 0.404563 -0.922842
C55   C     C_3   0.698257 0.664091 0.764322 0.186719
C56   C     C_R   0.698524 0.432705 0.377301 -0.265024
C57   C     C_3   0.664035 0.757436 0.682228 -0.922867
C58   C     C_3   0.187150 0.387399 0.771614 0.078428
C59   C     C_3   0.147798 0.295412 0.851449 -0.789162
C60   C     C_3   0.798563 0.365460 0.789325 0.096441
C61   C     C_3   0.833495 0.378730 0.918134 -0.804962
C62   C     C_3   0.400188 0.875203 0.741397 0.068362
C63   C     C_3   0.347279 0.795833 0.784076 -0.785377
C64   C     C_3   0.636163 0.014146 0.346625 0.080243
C65   C     C_3   0.687584 0.079552 0.276135 -0.765125
C66   C     C_R   0.327835 0.504684 0.501338 -0.200340
C67   C     C_R   0.672536 0.476245 0.497572 -0.186151
C68   C     C_R   0.294388 0.409292 0.567674 0.418014
H1    H     H_    0.953939 0.165534 0.373255 0.214683
H2    H     H_    0.508430 0.925333 0.262907 0.153609
H3    H     H_    0.471438 0.099903 0.014892 0.154790
H4    H     H_    0.445589 0.220935 0.906501 0.129995
H5    H     H_    0.357567 0.231399 0.071260 0.269644
H6    H     H_    0.363290 0.088554 0.971235 0.212077
H7    H     H_    0.383085 0.087711 0.147257 0.247828
H8    H     H_    0.547720 0.787619 0.096834 0.139007
H9    H     H_    0.495164 0.867658 0.996626 0.138620
H10   H     H_    0.573102 0.968975 0.857979 0.264064
H11   H     H_    0.583216 0.000850 0.035545 0.225063
H12   H     H_    0.046649 0.801148 0.557090 0.181798
H13   H     H_    0.625888 0.882960 0.951390 0.260297
H14   H     H_    0.036373 0.038606 0.520811 0.137240
H15   H     H_    0.088310 0.161332 0.571002 0.148272
H16   H     H_    0.163300 0.057922 0.427644 0.280084
H17   H     H_    0.134665 0.958843 0.563458 0.227454
H18   H     H_    0.112106 0.929983 0.390258 0.252276
H19   H     H_    0.978589 0.873090 0.719066 0.111804
H20   H     H_    0.915485 0.769190 0.745467 0.160319
H21   H     H_    0.853745 0.943371 0.668496 0.278189
H22   H     H_    0.897150 0.992351 0.811109 0.193885
H23   H     H_    0.223478 0.673242 0.356281 0.185595
H24   H     H_    0.916687 0.046275 0.641583 0.251184
H25   H     H_    0.261412 0.158196 0.585057 0.203924
H26   H     H_    0.333929 0.116254 0.600504 0.192166
H27   H     H_    0.357422 0.239934 0.378479 0.265817
H28   H     H_    0.313328 0.095243 0.363667 0.237447
H29   H     H_    0.280980 0.247873 0.355521 0.275681
H30   H     H_    0.744922 0.684678 0.747804 0.183500
H31   H     H_    0.689438 0.681908 0.873692 0.174501
H32   H     H_    0.617557 0.737047 0.698860 0.314586
H33   H     H_    0.674761 0.856390 0.715265 0.219980
H34   H     H_    0.777460 0.398308 0.271962 0.183466
H35   H     H_    0.674505 0.749251 0.572172 0.232004
H36   H     H_    0.164460 0.478358 0.759060 0.154145
H37   H     H_    0.226709 0.405557 0.831418 0.174792
H38   H     H_    0.137740 0.336370 0.952812 0.227768
H39   H     H_    0.107171 0.278333 0.795937 0.236261
H40   H     H_    0.169054 0.203283 0.865598 0.263537
H41   H     H_    0.818847 0.293252 0.722641 0.154951
H42   H     H_    0.754333 0.331319 0.818666 0.167058
H43   H     H_    0.834551 0.285242 0.970785 0.213926
H44   H     H_    0.878103 0.411357 0.892269 0.254553
H45   H     H_    0.328095 0.672901 0.374528 0.209885
H46   H     H_    0.813850 0.448990 0.987654 0.259180
H47   H     H_    0.399565 0.967653 0.795983 0.130868
H48   H     H_    0.438745 0.823027 0.771372 0.196787
H49   H     H_    0.347299 0.701877 0.732231 0.265768
H50   H     H_    0.347150 0.780305 0.895678 0.213655
H51   H     H_    0.307897 0.845991 0.756603 0.258735
H52   H     H_    0.616350 0.945041 0.273894 0.138266
H53   H     H_    0.651722 0.961768 0.436508 0.149089
H54   H     H_    0.709714 0.145695 0.347791 0.273256
H55   H     H_    0.718176 0.007082 0.241385 0.219233
H56   H     H_    0.673383 0.408590 0.288985 0.215499
H57   H     H_    0.673397 0.134162 0.186621 0.248395
H58   H     H_    0.582488 0.931101 0.628009 0.171016
H59   H     H_    0.417780 0.069842 0.368185 0.169305
H60   H     H_    0.490501 0.077744 0.735519 0.147891
N1    N     N_R   0.851624 0.457435 0.468598 -0.330296
N2    N     N_R   0.148324 0.507266 0.472378 -0.331422
N3    N     N_3   0.499960 0.500030 0.863290 -0.147440
N4    N     N_3   0.500040 0.499970 0.136710 -0.145323
N5    N     N_1   0.602317 0.248157 0.843262 -0.218971
N6    N     N_1   0.397140 0.749702 0.159485 -0.241210
N7    N     N_1   0.343884 0.437282 0.871206 -0.194899
N8    N     N_1   0.652624 0.596792 0.131482 -0.237038
O1    O     O_R   0.500000 0.313960 0.616610 -0.640855
O2    O     O_2   0.155207 0.306825 0.368871 -0.523709
O3    O     O_2   0.854966 0.239711 0.413957 -0.577650
O4    O     O_2   0.144292 0.713962 0.562942 -0.604360
O5    O     O_3   0.466594 0.273592 0.110161 -0.582893
O6    O     O_3   0.537146 0.725447 0.893916 -0.602001
O7    O     O_3   0.064830 0.158557 0.364491 -0.565842
O8    O     O_3   0.935585 0.815431 0.543471 -0.564012
O9    O     O_3   0.321282 0.306798 0.625402 -0.621862
O10   O     O_3   0.681144 0.536151 0.735880 -0.597518
O11   O     O_3   0.200632 0.332622 0.644644 -0.616170
O12   O     O_R   0.500000 0.686040 0.383390 -0.639468
O13   O     O_3   0.797785 0.484798 0.723511 -0.614830
O14   O     O_3   0.398996 0.896157 0.600059 -0.629815
O15   O     O_3   0.597107 0.107102 0.387053 -0.608631
O16   O     O_R   0.500030 0.313950 0.383350 -0.555325
O17   O     O_R   0.499970 0.686050 0.616650 -0.592030
O18   O     O_R   0.416140 0.499970 0.616650 -0.602508
O19   O     O_R   0.583860 0.500030 0.383350 -0.628943
O20   O     O_R   0.416170 0.499960 0.383400 -0.611008
O21   O     O_R   0.583830 0.500040 0.616600 -0.557866
O22   O     O_2   0.844718 0.676329 0.512829 -0.513527
Zn1   Zn    Zn3+2 0.499980 0.500010 0.655740 1.006421
Zn2   Zn    Zn3+2 0.500020 0.499990 0.344260 0.999629

loop_
_geom_bond_atom_site_label_1
_geom_bond_atom_site_label_2
_ccdc_geom_bond_type
C43   H5    S    
C66   C68   A    
O16   Zn2   S    
C34   C56   A    
C23   C45   A    
C22   N3    S    
C27   C29   A    
C38   O7    S    
C18   N4    S    
C3    C68   A    
C28   O4    S    
C12   O17   A    
C25   N1    A    
C15   O15   S    
C50   H16   S    
C51   O8    S    
C3    O11   S    
C4    O13   S    
C29   C36   A    
C33   C39   A    
C56   H56   S    
C44   H9    S    
C19   C21   S    
C34   H34   S    
C46   H11   S    
C20   C40   S    
C11   C14   S    
C64   H53   S    
C25   O22   S    
C1    O16   A    
O12   Zn2   S    
C44   H8    S    
C60   H41   S    
C50   H17   S    
C52   H22   S    
C7    C14   S    
C20   C24   S    
C28   C30   A    
C16   O20   A    
C31   C33   A    
C54   H29   S    
C7    H60   S    
C17   O21   A    
C54   H28   S    
C26   N2    A    
C43   H6    S    
C22   C47   S    
O19   Zn2   S    
C58   H36   S    
O21   Zn1   S    
C21   C22   S    
C43   H7    S    
C52   H21   S    
C6    N1    S    
C42   H4    S    
C41   N6    T    
C44   C46   S    
C19   N3    S    
C57   H35   S    
C37   H12   S    
C17   C67   S    
C59   H38   S    
O1    Zn1   S    
C64   O15   S    
C53   H25   S    
C51   C52   S    
C24   C48   S    
C32   C35   A    
O20   Zn2   S    
C35   C38   A    
C4    C6    A    
C2    C67   A    
C10   C14   S    
C51   H19   S    
C46   H10   S    
C63   H50   S    
C58   O11   S    
C55   O10   S    
C8    C15   S    
C3    C5    A    
C58   C59   S    
C53   C54   S    
C57   H32   S    
C59   H39   S    
C6    C34   A    
C30   C37   A    
C60   C61   S    
C65   H57   S    
C49   H14   S    
O17   Zn1   S    
C2    C4    A    
C21   N4    S    
C62   H48   S    
C62   C63   S    
C37   C39   A    
C46   H13   S    
C63   H51   S    
C24   N4    S    
C31   C32   A    
C5    C23   A    
C7    C13   S    
C14   O14   S    
C42   O5    S    
C53   O9    S    
N4    Zn2   S    
C65   H54   S    
N3    Zn1   S    
C9    C11   S    
C54   H27   S    
C21   C41   S    
C8    C10   S    
C5    N2    S    
C19   O6    S    
C13   C15   S    
C16   O18   A    
C27   N1    A    
C23   H23   S    
C52   H24   S    
C1    C13   S    
C42   C43   S    
C20   N3    S    
C10   H59   S    
C61   H43   S    
C45   C66   A    
C1    O1    A    
C36   H1    S    
C7    C9    S    
C62   O14   S    
C47   N7    T    
C53   H26   S    
C18   C22   S    
C48   N8    T    
C18   O5    S    
C9    H58   S    
C26   O2    S    
C10   C13   S    
C51   H20   S    
C18   C20   S    
C11   C12   S    
C2    O10   S    
C56   C67   A    
C57   H33   S    
C40   N5    T    
C8    H2    S    
C59   H40   S    
C64   H52   S    
C58   H37   S    
C64   C65   S    
C49   H15   S    
C55   C57   S    
C19   C24   S    
C9    C15   S    
O18   Zn1   S    
C29   C31   A    
C30   C32   A    
C12   O12   A    
C8    C11   S    
C63   H49   S    
C49   O7    S    
C55   H30   S    
C36   C38   A    
C42   H3    S    
C28   N2    A    
C60   O13   S    
C65   H55   S    
C27   O3    S    
C60   H42   S    
C50   H18   S    
C45   H45   S    
C26   C35   A    
C62   H47   S    
C16   C66   S    
C39   O8    S    
C44   O6    S    
C49   C50   S    
C55   H31   S    
C61   H46   S    
C61   H44   S    
C68   O9    S    
C25   C33   A    
C17   O19   A    
