data_mof_unit_39691.cif
_audit_creation_date              2012-12-11T15:08:37-0500
_audit_creation_method            fapswitch 2.2
_symmetry_space_group_name_H-M    P1
_symmetry_Int_Tables_number       1
_space_group_crystal_system       triclinic
_cell_length_a                    19.533268
_cell_length_b                    11.346081
_cell_length_c                    18.691452
_cell_angle_alpha                 89.999748
_cell_angle_beta                  90.76421
_cell_angle_gamma                 89.999926
_cell_volume                      4142.14403121

loop_
_atom_site_label
_atom_site_type_symbol
_atom_type_description
_atom_site_fract_x
_atom_site_fract_y
_atom_site_fract_z
_atom_type_partial_charge
C1    C     C_R   0.273069 0.043141 0.854147 0.555688
C2    C     C_3   0.687546 0.536284 0.953964 -0.278670
C3    C     C_R   0.227118 0.544343 0.353765 0.537942
C4    C     C_R   0.468498 0.822713 0.645500 0.545313
C5    C     C_R   0.531501 0.822713 0.354499 0.545314
C6    C     C_R   0.968498 0.322713 0.645500 0.545309
C7    C     C_R   0.031501 0.322713 0.354499 0.545314
C8    C     C_R   0.260260 0.639371 0.644168 0.545509
C9    C     C_R   0.739740 0.639370 0.355832 0.545520
C10   C     C_R   0.760260 0.139371 0.644168 0.545517
C11   C     C_R   0.239740 0.139370 0.355832 0.545522
C12   C     C_3   0.481711 0.914953 0.036124 -0.115324
C13   C     C_3   0.812454 0.036281 0.046036 -0.278666
C14   C     C_3   0.518279 0.914956 0.963874 -0.115316
C15   C     C_3   0.981711 0.414951 0.036124 -0.115326
C16   C     C_3   0.018273 0.414958 0.963871 -0.115326
C17   C     C_3   0.432020 0.818834 0.008378 -0.157706
C18   C     C_3   0.567975 0.818844 0.991620 -0.157698
C19   C     C_3   0.932022 0.318827 0.008382 -0.157708
C20   C     C_3   0.067976 0.318855 0.991613 -0.157684
C21   C     C_3   0.469824 0.819351 0.936751 0.054500
C22   C     C_3   0.530172 0.819354 0.063247 0.054498
C23   C     C_3   0.969820 0.319346 0.936752 0.054483
C24   C     C_3   0.187545 0.036290 0.953963 -0.278670
C25   C     C_3   0.030177 0.319357 0.063244 0.054483
C26   C     C_3   0.324541 0.569952 0.967235 -0.281895
C27   C     C_3   0.675451 0.569980 0.032762 -0.281902
C28   C     C_3   0.824545 0.069967 0.967236 -0.281900
C29   C     C_3   0.175449 0.069990 0.032759 -0.281908
C30   C     C_3   0.181223 0.523185 0.023393 -0.189477
C31   C     C_3   0.818775 0.523169 0.976619 -0.189527
C32   C     C_3   0.681224 0.023171 0.023385 -0.189508
C33   C     C_R   0.726931 0.043139 0.145853 0.555675
C34   C     C_3   0.318776 0.023183 0.976617 -0.189538
C35   C     C_3   0.237055 0.711198 0.057530 -0.033403
C36   C     C_3   0.762954 0.711191 0.942474 -0.033387
C37   C     C_3   0.737047 0.211191 0.057525 -0.033392
C38   C     C_3   0.262951 0.211199 0.942470 -0.033372
C39   C     C_3   0.240144 0.577487 0.070585 0.085000
C40   C     C_3   0.759860 0.577480 0.929419 0.085002
C41   C     C_3   0.740140 0.077481 0.070581 0.085000
C42   C     C_3   0.259859 0.077487 0.929417 0.084998
C43   C     C_3   0.257142 0.616006 0.933263 0.070467
C44   C     C_R   0.773069 0.543138 0.854148 0.555679
C45   C     C_3   0.742855 0.616004 0.066739 0.070451
C46   C     C_3   0.757143 0.115999 0.933261 0.070457
C47   C     C_3   0.242853 0.116014 0.066736 0.070444
C48   C     C_3   0.202194 0.520823 0.943779 -0.046903
C49   C     C_3   0.797781 0.520784 0.056225 -0.046960
C50   C     C_3   0.702211 0.020792 0.943775 -0.046947
C51   C     C_3   0.297779 0.020793 0.056222 -0.046958
C52   C     C_3   0.235459 0.729227 0.974837 -0.208231
C53   C     C_3   0.764557 0.729216 0.025166 -0.208263
C54   C     C_3   0.735447 0.229215 0.974832 -0.208249
C55   C     C_R   0.226933 0.543143 0.145855 0.555673
C56   C     C_3   0.264553 0.229227 0.025162 -0.208277
C57   C     C_3   0.497887 0.699699 0.459716 -0.237229
C58   C     C_3   0.502112 0.699699 0.540284 -0.237228
C59   C     C_3   0.997887 0.199699 0.459716 -0.237229
C60   C     C_3   0.002112 0.199699 0.540284 -0.237228
C61   C     C_R   0.442995 0.816866 0.862242 0.532256
C62   C     C_R   0.557002 0.816868 0.137757 0.532252
C63   C     C_R   0.942993 0.316866 0.862241 0.532249
C64   C     C_R   0.057004 0.316868 0.137757 0.532247
C65   C     C_3   0.567818 0.887571 0.474972 -0.231517
C66   C     C_3   0.518692 0.722924 0.964114 -0.109906
C67   C     C_3   0.432181 0.887572 0.525027 -0.231517
C68   C     C_3   0.067818 0.387571 0.474972 -0.231516
C69   C     C_3   0.932182 0.387572 0.525027 -0.231517
C70   C     C_3   0.446810 0.899433 0.444329 -0.254592
C71   C     C_3   0.553190 0.899432 0.555670 -0.254592
C72   C     C_3   0.946810 0.399433 0.444329 -0.254592
C73   C     C_3   0.053190 0.399432 0.555670 -0.254593
C74   C     C_3   0.510350 0.827417 0.430691 0.061966
C75   C     C_3   0.489649 0.827417 0.569308 0.061967
C76   C     C_3   0.010350 0.327417 0.430691 0.061966
C77   C     C_3   0.481308 0.722921 0.035885 -0.109905
C78   C     C_3   0.989649 0.327417 0.569308 0.061967
C79   C     C_3   0.181872 0.656805 0.458225 -0.236175
C80   C     C_3   0.818128 0.656805 0.541775 -0.236175
C81   C     C_3   0.681872 0.156805 0.458225 -0.236175
C82   C     C_3   0.318128 0.156805 0.541775 -0.236175
C83   C     C_3   0.180317 0.651195 0.538665 -0.237787
C84   C     C_3   0.819683 0.651195 0.461335 -0.237787
C85   C     C_3   0.680318 0.151195 0.538665 -0.237788
C86   C     C_3   0.319683 0.151195 0.461335 -0.237787
C87   C     C_3   0.242307 0.458689 0.472837 -0.226996
C88   C     C_3   0.018695 0.222927 0.964110 -0.109899
C89   C     C_3   0.757692 0.458690 0.527165 -0.226993
C90   C     C_3   0.742307 0.958689 0.472837 -0.226996
C91   C     C_3   0.257692 0.958690 0.527165 -0.226993
C92   C     C_3   0.307941 0.634008 0.444493 -0.258927
C93   C     C_3   0.692059 0.634010 0.555506 -0.258928
C94   C     C_3   0.807941 0.134008 0.444493 -0.258927
C95   C     C_3   0.192059 0.134010 0.555506 -0.258928
C96   C     C_3   0.240122 0.574671 0.429721 0.066551
C97   C     C_3   0.759878 0.574673 0.570280 0.066550
C98   C     C_3   0.740122 0.074671 0.429721 0.066551
C99   C     C_3   0.981315 0.222919 0.035884 -0.109899
C100  C     C_3   0.259878 0.074673 0.570280 0.066551
C101  C     C_3   0.250877 0.605432 0.568148 0.064309
C102  C     C_3   0.749124 0.605431 0.431852 0.064307
C103  C     C_3   0.750877 0.105432 0.568148 0.064308
C104  C     C_3   0.249124 0.105431 0.431852 0.064306
C105  C     C_3   0.254803 0.474567 0.553913 -0.257559
C106  C     C_3   0.745198 0.474566 0.446089 -0.257561
C107  C     C_3   0.754803 0.974567 0.553913 -0.257559
C108  C     C_3   0.245198 0.974566 0.446089 -0.257561
C109  C     C_R   0.264221 0.648056 0.856458 0.581059
C110  C     C_3   0.312453 0.536277 0.046036 -0.278656
C111  C     C_R   0.735778 0.648057 0.143541 0.581109
C112  C     C_R   0.764220 0.148053 0.856458 0.581092
C113  C     C_R   0.235776 0.148067 0.143539 0.581110
C114  C     C_3   0.309665 0.661218 0.525296 -0.229908
C115  C     C_3   0.690335 0.661218 0.474702 -0.229906
C116  C     C_3   0.809665 0.161218 0.525296 -0.229909
C117  C     C_3   0.190335 0.161218 0.474702 -0.229906
C118  C     C_R   0.272881 0.044345 0.646236 0.537939
C119  C     C_R   0.727118 0.044343 0.353765 0.537942
C120  C     C_R   0.772881 0.544345 0.646236 0.537940
Cr1   Cr    Cr6+3 0.229620 0.836040 0.749110 0.997128
Cr2   Cr    Cr6+3 0.613980 0.676590 0.250790 0.994122
Cr3   Cr    Cr6+3 0.886020 0.176590 0.749210 0.994120
Cr4   Cr    Cr6+3 0.113980 0.176590 0.250790 0.994124
Cr5   Cr    Cr6+3 0.770380 0.836040 0.250890 0.997113
Cr6   Cr    Cr6+3 0.729620 0.336040 0.749110 0.997115
Cr7   Cr    Cr6+3 0.270380 0.336040 0.250890 0.997112
Cr8   Cr    Cr6+3 0.387630 0.990680 0.750730 1.010495
Cr9   Cr    Cr6+3 0.612370 0.990680 0.249270 1.010496
Cr10  Cr    Cr6+3 0.887630 0.490680 0.750730 1.010493
Cr11  Cr    Cr6+3 0.112370 0.490680 0.249270 1.010493
Cr12  Cr    Cr6+3 0.386020 0.676590 0.749210 0.994118
H1    H     H_    0.377767 0.810004 0.022064 0.085963
H2    H     H_    0.731084 0.801140 0.039635 0.080128
H3    H     H_    0.193492 0.941806 0.430501 0.120850
H4    H     H_    0.318375 0.440768 0.052445 0.133033
H5    H     H_    0.681624 0.440773 0.947565 0.133012
H6    H     H_    0.818376 0.940770 0.052440 0.133021
H7    H     H_    0.181627 0.940778 0.947567 0.133011
H8    H     H_    0.352684 0.577141 0.080523 0.115473
H9    H     H_    0.647319 0.577142 0.919470 0.115486
H10   H     H_    0.852682 0.077143 0.080527 0.115485
H11   H     H_    0.147318 0.077141 0.919466 0.115487
H12   H     H_    0.364655 0.637547 0.963250 0.132120
H13   H     H_    0.768923 0.301134 0.960362 0.080118
H14   H     H_    0.635350 0.637595 0.036740 0.132108
H15   H     H_    0.864651 0.137573 0.963254 0.132115
H16   H     H_    0.135350 0.137609 0.036733 0.132105
H17   H     H_    0.344189 0.493382 0.937453 0.125234
H18   H     H_    0.655786 0.493426 0.062548 0.125244
H19   H     H_    0.844204 0.993407 0.937453 0.125239
H20   H     H_    0.155782 0.993439 0.062546 0.125250
H21   H     H_    0.666168 0.938156 0.044800 0.076783
H22   H     H_    0.333840 0.938174 0.955201 0.076809
H23   H     H_    0.166169 0.438165 0.044801 0.076769
H24   H     H_    0.231079 0.301146 0.039629 0.080134
H25   H     H_    0.833835 0.438156 0.955204 0.076792
H26   H     H_    0.725458 0.935200 0.932376 0.137180
H27   H     H_    0.274522 0.935204 0.067609 0.137210
H28   H     H_    0.225421 0.435220 0.932357 0.137105
H29   H     H_    0.774524 0.435197 0.067616 0.137200
H30   H     H_    0.140810 0.797994 0.056869 0.214015
H31   H     H_    0.193461 0.832067 0.127426 0.231791
H32   H     H_    0.859204 0.797971 0.943129 0.214023
H33   H     H_    0.806546 0.832063 0.872579 0.231778
H34   H     H_    0.640800 0.297984 0.056864 0.214014
H35   H     H_    0.183083 0.752341 0.956218 0.140688
H36   H     H_    0.693453 0.332058 0.127421 0.231784
H37   H     H_    0.359222 0.297916 0.943122 0.214033
H38   H     H_    0.306542 0.332121 0.872604 0.231748
H39   H     H_    0.111219 0.602220 0.910961 0.234511
H40   H     H_    0.121331 0.457019 0.881919 0.239088
H41   H     H_    0.888730 0.602147 0.089142 0.234575
H42   H     H_    0.878642 0.456876 0.118040 0.239094
H43   H     H_    0.611258 0.102170 0.910880 0.234563
H44   H     H_    0.621348 0.956921 0.881949 0.239099
H45   H     H_    0.388728 0.102152 0.089145 0.234576
H46   H     H_    0.816937 0.752304 0.043784 0.140638
H47   H     H_    0.378639 0.956876 0.118033 0.239091
H48   H     H_    0.683068 0.252312 0.956213 0.140654
H49   H     H_    0.316933 0.252316 0.043780 0.140623
H50   H     H_    0.633652 0.076108 0.029063 0.162863
H51   H     H_    0.366345 0.076129 0.970948 0.162822
H52   H     H_    0.133652 0.576119 0.029087 0.162868
H53   H     H_    0.622228 0.810021 0.977926 0.085968
H54   H     H_    0.866347 0.576110 0.970947 0.162847
H55   H     H_    0.533326 0.630962 0.440891 0.136830
H56   H     H_    0.466673 0.630962 0.559110 0.136831
H57   H     H_    0.033326 0.130962 0.440891 0.136830
H58   H     H_    0.966673 0.130962 0.559110 0.136831
H59   H     H_    0.446814 0.669711 0.441517 0.117692
H60   H     H_    0.553185 0.669710 0.558484 0.117692
H61   H     H_    0.946814 0.169711 0.441517 0.117692
H62   H     H_    0.053185 0.169710 0.558484 0.117692
H63   H     H_    0.608527 0.826647 0.470236 0.110369
H64   H     H_    0.877770 0.310003 0.022075 0.085969
H65   H     H_    0.391473 0.826649 0.529763 0.110369
H66   H     H_    0.108527 0.326647 0.470236 0.110370
H67   H     H_    0.891473 0.326649 0.529763 0.110369
H68   H     H_    0.597116 0.867261 0.588614 0.103235
H69   H     H_    0.402883 0.867263 0.411385 0.103237
H70   H     H_    0.097116 0.367261 0.588614 0.103233
H71   H     H_    0.902883 0.367263 0.411385 0.103237
H72   H     H_    0.476797 0.999483 0.064434 0.118529
H73   H     H_    0.523189 0.999485 0.935560 0.118536
H74   H     H_    0.976797 0.499479 0.064436 0.118532
H75   H     H_    0.122228 0.310053 0.977909 0.085976
H76   H     H_    0.023157 0.499479 0.935542 0.118567
H77   H     H_    0.456621 0.992969 0.430069 0.122377
H78   H     H_    0.543379 0.992968 0.569930 0.122376
H79   H     H_    0.956621 0.492969 0.430069 0.122377
H80   H     H_    0.043379 0.492968 0.569930 0.122376
H81   H     H_    0.419551 0.974126 0.547636 0.130130
H82   H     H_    0.580449 0.974125 0.452363 0.130131
H83   H     H_    0.919551 0.474126 0.547636 0.130131
H84   H     H_    0.080449 0.474125 0.452363 0.130131
H85   H     H_    0.129469 0.637502 0.438671 0.138296
H86   H     H_    0.284609 0.749099 0.081157 0.112016
H87   H     H_    0.870530 0.637502 0.561330 0.138297
H88   H     H_    0.629469 0.137502 0.438671 0.138296
H89   H     H_    0.370530 0.137502 0.561330 0.138297
H90   H     H_    0.191844 0.748035 0.440514 0.116492
H91   H     H_    0.808156 0.748035 0.559485 0.116491
H92   H     H_    0.691844 0.248035 0.440514 0.116492
H93   H     H_    0.308156 0.248035 0.559485 0.116492
H94   H     H_    0.164237 0.738960 0.557603 0.136558
H95   H     H_    0.835763 0.738960 0.442396 0.136559
H96   H     H_    0.664237 0.238960 0.557603 0.136558
H97   H     H_    0.715400 0.749097 0.918852 0.112011
H98   H     H_    0.335763 0.238960 0.442396 0.136559
H99   H     H_    0.139533 0.590784 0.556158 0.117848
H100  H     H_    0.860467 0.590784 0.443843 0.117849
H101  H     H_    0.639533 0.090784 0.556158 0.117849
H102  H     H_    0.360467 0.090784 0.443843 0.117849
H103  H     H_    0.691898 0.926509 0.464856 0.109806
H104  H     H_    0.308101 0.926509 0.535149 0.109806
H105  H     H_    0.191898 0.426509 0.464856 0.109806
H106  H     H_    0.808101 0.426509 0.535149 0.109806
H107  H     H_    0.716138 0.925651 0.585263 0.102779
H108  H     H_    0.784601 0.249096 0.081149 0.112011
H109  H     H_    0.283864 0.925650 0.414740 0.102780
H110  H     H_    0.216138 0.425651 0.585263 0.102776
H111  H     H_    0.783864 0.425650 0.414740 0.102780
H112  H     H_    0.350167 0.573016 0.430313 0.120753
H113  H     H_    0.649833 0.573020 0.569688 0.120752
H114  H     H_    0.850167 0.073016 0.430313 0.120753
H115  H     H_    0.149833 0.073020 0.569688 0.120752
H116  H     H_    0.313200 0.715831 0.412358 0.101752
H117  H     H_    0.686801 0.715835 0.587639 0.101752
H118  H     H_    0.813200 0.215831 0.412358 0.101752
H119  H     H_    0.215396 0.249100 0.918847 0.112013
H120  H     H_    0.186801 0.215835 0.587639 0.101751
H121  H     H_    0.533423 0.641681 0.935134 0.126238
H122  H     H_    0.466580 0.641675 0.064865 0.126235
H123  H     H_    0.033428 0.141685 0.935129 0.126239
H124  H     H_    0.966590 0.141671 0.064864 0.126242
H125  H     H_    0.299330 0.752402 0.531068 0.110557
H126  H     H_    0.700669 0.752402 0.468928 0.110556
H127  H     H_    0.799330 0.252402 0.531068 0.110557
H128  H     H_    0.200669 0.252402 0.468928 0.110556
H129  H     H_    0.359709 0.636654 0.548270 0.132814
H130  H     H_    0.268944 0.801134 0.960368 0.080094
H131  H     H_    0.640291 0.636651 0.451729 0.132814
H132  H     H_    0.859709 0.136654 0.548270 0.132814
H133  H     H_    0.140291 0.136651 0.451729 0.132814
H134  H     H_    0.280565 0.397720 0.451139 0.132074
H135  H     H_    0.719434 0.397723 0.548863 0.132076
H136  H     H_    0.780565 0.897720 0.451139 0.132074
H137  H     H_    0.219434 0.897722 0.548863 0.132076
H138  H     H_    0.306509 0.441808 0.569499 0.120853
H139  H     H_    0.693492 0.441806 0.430501 0.120850
H140  H     H_    0.806509 0.941808 0.569499 0.120852
N1    N     N_3   0.177548 0.765079 0.092637 -0.620797
N2    N     N_3   0.822460 0.765067 0.907363 -0.620775
N3    N     N_3   0.677539 0.265069 0.092633 -0.620780
N4    N     N_3   0.322454 0.265079 0.907356 -0.620760
N5    N     N_3   0.144975 0.537336 0.893435 -0.628369
N6    N     N_3   0.854983 0.537196 0.106599 -0.628428
N7    N     N_3   0.645006 0.037233 0.893410 -0.628435
N8    N     N_3   0.354980 0.037199 0.106599 -0.628416
O1    O     O_R   0.214130 0.708570 0.829890 -0.494174
O2    O     O_R   0.542830 0.717300 0.331620 -0.530706
O3    O     O_R   0.957170 0.217300 0.668380 -0.530707
O4    O     O_R   0.042830 0.217300 0.331620 -0.530706
O5    O     O_R   0.320870 0.624890 0.673130 -0.511534
O6    O     O_R   0.679130 0.624890 0.326870 -0.511533
O7    O     O_R   0.820870 0.124890 0.673130 -0.511534
O8    O     O_R   0.179130 0.124890 0.326870 -0.511532
O9    O     O_3   0.334430 0.834430 0.749680 -0.297882
O10   O     O_3   0.665570 0.834430 0.250320 -0.297879
O11   O     O_3   0.834430 0.334430 0.749680 -0.297880
O12   O     O_R   0.785870 0.708570 0.170110 -0.494245
O13   O     O_3   0.165570 0.334430 0.250320 -0.297881
O14   O     O_R   0.236050 0.959150 0.825270 -0.530595
O15   O     O_R   0.763950 0.959150 0.174730 -0.530596
O16   O     O_R   0.736050 0.459150 0.825270 -0.530594
O17   O     O_R   0.263950 0.459150 0.174730 -0.530600
O18   O     O_R   0.332100 0.076650 0.832310 -0.483787
O19   O     O_R   0.667900 0.076650 0.167690 -0.483795
O20   O     O_R   0.832100 0.576650 0.832310 -0.483790
O21   O     O_R   0.167900 0.576650 0.167690 -0.483805
O22   O     O_R   0.446500 0.918620 0.826240 -0.502842
O23   O     O_R   0.714130 0.208570 0.829890 -0.494230
O24   O     O_R   0.553500 0.918620 0.173760 -0.502833
O25   O     O_R   0.946500 0.418620 0.826240 -0.502851
O26   O     O_R   0.053500 0.418620 0.173760 -0.502833
O27   O     O_R   0.457310 0.715830 0.831280 -0.522987
O28   O     O_R   0.542690 0.715830 0.168720 -0.522987
O29   O     O_R   0.957310 0.215830 0.831280 -0.522987
O30   O     O_R   0.042690 0.215830 0.168720 -0.522985
O31   O     O_R   0.321000 0.623520 0.824130 -0.529531
O32   O     O_R   0.679000 0.623520 0.175870 -0.529512
O33   O     O_R   0.821000 0.123520 0.824130 -0.529518
O34   O     O_R   0.285870 0.208570 0.170110 -0.494241
O35   O     O_R   0.179000 0.123520 0.175870 -0.529509
O36   O     O_R   0.213990 0.710040 0.667000 -0.529242
O37   O     O_R   0.786010 0.710040 0.333000 -0.529237
O38   O     O_R   0.713990 0.210040 0.667000 -0.529239
O39   O     O_R   0.286010 0.210040 0.333000 -0.529237
O40   O     O_R   0.235920 0.960520 0.674260 -0.513710
O41   O     O_R   0.764080 0.960520 0.325740 -0.513708
O42   O     O_R   0.735920 0.460520 0.674260 -0.513709
O43   O     O_R   0.264080 0.460520 0.325740 -0.513709
O44   O     O_R   0.331960 0.078120 0.669410 -0.533609
O45   O     O_R   0.446360 0.919990 0.675230 -0.507053
O46   O     O_R   0.668040 0.078120 0.330590 -0.533613
O47   O     O_R   0.831960 0.578120 0.669410 -0.533611
O48   O     O_R   0.168040 0.578120 0.330590 -0.533612
O49   O     O_R   0.553640 0.919990 0.324770 -0.507053
O50   O     O_R   0.946360 0.419990 0.675230 -0.507054
O51   O     O_R   0.053640 0.419990 0.324770 -0.507052
O52   O     O_R   0.457170 0.717300 0.668380 -0.530706

loop_
_geom_bond_atom_site_label_1
_geom_bond_atom_site_label_2
_ccdc_geom_bond_type
C46   C112  S    
C73   H80   S    
C34   C42   S    
C106  H111  S    
Cr11  O48   S    
C1    O14   A    
C85   H101  S    
C14   C21   S    
C90   C107  S    
H41   N6    S    
H30   N1    S    
C105  H138  S    
Cr11  O13   S    
C5    C74   S    
Cr12  O9    S    
C36   C53   S    
H36   N3    S    
C120  O42   A    
Cr6   O23   S    
C89   C106  S    
C70   C74   S    
C63   O29   A    
C91   C100  S    
C64   O26   A    
H39   N5    S    
C59   C60   S    
C8    O36   A    
C88   C99   S    
C36   N2    S    
Cr5   O15   S    
Cr6   O16   S    
C5    O49   A    
C1    O18   A    
H44   N7    S    
C19   C99   S    
C81   H88   S    
C118  O40   A    
C17   C21   S    
Cr8   O44   S    
Cr10  O20   S    
C19   C23   S    
C116  H132  S    
C109  O1    A    
C66   H121  S    
C16   C20   S    
C109  O31   A    
C85   H96   S    
C13   H10   S    
C31   H25   S    
C93   H113  S    
C72   H71   S    
C111  O32   A    
Cr11  O26   S    
C58   H60   S    
C59   H57   S    
Cr12  O27   S    
C79   H90   S    
C104  C117  S    
C112  O33   A    
C66   C77   S    
C28   H15   S    
C107  H140  S    
C89   H106  S    
C26   H17   S    
C95   H120  S    
C45   C111  S    
Cr6   O42   S    
C103  C116  S    
C79   C96   S    
C80   H91   S    
C50   N7    S    
C90   H103  S    
C6    O50   A    
C84   H100  S    
C57   H55   S    
C15   H74   S    
Cr11  O51   S    
C87   H134  S    
C33   O19   A    
C2    C40   S    
C60   H58   S    
C81   C98   S    
Cr8   O45   S    
C103  C107  S    
Cr9   O24   S    
C21   C66   S    
C69   C72   S    
C84   C102  S    
C110  H4    S    
Cr9   O46   S    
Cr2   O10   S    
C56   H24   S    
C86   C104  S    
C29   H16   S    
C92   H116  S    
C71   H68   S    
C50   H26   S    
C48   H28   S    
C28   C46   S    
C34   C51   S    
C29   C47   S    
C30   C48   S    
C43   C52   S    
C6    C78   S    
C24   H11   S    
C12   C22   S    
C92   C96   S    
C95   H115  S    
C3    O43   A    
C108  H109  S    
C32   C41   S    
C44   O20   A    
Cr7   O43   S    
C49   H29   S    
H40   N5    S    
Cr7   O13   S    
C45   C53   S    
C106  H139  S    
Cr2   O28   S    
H37   N4    S    
Cr1   O1    S    
C94   H118  S    
C55   O17   A    
C61   O27   A    
C88   H123  S    
Cr4   O4    S    
Cr7   O39   S    
C5    O2    A    
C113  O35   A    
C108  H3    S    
C95   C117  S    
C36   H97   S    
Cr9   O19   S    
C65   C74   S    
C25   C64   S    
Cr4   O35   S    
C99   H124  S    
Cr12  O5    S    
C87   C105  S    
C34   H51   S    
C2    C27   S    
C116  H127  S    
H47   N8    S    
C16   C23   S    
C23   C88   S    
C44   O16   A    
C67   C75   S    
C93   C97   S    
C81   H92   S    
C83   C101  S    
C18   C22   S    
Cr11  O21   S    
C85   C103  S    
Cr9   O10   S    
C7    C76   S    
C18   C66   S    
C119  O46   A    
C52   H130  S    
C18   H53   S    
C67   C70   S    
C62   O24   A    
C13   H6    S    
C57   C58   S    
C83   H99   S    
C30   C39   S    
C12   H72   S    
Cr12  O31   S    
C37   C41   S    
C114  H125  S    
C40   C44   S    
C120  O47   A    
C38   C56   S    
C28   H19   S    
C64   O30   A    
C7    O51   A    
C43   C109  S    
C20   H75   S    
C84   H95   S    
C35   N1    S    
C59   C76   S    
C81   C85   S    
C47   C56   S    
C83   H94   S    
C20   C25   S    
C87   H105  S    
C24   C42   S    
C6    O3    A    
C80   C84   S    
C80   H87   S    
C13   C41   S    
C48   N5    S    
Cr1   O36   S    
C15   C19   S    
C86   H102  S    
H32   N2    S    
C10   C103  S    
H43   N7    S    
C57   H59   S    
C52   H35   S    
C80   C97   S    
C72   H79   S    
C56   H49   S    
C94   C98   S    
C31   C40   S    
C24   C29   S    
C4    C75   S    
Cr5   O37   S    
C102  C115  S    
H45   N8    S    
C25   C99   S    
C39   C55   S    
C9    C102  S    
C119  O41   A    
C63   O25   A    
C12   C17   S    
Cr3   O33   S    
C13   C28   S    
Cr4   O30   S    
C11   C104  S    
H33   N2    S    
Cr3   O11   S    
C8    C101  S    
C21   C61   S    
C27   C45   S    
C23   C63   S    
C3    O48   A    
H38   N4    S    
C101  C114  S    
C82   C100  S    
C31   C49   S    
C34   H22   S    
C24   H7    S    
C62   O28   A    
C4    O52   A    
C86   H98   S    
C117  H128  S    
C94   C116  S    
C95   C100  S    
C37   H108  S    
C47   C51   S    
C16   H76   S    
C82   C86   S    
C107  H107  S    
C59   H61   S    
C61   O22   A    
C89   H135  S    
C35   C39   S    
Cr7   O17   S    
Cr8   O22   S    
Cr10  O50   S    
C45   C49   S    
C60   C78   S    
C46   C54   S    
Cr2   O32   S    
Cr3   O29   S    
C94   H114  S    
Cr3   O7    S    
C9    O37   A    
C8    O5    A    
Cr4   O8    S    
C30   H23   S    
C11   O39   A    
C100  C118  S    
C105  H110  S    
C104  C108  S    
H31   N1    S    
C47   C113  S    
C2    H5    S    
C91   C108  S    
C53   H2    S    
C22   C77   S    
C67   H65   S    
Cr10  O25   S    
C73   H70   S    
Cr5   O41   S    
C33   C41   S    
C65   H82   S    
C79   C83   S    
C27   H14   S    
C20   C88   S    
C4    O45   A    
C51   N8    S    
C68   H84   S    
H34   N3    S    
C79   H85   S    
C111  O12   A    
C32   H21   S    
C1    C42   S    
C14   H73   S    
C35   C52   S    
C7    O4    A    
C58   C75   S    
C65   H63   S    
C71   C75   S    
C14   C18   S    
C90   H136  S    
C69   H83   S    
C72   C76   S    
Cr9   O49   S    
C53   H46   S    
C60   H62   S    
C98   C119  S    
C82   H89   S    
C9    O6    A    
C113  O34   A    
C32   H50   S    
C114  H129  S    
C11   O8    A    
C38   C42   S    
Cr12  O52   S    
C15   C16   S    
C112  O23   A    
C118  O44   A    
C68   H66   S    
C93   C115  S    
C39   C110  S    
C73   C78   S    
C3    C96   S    
C43   C48   S    
C26   C110  S    
Cr5   O10   S    
C70   H69   S    
Cr1   O14   S    
C69   C78   S    
C26   H12   S    
C17   C77   S    
C93   H117  S    
C26   C43   S    
C101  C105  S    
C82   H93   S    
C58   H56   S    
C36   C40   S    
Cr6   O38   S    
C55   O21   A    
C68   C73   S    
C65   C71   S    
C91   H104  S    
Cr10  O47   S    
C89   C97   S    
C57   C74   S    
Cr10  O11   S    
C22   C62   S    
Cr2   O2    S    
C38   H119  S    
C71   H78   S    
C87   C96   S    
C33   O15   A    
C68   C76   S    
C32   C50   S    
C115  H131  S    
C37   C54   S    
Cr8   O9    S    
H42   N6    S    
C12   C14   S    
C54   H13   S    
C67   H81   S    
Cr4   O13   S    
C35   H86   S    
C2    H9    S    
C30   H52   S    
C10   O7    A    
C77   H122  S    
C91   H137  S    
C115  H126  S    
Cr8   O18   S    
C46   C50   S    
Cr1   O9    S    
C97   C120  S    
C110  H8    S    
Cr2   O6    S    
Cr3   O3    S    
C37   N3    S    
C29   H20   S    
C17   H1    S    
C92   H112  S    
C38   N4    S    
C10   O38   A    
C49   N6    S    
Cr1   O40   S    
C31   H54   S    
C51   H27   S    
C54   H48   S    
C102  C106  S    
C117  H133  S    
Cr5   O12   S    
Cr6   O11   S    
C19   H64   S    
Cr7   O34   S    
C15   C25   S    
C69   H67   S    
C70   H77   S    
C92   C114  S    
C90   C98   S    
C27   H18   S    
