data_mof_unit_6143.cif
_audit_creation_date              2012-12-11T15:45:00-0500
_audit_creation_method            fapswitch 2.2
_symmetry_space_group_name_H-M    P1
_symmetry_Int_Tables_number       1
_space_group_crystal_system       triclinic
_cell_length_a                    6.933213
_cell_length_b                    16.818512
_cell_length_c                    17.055289
_cell_angle_alpha                 100.356775
_cell_angle_beta                  88.234382
_cell_angle_gamma                 91.62317
_cell_volume                      1954.89855556

loop_
_atom_site_label
_atom_site_type_symbol
_atom_type_description
_atom_site_fract_x
_atom_site_fract_y
_atom_site_fract_z
_atom_type_partial_charge
O1    O     O_R   0.494370 0.415690 0.413450 -0.540556
O2    O     O_R   0.819420 0.429360 0.578420 -0.540653
O3    O     O_R   0.994280 0.584310 0.586550 -0.540652
C1    C     C_R   0.646122 0.413202 0.604708 0.703248
O4    O     O_R   0.823790 0.406230 0.413570 -0.543314
O5    O     O_R   0.998670 0.561000 0.420530 -0.534014
C2    C     C_R   0.655057 0.383057 0.384947 0.685937
O6    O     O_R   0.489970 0.439000 0.579470 -0.540714
O7    O     O_3   0.662300 0.550810 0.502470 -0.367360
V1    V     V_3+5 0.935380 0.490570 0.499540 1.400263
O8    O     O_R   0.328650 0.570640 0.421580 -0.542219
C3    C     C_R   0.163579 0.586880 0.395149 0.696666
O9    O     O_R   0.324290 0.593770 0.586430 -0.543992
C4    C     C_R   0.154918 0.617062 0.614982 0.682069
V2    V     V_3+5 0.435930 0.509430 0.500460 1.398301
O10   O     O_3   0.159140 0.449190 0.497530 -0.368750
C5    C     C_R   0.312284 0.724142 0.717191 -0.158277
H1    H     H_    0.453319 0.705021 0.693248 0.117376
C6    C     C_R   0.301231 0.787897 0.782351 -0.153815
H2    H     H_    0.434264 0.816040 0.806449 0.118324
C7    C     C_R   0.121293 0.814926 0.815804 -0.046689
C8    C     C_R   0.952718 0.776536 0.782091 -0.156994
H3    H     H_    0.811673 0.795683 0.805999 0.116494
C9    C     C_R   0.963770 0.712778 0.716939 -0.151368
H4    H     H_    0.830729 0.684659 0.692823 0.118696
C10   C     C_R   0.143711 0.685617 0.683615 -0.047338
C11   C     C_R   0.167555 0.639180 0.333241 -0.069853
C12   C     C_R   0.095562 0.861845 0.167811 -0.081071
C13   C     C_R   0.933198 0.824681 0.286619 -0.003273
C14   C     C_R   0.953355 0.874829 0.228856 -0.203175
C15   C     C_R   0.220813 0.797200 0.164889 -0.230782
C16   C     C_R   0.200414 0.744579 0.220690 0.151295
C17   C     C_R   0.055969 0.757649 0.282302 0.111355
C18   C     C_R   0.042472 0.704460 0.338447 -0.249588
C19   C     C_R   0.307693 0.627189 0.271393 -0.178625
C20   C     C_R   0.323464 0.678908 0.215670 -0.179831
H5    H     H_    0.940777 0.714751 0.388309 0.128760
H6    H     H_    0.406992 0.577858 0.266605 0.120750
H7    H     H_    0.434358 0.668095 0.169071 0.117919
H8    H     H_    0.856324 0.924768 0.231514 0.125332
H9    H     H_    0.330293 0.786365 0.117662 0.119318
C21   C     C_R   0.617797 0.359231 0.664574 -0.070521
C22   C     C_R   0.646873 0.140582 0.835238 -0.070434
C23   C     C_R   0.864427 0.196957 0.742554 -0.205254
C24   C     C_R   0.826840 0.142731 0.794556 -0.163895
C25   C     C_R   0.503312 0.193391 0.821466 -0.242252
C26   C     C_R   0.541070 0.248754 0.769563 0.160406
C27   C     C_R   0.723399 0.250841 0.730012 0.160688
C28   C     C_R   0.761246 0.306303 0.678209 -0.243155
C29   C     C_R   0.437694 0.356944 0.705128 -0.163121
C30   C     C_R   0.400003 0.302607 0.757000 -0.202877
H10   H     H_    0.900062 0.306844 0.647229 0.124587
H11   H     H_    0.323932 0.397049 0.696347 0.131524
H12   H     H_    0.004526 0.197053 0.712582 0.119899
H13   H     H_    0.259848 0.302455 0.786919 0.121534
H14   H     H_    0.940598 0.102638 0.803370 0.130673
H15   H     H_    0.364530 0.192890 0.852478 0.125382
C31   C     C_R   0.811380 0.275649 0.282364 -0.157784
H16   H     H_    0.951805 0.294462 0.306073 0.116216
C32   C     C_R   0.800052 0.211846 0.217273 -0.152553
H17   H     H_    0.932389 0.183381 0.193027 0.118275
C33   C     C_R   0.620844 0.185155 0.184092 -0.046460
C34   C     C_R   0.453261 0.224012 0.217988 -0.156734
H18   H     H_    0.312835 0.205192 0.194282 0.116152
C35   C     C_R   0.464588 0.287814 0.283082 -0.152431
H19   H     H_    0.332249 0.316270 0.307337 0.118564
C36   C     C_R   0.643818 0.314565 0.316205 -0.047176
O11   O     O_R   0.774880 0.061150 0.920630 -0.540861
O12   O     O_R   0.440980 0.093710 0.086500 -0.543333
O13   O     O_R   0.266190 0.938890 0.079390 -0.534869
C37   C     C_R   0.609670 0.116807 0.115214 0.687288
O14   O     O_R   0.445420 0.070740 0.921670 -0.540925
O15   O     O_R   0.270660 0.915760 0.913380 -0.541367
C38   C     C_R   0.618685 0.086823 0.895300 0.702791
O16   O     O_R   0.770400 0.084270 0.086640 -0.541023
O17   O     O_3   0.602590 0.949210 0.997500 -0.367569
V3    V     V_3+5 0.329470 0.009420 0.000470 1.400564
O18   O     O_R   0.940650 0.906250 0.913470 -0.544063
C39   C     C_R   0.110046 0.883179 0.884741 0.682375
O19   O     O_R   0.936210 0.929220 0.078300 -0.540054
C40   C     C_R   0.101144 0.913157 0.104942 0.708803
V4    V     V_3+5 0.828930 0.990510 0.999490 1.402419
O20   O     O_3   0.105680 0.050790 0.002500 -0.369427
C41   C     C_R   0.783531 0.845340 0.350631 0.082301
C42   C     C_R   0.787727 0.921955 0.399863 -0.132071
C43   C     C_R   0.645692 0.942442 0.459536 -0.117342
C44   C     C_R   0.498289 0.886786 0.470430 -0.104571
C45   C     C_R   0.492343 0.810693 0.421488 -0.097640
C46   C     C_R   0.633243 0.790202 0.361332 -0.129640
H20   H     H_    0.901569 0.965597 0.392285 0.109252
H21   H     H_    0.650154 0.001427 0.497441 0.112350
H22   H     H_    0.388822 0.902573 0.516831 0.107678
H23   H     H_    0.378835 0.767601 0.430451 0.117292
H24   H     H_    0.627008 0.731188 0.323659 0.123190

loop_
_geom_bond_atom_site_label_1
_geom_bond_atom_site_label_2
_ccdc_geom_bond_type
C44   C45   A    
C34   C35   A    
C18   H5    S    
O12   V3    S    
C19   C20   A    
C1    O6    A    
C15   C16   A    
C42   C43   A    
O14   V3    S    
C5    C10   A    
C16   C20   A    
C6    C7    A    
C9    C10   A    
C43   H21   S    
O5    C3    A    
V3    O20   S    
C31   C32   A    
V2    O10   S    
C13   C17   A    
C32   C33   A    
C46   H24   S    
O12   C37   A    
O13   C40   A    
C25   C26   A    
O8    V2    S    
C41   C42   A    
C6    H2    S    
C24   H14   S    
C35   C36   A    
O1    V2    S    
O9    C4    A    
O7    V1    S    
C22   C38   S    
C44   H22   S    
O13   V3    S    
C29   C30   A    
C20   H7    S    
C11   C18   A    
C29   H11   S    
C3    C11   S    
C19   H6    S    
C9    H4    S    
C13   C41   S    
O14   C38   A    
O17   V4    S    
O4    C2    A    
C43   C44   A    
C26   C30   A    
C11   C19   A    
C31   H16   S    
C4    C10   S    
C32   H17   S    
O2    C1    A    
C13   C14   A    
O18   V4    S    
C26   C27   A    
C42   H20   S    
C28   H10   S    
C7    C39   S    
C33   C34   A    
C5    H1    S    
O15   C39   A    
C14   H8    S    
O17   V3    S    
C22   C24   A    
O3    C4    A    
C21   C29   A    
O19   V4    S    
C27   C28   A    
V4    O20   S    
O6    V2    S    
O9    V2    S    
C25   H15   S    
C8    C9    A    
C41   C46   A    
O2    V1    S    
C23   C24   A    
C45   H23   S    
C15   H9    S    
C12   C40   S    
O1    C2    A    
C12   C15   A    
O19   C40   A    
O5    V1    S    
O8    C3    A    
O16   V4    S    
O11   V4    S    
C16   C17   A    
C12   C14   A    
O7    V2    S    
O4    V1    S    
O3    V1    S    
V1    O10   S    
C37   O16   A    
O18   C39   A    
C1    C21   S    
C5    C6    A    
C17   C18   A    
C33   C37   S    
C30   H13   S    
C22   C25   A    
C21   C28   A    
C2    C36   S    
C34   H18   S    
C23   H12   S    
C31   C36   A    
C45   C46   A    
C35   H19   S    
O15   V3    S    
C8    H3    S    
C7    C8    A    
O11   C38   A    
C23   C27   A    
