data_mof_unit_10265.cif
_audit_creation_date              2013-03-05T15:51:03-0500
_audit_creation_method            fapswitch 2.2
_symmetry_space_group_name_H-M    P1
_symmetry_Int_Tables_number       1
_space_group_crystal_system       triclinic
_cell_length_a                    19.231098
_cell_length_b                    11.085027
_cell_length_c                    18.669679
_cell_angle_alpha                 89.566111
_cell_angle_beta                  89.81815
_cell_angle_gamma                 89.805018
_cell_volume                      3979.79376501

loop_
_atom_site_label
_atom_site_type_symbol
_atom_site_description
_atom_site_fract_x
_atom_site_fract_y
_atom_site_fract_z
_atom_type_partial_charge
O1    O     O_R   0.784290 0.290360 0.830540 -0.499516
O2    O     O_R   0.215710 0.290360 0.169460 -0.437559
O3    O     O_R   0.284290 0.790360 0.830540 -0.514343
O4    O     O_R   0.715710 0.790360 0.169460 -0.427794
O5    O     O_R   0.762610 0.041070 0.825230 -0.508424
O6    O     O_R   0.237390 0.041070 0.174770 -0.520817
O7    O     O_R   0.262610 0.541070 0.825230 -0.500287
O8    O     O_R   0.737390 0.541070 0.174770 -0.532050
C1    C     C_R   0.727519 0.954800 0.852975 0.543978
C2    C     C_R   0.275340 0.961337 0.144428 0.573777
C3    C     C_R   0.227522 0.454793 0.852969 0.564129
C4    C     C_R   0.775344 0.461345 0.144424 0.568813
O9    O     O_R   0.667390 0.924160 0.829970 -0.463836
O10   O     O_R   0.332610 0.924160 0.170030 -0.465112
O11   O     O_R   0.167390 0.424160 0.829970 -0.454395
O12   O     O_R   0.832610 0.424160 0.170030 -0.464840
O13   O     O_R   0.553980 0.081420 0.821780 -0.442244
O14   O     O_R   0.446020 0.081420 0.178220 -0.456351
O15   O     O_R   0.053980 0.581420 0.821780 -0.436547
O16   O     O_R   0.946020 0.581420 0.178220 -0.456547
C5    C     C_R   0.529787 0.176152 0.850993 0.558430
C6    C     C_R   0.471296 0.177856 0.150194 0.563694
C7    C     C_R   0.029788 0.676152 0.850993 0.557420
C8    C     C_R   0.971295 0.677854 0.150192 0.555716
O17   O     O_R   0.543210 0.283170 0.826740 -0.472750
O18   O     O_R   0.456790 0.283170 0.173260 -0.514646
O19   O     O_R   0.043210 0.783170 0.826740 -0.472841
O20   O     O_R   0.956790 0.783170 0.173260 -0.514301
O21   O     O_R   0.678350 0.375000 0.822720 -0.473939
O22   O     O_R   0.321650 0.375000 0.177280 -0.468884
O23   O     O_R   0.178350 0.875000 0.822720 -0.478172
O24   O     O_R   0.821650 0.875000 0.177280 -0.460307
C9    C     C_R   0.737780 0.364093 0.852216 0.550232
C10   C     C_R   0.275967 0.314092 0.140253 0.557956
C11   C     C_R   0.237780 0.864096 0.852217 0.533645
C12   C     C_R   0.775965 0.814103 0.140249 0.562516
O25   O     O_R   0.785060 0.289300 0.670580 -0.469902
O26   O     O_R   0.214940 0.289300 0.329420 -0.491681
O27   O     O_R   0.285060 0.789300 0.670580 -0.517883
O28   O     O_R   0.714940 0.789300 0.329420 -0.421879
O29   O     O_R   0.763330 0.040090 0.676940 -0.531370
O30   O     O_R   0.236670 0.040090 0.323060 -0.472892
O31   O     O_R   0.263330 0.540090 0.676940 -0.474346
O32   O     O_R   0.736670 0.540090 0.323060 -0.522480
C13   C     C_R   0.730533 0.950598 0.650780 0.547629
C14   C     C_R   0.290373 0.001963 0.359970 0.533210
C15   C     C_R   0.213076 0.496585 0.639497 0.547367
C16   C     C_R   0.769102 0.447978 0.349077 0.523269
O33   O     O_R   0.668160 0.923110 0.670000 -0.454377
O34   O     O_R   0.331840 0.923110 0.330000 -0.452733
O35   O     O_R   0.168160 0.423110 0.670000 -0.490632
O36   O     O_R   0.831840 0.423110 0.330000 -0.490007
O37   O     O_R   0.554690 0.080440 0.673480 -0.455128
O38   O     O_R   0.445310 0.080440 0.326520 -0.488239
O39   O     O_R   0.054690 0.580440 0.673480 -0.467950
O40   O     O_R   0.945310 0.580440 0.326520 -0.440706
C17   C     C_R   0.533292 0.174670 0.643183 0.564836
C18   C     C_R   0.471276 0.177727 0.353353 0.570852
C19   C     C_R   0.032339 0.677866 0.643555 0.588459
C20   C     C_R   0.970677 0.673732 0.354471 0.551375
O41   O     O_R   0.543980 0.282110 0.666770 -0.542860
O42   O     O_R   0.456020 0.282110 0.333230 -0.472963
O43   O     O_R   0.043980 0.782110 0.666770 -0.500927
O44   O     O_R   0.956020 0.782110 0.333230 -0.521953
O45   O     O_R   0.679070 0.374030 0.674430 -0.536878
O46   O     O_R   0.320930 0.374030 0.325570 -0.501332
O47   O     O_R   0.179070 0.874030 0.674430 -0.510200
O48   O     O_R   0.820930 0.874030 0.325570 -0.495760
C21   C     C_R   0.723761 0.309898 0.638988 0.541619
C22   C     C_R   0.260014 0.364259 0.351808 0.521213
C23   C     C_R   0.241322 0.867294 0.649144 0.517403
C24   C     C_R   0.774107 0.814357 0.361520 0.540684
Cr1   Cr    Cr6+3 0.769260 0.163750 0.750730 1.082230
Cr2   Cr    Cr6+3 0.230740 0.163750 0.249270 1.107061
Cr3   Cr    Cr6+3 0.269260 0.663750 0.750730 1.059044
Cr4   Cr    Cr6+3 0.730740 0.663750 0.249270 1.101928
Cr5   Cr    Cr6+3 0.612640 0.009910 0.748780 1.148236
Cr6   Cr    Cr6+3 0.387360 0.009910 0.251220 1.144712
Cr7   Cr    Cr6+3 0.112640 0.509910 0.748780 1.161010
Cr8   Cr    Cr6+3 0.887360 0.509910 0.251220 1.146398
Cr9   Cr    Cr6+3 0.614190 0.322400 0.747710 1.069063
Cr10  Cr    Cr6+3 0.385810 0.322400 0.252290 1.094074
Cr11  Cr    Cr6+3 0.114190 0.822400 0.747710 1.106919
Cr12  Cr    Cr6+3 0.885810 0.822400 0.252290 1.090697
O49   O     O_3   0.665360 0.165350 0.749070 -0.319289
O50   O     O_3   0.334640 0.165350 0.250930 -0.358895
O51   O     O_3   0.165360 0.665350 0.749070 -0.323838
O52   O     O_3   0.834640 0.665350 0.250930 -0.352725
C25   C     C_2   0.498471 0.160293 0.922791 -0.163809
C26   C     C_2   0.504768 0.170070 0.079874 -0.130069
C27   C     C_2   0.998470 0.660294 0.922790 -0.163932
C28   C     C_2   0.004768 0.670055 0.079872 -0.131712
C29   C     C_2   0.510322 0.064576 0.044667 0.155364
C30   C     C_2   0.513287 0.061420 0.964584 0.139332
C31   C     C_2   0.010307 0.564558 0.044661 0.156712
C32   C     C_2   0.013274 0.561409 0.964577 0.138011
H1    H     H_    0.511786 0.255285 0.052277 0.092318
H2    H     H_    0.474677 0.239893 0.945492 0.116544
H3    H     H_    0.011800 0.755270 0.052278 0.093371
H4    H     H_    0.974687 0.739901 0.945495 0.115769
C33   C     C_R   0.764662 0.441869 0.068699 0.030957
C34   C     C_R   0.255235 0.397860 0.917840 0.027880
C35   C     C_R   0.264660 0.941869 0.068699 0.029398
C36   C     C_R   0.755245 0.897843 0.917831 0.027605
C37   C     C_R   0.700286 0.462412 0.037272 -0.047858
C38   C     C_R   0.305214 0.457065 0.959243 -0.004836
C39   C     C_R   0.200288 0.962439 0.037266 -0.048249
C40   C     C_R   0.805234 0.957036 0.959224 -0.003500
C41   C     C_R   0.692014 0.454173 0.964151 0.038020
C42   C     C_R   0.314827 0.426745 0.030669 0.016467
C43   C     C_R   0.192020 0.954201 0.964144 0.039078
C44   C     C_R   0.814828 0.926751 0.030659 0.016076
C45   C     C_R   0.815291 0.425326 0.949664 -0.161033
C46   C     C_R   0.233012 0.264638 0.018990 -0.115171
C47   C     C_R   0.315293 0.925317 0.949664 -0.161181
C48   C     C_R   0.733014 0.764640 0.018986 -0.114881
C49   C     C_R   0.823193 0.434969 0.023455 -0.146974
C50   C     C_R   0.224885 0.292737 0.946239 -0.086818
C51   C     C_R   0.323193 0.934946 0.023457 -0.146454
C52   C     C_R   0.724890 0.792729 0.946234 -0.086939
C53   C     C_3   0.630967 0.410424 0.053881 -0.243447
C54   C     C_3   0.315975 0.588812 0.972334 -0.208804
C55   C     C_3   0.130959 0.910487 0.053870 -0.241966
C56   C     C_3   0.816014 0.088784 0.972284 -0.208358
C57   C     C_3   0.620764 0.401194 0.973114 0.096899
C58   C     C_3   0.325962 0.555947 0.050925 0.104153
C59   C     C_3   0.120765 0.901243 0.973101 0.095788
C60   C     C_3   0.825951 0.055973 0.050886 0.101352
C61   C     C_R   0.748462 0.423283 0.920133 -0.011465
C62   C     C_R   0.274633 0.336630 0.063093 0.027352
C63   C     C_R   0.248466 0.923297 0.920129 -0.008476
C64   C     C_R   0.774629 0.836646 0.063089 0.025675
H5    H     H_    0.860695 0.408681 0.916852 0.202666
H6    H     H_    0.202160 0.193318 0.042143 0.162116
H7    H     H_    0.360698 0.908656 0.916854 0.199419
H8    H     H_    0.702165 0.693316 0.042140 0.161600
H9    H     H_    0.874931 0.434554 0.045158 0.192331
H10   H     H_    0.188603 0.240690 0.914883 0.199556
H11   H     H_    0.374932 0.934498 0.045162 0.192120
H12   H     H_    0.688603 0.740687 0.914881 0.198770
H13   H     H_    0.096319 0.976973 0.080619 0.193129
H14   H     H_    0.768913 0.144095 0.960852 0.163262
H15   H     H_    0.596320 0.476887 0.080639 0.190842
H16   H     H_    0.268857 0.644101 0.960941 0.163953
H17   H     H_    0.634982 0.321315 0.081286 0.164331
H18   H     H_    0.364362 0.622533 0.946476 0.180370
H19   H     H_    0.134957 0.821384 0.081283 0.163441
H20   H     H_    0.864420 0.122456 0.946442 0.181467
H21   H     H_    0.616025 0.307211 0.953615 0.103044
H22   H     H_    0.379312 0.573448 0.071176 0.168714
H23   H     H_    0.116021 0.807256 0.953609 0.102894
H24   H     H_    0.879288 0.073501 0.071167 0.168518
C65   C     C_R   0.503713 0.179020 0.421811 -0.038042
C66   C     C_R   0.513928 0.159207 0.569682 -0.055458
C67   C     C_R   0.008010 0.652541 0.420552 -0.017205
C68   C     C_R   0.015116 0.673424 0.568883 -0.023376
C69   C     C_R   0.487041 0.275505 0.466713 0.012713
C70   C     C_R   0.488769 0.261699 0.538261 -0.060707
C71   C     C_R   0.042279 0.748499 0.451338 -0.109699
C72   C     C_R   0.048147 0.755764 0.523990 -0.121791
C73   C     C_R   0.542561 0.066432 0.524711 0.151660
C74   C     C_R   0.539000 0.079311 0.449306 0.148038
C75   C     C_R   0.986762 0.569565 0.539972 0.165638
C76   C     C_R   0.992277 0.549886 0.464906 0.124452
C77   C     C_3   0.424165 0.356231 0.472481 -0.120208
C78   C     C_3   0.425956 0.335617 0.553327 -0.125638
C79   C     C_3   0.036165 0.882149 0.442153 -0.091428
C80   C     C_3   0.044501 0.890016 0.522704 -0.077715
H25   H     H_    0.984715 0.913743 0.423842 0.228403
H26   H     H_    0.094474 0.925228 0.540702 0.194985
H27   H     H_    0.377834 0.318983 0.445436 0.114077
H28   H     H_    0.437992 0.416080 0.586326 0.169937
C81   C     C_R   0.738900 0.376874 0.410057 -0.018564
C82   C     C_R   0.233421 0.467375 0.566830 0.021811
C83   C     C_R   0.279222 0.983553 0.436852 -0.044143
C84   C     C_R   0.761412 0.899065 0.586201 0.047395
C85   C     C_R   0.783454 0.303974 0.448456 -0.024258
C86   C     C_R   0.197600 0.374461 0.536567 0.025248
C87   C     C_R   0.323410 0.905791 0.472925 0.081930
C88   C     C_R   0.750407 0.783340 0.561567 0.040958
C89   C     C_R   0.773019 0.270483 0.519385 -0.049714
C90   C     C_R   0.207405 0.343062 0.466277 -0.053492
C91   C     C_R   0.313446 0.877091 0.543813 -0.000420
C92   C     C_R   0.756975 0.758098 0.489858 -0.026828
C93   C     C_R   0.665035 0.382516 0.517678 -0.016665
C94   C     C_R   0.278508 0.519671 0.448060 -0.049218
C95   C     C_R   0.219617 0.020649 0.550775 -0.050342
C96   C     C_R   0.802667 0.952421 0.465960 -0.002858
C97   C     C_R   0.674214 0.400211 0.441925 -0.106070
C98   C     C_R   0.273591 0.544004 0.522302 -0.156274
C99   C     C_R   0.227562 0.043660 0.476568 -0.173885
C100  C     C_R   0.797152 0.976525 0.539636 -0.126503
C101  C     C_3   0.856405 0.331733 0.460201 -0.158295
C102  C     C_3   0.121815 0.383066 0.527739 -0.162383
C103  C     C_3   0.399331 0.920136 0.482339 -0.195942
C104  C     C_3   0.699887 0.684662 0.574042 -0.207442
C105  C     C_3   0.848264 0.287552 0.535002 -0.191167
C106  C     C_3   0.131888 0.338296 0.453257 -0.157791
C107  C     C_3   0.389033 0.885360 0.559685 -0.220001
C108  C     C_3   0.709485 0.655694 0.494574 -0.223675
C109  C     C_R   0.718929 0.320943 0.558624 -0.039417
C110  C     C_R   0.248576 0.412982 0.422161 -0.047038
C111  C     C_R   0.260339 0.930105 0.583136 -0.031128
C112  C     C_R   0.773061 0.845154 0.438356 0.031889
H29   H     H_    0.636944 0.453099 0.411571 0.199554
H30   H     H_    0.296191 0.625083 0.543980 0.157949
H31   H     H_    0.194345 0.107434 0.449830 0.180196
H32   H     H_    0.815012 0.060006 0.560026 0.147220
H33   H     H_    0.864839 0.430996 0.458721 0.160828
H34   H     H_    0.106030 0.478840 0.529231 0.110998
H35   H     H_    0.413353 0.015845 0.474894 0.085110
H36   H     H_    0.646821 0.716857 0.587738 0.236366
H37   H     H_    0.888877 0.277406 0.423768 0.270819
H38   H     H_    0.092282 0.325610 0.565002 0.280521
H39   H     H_    0.429840 0.853419 0.451429 0.251172
H40   H     H_    0.721059 0.613376 0.610133 0.151799
H41   H     H_    0.880384 0.206723 0.546028 0.222316
H42   H     H_    0.111805 0.246007 0.444270 0.240178
H43   H     H_    0.411492 0.795635 0.573512 0.191880
H44   H     H_    0.741599 0.574568 0.486451 0.122843
H45   H     H_    0.854614 0.358416 0.574442 0.246033
H46   H     H_    0.117718 0.405599 0.411594 0.200039
H47   H     H_    0.401499 0.959044 0.597657 0.161356
H48   H     H_    0.662428 0.668639 0.460975 0.238205
N1    N     N_R   0.519043 0.953485 0.084917 0.129005
O53   O     O_R   0.490729 0.853538 0.063703 -0.291356
O54   O     O_R   0.561551 0.949805 0.139043 -0.225054
N2    N     N_R   0.533549 0.949039 0.932473 0.140443
O55   O     O_R   0.586726 0.889786 0.957291 -0.264206
O56   O     O_R   0.492497 0.896651 0.887079 -0.314248
N3    N     N_R   0.019010 0.453456 0.084905 0.131016
O57   O     O_R   0.990693 0.353520 0.063676 -0.289436
O58   O     O_R   0.061523 0.449742 0.139025 -0.243579
N4    N     N_R   0.033524 0.449024 0.932459 0.138865
O59   O     O_R   0.086695 0.389749 0.957274 -0.266147
O60   O     O_R   0.992476 0.396671 0.887047 -0.298826
C113  C     C_2   0.441958 0.483546 0.451430 0.351852
H49   H     H_    0.435058 0.556109 0.489549 0.153393
O61   O     O_2   0.463694 0.507132 0.391459 -0.406667
C114  C     C_2   0.366411 0.260635 0.581112 0.206865
H50   H     H_    0.346650 0.185922 0.549998 0.096806
O62   O     O_2   0.340600 0.282315 0.639403 -0.481339
C115  C     C_2   0.095241 0.932139 0.399098 0.262787
H51   H     H_    0.145826 0.888690 0.400673 0.122965
O63   O     O_2   0.086292 0.020649 0.360932 -0.446945
C116  C     C_2   0.981075 0.940002 0.559889 0.330267
H52   H     H_    0.930789 0.898900 0.551263 0.099195
O64   O     O_2   0.985844 0.025274 0.600461 -0.411039
C117  C     C_2   0.606416 0.450760 0.550899 0.197995
H53   H     H_    0.593316 0.445669 0.606409 0.188490
O65   O     O_2   0.571852 0.521470 0.515466 -0.536651
C118  C     C_2   0.307929 0.607879 0.396647 0.268902
H54   H     H_    0.294127 0.604433 0.340391 0.166629
O66   O     O_2   0.348985 0.683930 0.415830 -0.516584
C119  C     C_2   0.170997 0.091656 0.594618 0.256081
H55   H     H_    0.182404 0.109338 0.650449 0.155036
O67   O     O_2   0.116175 0.126380 0.569680 -0.499082
C120  C     C_2   0.837818 0.041935 0.420470 0.237224
H56   H     H_    0.811361 0.081841 0.374771 0.169526
O68   O     O_2   0.898117 0.067996 0.432352 -0.530226
N5    N     N_R   0.565852 0.482065 0.947038 0.109010
O69   O     O_R   0.502326 0.468262 0.969686 -0.368907
O70   O     O_R   0.578682 0.562139 0.897416 -0.280946
N6    N     N_R   0.270848 0.603813 0.097206 0.085739
O71   O     O_R   0.287209 0.656574 0.156762 -0.305473
O72   O     O_R   0.205528 0.591932 0.080524 -0.322519
N7    N     N_R   0.065865 0.982120 0.947006 0.108732
O73   O     O_R   0.002337 0.968354 0.969657 -0.368380
O74   O     O_R   0.078697 0.062094 0.897327 -0.273435
N8    N     N_R   0.770803 0.103890 0.097103 0.088832
O75   O     O_R   0.787126 0.156940 0.156578 -0.292535
O76   O     O_R   0.705493 0.091908 0.080404 -0.316291
N9    N     N_R   0.574203 0.960093 0.553482 0.111241
O77   O     O_R   0.539025 0.888402 0.595354 -0.343250
O78   O     O_R   0.630416 0.919997 0.523480 -0.333108
N10   N     N_R   0.566194 0.989635 0.401156 0.117933
O79   O     O_R   0.600825 0.023187 0.344442 -0.277485
O80   O     O_R   0.551981 0.875847 0.410153 -0.271625
N11   N     N_R   0.948765 0.492035 0.587374 0.060516
O81   O     O_R   0.897095 0.539533 0.622723 -0.379590
O82   O     O_R   0.978819 0.396843 0.614450 -0.280722
N12   N     N_R   0.990308 0.427962 0.437026 0.022498
O83   O     O_R   0.003380 0.404238 0.370167 -0.310909
O84   O     O_R   0.991319 0.336840 0.481240 -0.335019

loop_
_geom_bond_atom_site_label_1
_geom_bond_atom_site_label_2
_geom_bond_distance
_ccdc_geom_bond_type
C22   C110  1.439929 S    
Cr11  O51   1.996893 S    
O4    C12   1.305871 A    
C18   O42   1.248155 A    
C29   C30   1.496703 S    
C92   C112  1.391958 A    
O39   C19   1.285484 A    
O20   Cr12  2.054821 S    
C46   C62   1.404995 A    
C53   H15   1.111954 S    
C66   C73   1.439459 A    
C80   C116  1.507514 S    
C31   C32   1.496709 S    
C90   C106  1.474429 S    
C39   C55   1.485017 S    
C32   N4    1.438655 S    
C104  C108  1.530842 S    
C89   C105  1.490002 S    
O1    Cr1   2.076207 S    
C47   H7    1.081196 S    
O29   Cr1   1.954626 S    
Cr7   O51   2.002233 S    
C73   C74   1.415782 A    
O1    C9    1.276549 A    
O27   Cr3   2.058351 S    
C79   H25   1.102952 S    
C87   C103  1.480388 S    
O15   Cr7   1.938795 S    
O7    C3    1.277837 A    
C15   O35   1.314691 A    
C56   H20   1.111515 S    
C117  H53   1.066881 S    
C77   C78   1.525349 S    
C45   C61   1.400384 A    
C103  C107  1.504439 S    
O24   C12   1.311686 A    
C118  O66   1.213765 D    
C2    C35   1.447222 S    
C106  H46   1.107720 S    
N9    O77   1.300463 A    
C31   N3    1.447301 S    
C66   C70   1.362712 A    
C50   H10   1.082994 S    
C105  H45   1.088191 S    
C12   C64   1.460504 S    
O45   Cr9   1.933454 S    
O38   C18   1.294896 A    
N5    O69   1.300660 A    
C104  H40   1.111622 S    
O45   C21   1.296617 A    
C37   C53   1.485010 S    
O47   C23   1.287625 A    
O46   Cr10  1.937071 S    
C78   C114  1.505787 S    
C115  H51   1.084415 S    
C38   C42   1.385543 A    
C95   C111  1.405054 A    
O8    Cr4   1.956176 S    
O10   Cr6   2.085310 S    
O23   Cr11  1.962598 S    
C94   C110  1.406725 A    
C108  H44   1.100373 S    
N9    O78   1.294838 A    
O30   C14   1.310435 A    
C93   C109  1.454897 A    
C25   C30   1.370246 D    
O32   Cr4   1.939392 S    
C85   C89   1.386728 A    
C1    O9    1.282580 A    
C43   C63   1.402513 A    
O44   Cr12  2.074771 S    
C5    O17   1.293129 A    
C59   H23   1.110315 S    
C27   C32   1.370241 D    
C74   N10   1.441101 S    
C55   C59   1.525491 S    
C60   H24   1.112734 S    
C69   C70   1.343855 A    
O11   Cr7   2.071533 S    
C15   C82   1.449451 S    
C4    O12   1.268281 A    
O21   C9    1.275201 A    
C97   H29   1.083182 S    
N6    O71   1.300270 A    
C92   C108  1.461308 S    
C88   C104  1.482096 S    
C88   C92   1.375129 A    
N11   O81   1.302955 A    
C34   C38   1.403106 A    
C52   H12   1.082989 S    
C54   H16   1.112389 S    
C27   H4    1.081328 S    
C6    C26   1.463332 S    
O3    Cr3   2.076207 S    
Cr4   O52   1.998593 S    
C26   H1    1.081210 S    
C95   C99   1.414684 A    
C34   C50   1.404631 A    
C30   N2    1.438633 S    
C24   C112  1.477147 S    
C119  O67   1.214128 D    
O2    C10   1.305864 A    
C35   C39   1.389084 A    
C80   H26   1.093363 S    
O42   Cr10  2.074771 S    
Cr5   O49   2.002233 S    
O18   Cr10  2.054821 S    
C90   C110  1.377091 A    
C113  H49   1.085559 S    
C33   C37   1.389059 A    
C77   C113  1.502433 S    
C100  H32   1.061871 S    
C55   H13   1.111960 S    
C106  H42   1.108871 S    
N4    O60   1.301388 A    
C40   C56   1.497687 S    
C105  H41   1.104982 S    
O34   Cr6   2.050517 S    
N2    O56   1.301382 A    
N2    O55   1.298360 A    
C79   C80   1.516088 S    
C98   H30   1.081555 S    
C20   O44   1.292751 A    
O6    Cr2   1.956176 S    
C87   C91   1.371836 A    
C7    O19   1.293128 A    
O31   Cr3   1.954626 S    
C21   C109  1.507573 S    
O24   Cr12  1.953781 S    
C116  O64   1.219644 D    
C117  O65   1.218701 D    
O30   Cr2   1.939392 S    
O22   C10   1.311684 A    
C67   C71   1.382945 A    
O48   Cr12  1.937071 S    
O16   C8    1.283055 A    
C68   C72   1.388550 A    
C107  H43   1.111901 S    
C68   C75   1.389120 A    
C2    O10   1.268285 A    
C13   C84   1.461558 S    
C69   C77   1.505890 S    
C103  H39   1.107048 S    
N5    O70   1.301772 A    
C53   H17   1.111535 S    
O16   Cr8   1.933491 S    
O15   C7    1.272941 A    
C54   H18   1.111512 S    
O7    Cr3   1.942086 S    
C60   N8    1.465866 S    
C115  O63   1.220254 D    
Cr10  O50   2.003057 S    
C25   H2    1.081320 S    
C49   H9    1.075502 S    
C96   C112  1.421052 A    
C28   C31   1.349600 D    
C78   H28   1.113239 S    
C40   C44   1.385552 A    
C47   C51   1.391467 A    
O43   Cr11  2.081663 S    
O12   Cr8   2.085310 S    
Cr9   O49   1.996893 S    
C108  H48   1.111026 S    
C94   C98   1.416880 A    
C23   C111  1.457088 S    
O21   Cr9   1.962598 S    
C103  H35   1.103222 S    
C18   C65   1.424163 S    
C29   N1    1.447288 S    
C102  H34   1.103740 S    
N10   O79   1.301633 A    
O39   Cr7   1.953701 S    
O3    C11   1.276567 A    
C84   C88   1.383228 A    
C101  H33   1.112894 S    
C71   C72   1.364448 A    
C48   C64   1.405001 A    
C13   O33   1.287832 A    
O48   C24   1.300902 A    
C38   C54   1.497724 S    
C37   C41   1.378638 A    
C114  O62   1.219903 D    
N1    O53   1.301135 A    
N12   O83   1.301140 A    
C76   N12   1.452626 S    
N3    O58   1.302089 A    
C46   C50   1.400299 A    
O47   Cr11  1.933454 S    
C44   C64   1.398209 A    
C93   C97   1.436768 A    
O35   Cr7   2.057552 S    
Cr1   O49   1.998468 S    
O2    Cr2   2.059554 S    
C86   C90   1.372475 A    
C59   N7    1.464920 S    
C77   H27   1.108069 S    
C82   C98   1.413893 A    
C45   C49   1.391452 A    
C96   C120  1.466635 S    
Cr3   O51   1.998468 S    
O26   C22   1.276307 A    
C9    C61   1.447632 S    
C42   C58   1.500300 S    
C53   C57   1.525474 S    
C85   C101  1.454954 S    
C3    O11   1.282567 A    
C113  O61   1.220662 D    
O9    Cr5   2.071533 S    
C43   C59   1.500955 S    
O37   Cr5   1.953701 S    
C8    C28   1.463361 S    
O25   C21   1.338004 A    
C7    C27   1.477286 S    
C19   O43   1.258261 A    
O38   Cr6   1.965225 S    
C107  H47   1.112826 S    
N4    O59   1.298366 A    
C95   C119  1.470957 S    
C119  H55   1.085291 S    
C11   C63   1.447617 S    
C120  O68   1.217485 D    
C36   C40   1.403081 A    
C8    O20   1.277036 A    
C70   C78   1.484686 S    
C26   C29   1.349554 D    
O14   Cr6   1.933491 S    
C16   C81   1.496677 S    
O26   Cr2   2.072232 S    
C41   C57   1.500967 S    
C94   C118  1.477710 S    
C47   C63   1.400384 A    
O25   Cr1   2.058351 S    
C116  H52   1.083430 S    
C58   H22   1.112735 S    
O27   C23   1.267709 A    
O22   Cr10  1.953781 S    
O28   C24   1.319082 A    
O14   C6    1.283071 A    
C39   C43   1.378645 A    
C82   C86   1.367736 A    
C35   C51   1.407393 A    
C5    C25   1.477299 S    
O5    C1    1.277848 A    
O31   C15   1.291446 A    
C56   H14   1.112387 S    
O17   Cr9   2.052055 S    
O37   C17   1.252980 A    
C102  H38   1.097918 S    
C83   C87   1.381513 A    
C19   C68   1.435176 S    
C28   H3    1.081214 S    
C17   O41   1.290265 A    
C48   H8    1.077165 S    
C67   C76   1.434794 A    
Cr2   O50   1.998593 S    
O5    Cr1   1.942086 S    
C17   C66   1.434688 S    
C14   O34   1.308758 A    
N12   O84   1.299764 A    
O40   Cr8   1.965225 S    
C46   H6    1.077157 S    
C56   C60   1.521671 S    
C65   C74   1.390732 A    
C96   C100  1.406800 A    
N7    O73   1.300660 A    
C51   H11   1.075519 S    
C71   C79   1.494388 S    
O19   Cr11  2.052055 S    
C120  H56   1.085353 S    
C55   H19   1.111535 S    
C20   C67   1.446644 S    
C33   C49   1.407372 A    
C4    C33   1.447169 S    
Cr8   O52   1.996214 S    
O32   C16   1.287475 A    
O41   Cr9   2.081663 S    
N11   O82   1.301026 A    
C83   C99   1.406796 A    
O13   Cr5   1.938795 S    
N7    O74   1.301778 A    
C58   N6    1.465881 S    
C102  C106  1.491835 S    
Cr12  O52   2.003057 S    
C75   N11   1.429828 S    
C1    C36   1.462633 S    
C101  C105  1.484378 S    
O23   C11   1.275216 A    
C81   C97   1.401375 A    
C114  H50   1.085640 S    
N1    O54   1.302098 A    
O33   Cr5   2.057552 S    
C54   C58   1.521729 S    
C42   C62   1.398181 A    
C3    C34   1.462668 S    
N8    O76   1.302521 A    
C72   C80   1.489611 S    
C99   H31   1.072659 S    
C65   C69   1.399653 A    
C57   H21   1.110314 S    
C91   C107  1.487716 S    
O4    Cr4   2.059554 S    
C75   C76   1.423527 A    
C84   C100  1.397988 A    
O6    C2    1.278789 A    
C86   C102  1.469926 S    
C89   C109  1.388895 A    
C93   C117  1.491519 S    
C104  H36   1.109702 S    
C48   C52   1.400292 A    
C16   O36   1.286480 A    
O40   C20   1.262131 A    
O46   C22   1.272980 A    
C10   C62   1.460468 S    
N6    O72   1.302517 A    
Cr6   O50   1.996214 S    
C6    O18   1.277007 A    
O28   Cr4   2.072232 S    
C57   N5    1.464930 S    
N3    O57   1.301136 A    
O29   C13   1.278286 A    
C14   C83   1.463492 S    
C118  H54   1.085110 S    
C45   H5    1.081194 S    
C91   C111  1.387457 A    
C36   C52   1.404621 A    
C81   C85   1.375317 A    
O36   Cr8   2.050517 S    
C41   C61   1.402528 A    
N10   O80   1.301062 A    
N8    O75   1.300250 A    
O8    C4    1.278800 A    
C79   C115  1.495213 S    
C44   C60   1.500334 S    
C73   N9    1.426853 S    
C101  H37   1.102841 S    
O13   C5    1.272944 A    
