data_mof_unit_67712.cif
_audit_creation_date              2012-12-10T19:48:33-0500
_audit_creation_method            fapswitch 2.2
_symmetry_space_group_name_H-M    P1
_symmetry_Int_Tables_number       1
_space_group_crystal_system       triclinic
_cell_length_a                    10.897018
_cell_length_b                    10.65097
_cell_length_c                    9.414188
_cell_angle_alpha                 89.917062
_cell_angle_beta                  92.939009
_cell_angle_gamma                 86.800998
_cell_volume                      1089.49880082

loop_
_atom_site_label
_atom_site_type_symbol
_atom_type_description
_atom_site_fract_x
_atom_site_fract_y
_atom_site_fract_z
_atom_type_partial_charge
C1    C     C_R   0.501588 0.259585 0.499907 0.889397
C2    C     C_3   0.389453 0.050336 0.537519 -0.386020
C3    C     C_3   0.498782 0.876797 0.500926 -0.237661
C4    C     C_3   0.501344 0.123197 0.499072 -0.237726
C5    C     C_3   0.477446 0.961442 0.630263 0.397977
C6    C     C_3   0.522687 0.038551 0.369734 0.397936
C7    C     C_3   0.463323 0.610210 0.048196 -0.148359
C8    C     C_3   0.536670 0.389788 0.951807 -0.148303
C9    C     C_3   0.390402 0.528502 0.942310 -0.220195
C10   C     C_3   0.609592 0.471496 0.057691 -0.220237
C11   C     C_3   0.571993 0.580141 0.955278 0.654870
C12   C     C_R   0.498468 0.740413 0.500094 0.889410
C13   C     C_3   0.428003 0.419859 0.044726 0.654480
C14   C     C_R   0.262045 0.504915 0.496421 0.785404
C15   C     C_R   0.737958 0.495104 0.503578 0.785262
C16   C     C_R   0.042132 0.824866 0.121847 -0.145099
C17   C     C_R   0.957310 0.176465 0.879778 -0.146182
C18   C     C_R   0.054260 0.763719 0.253744 -0.168964
C19   C     C_R   0.945346 0.237020 0.747524 -0.168419
C20   C     C_R   0.087274 0.634302 0.262686 0.114458
C21   C     C_R   0.912717 0.366480 0.737850 0.114457
C22   C     C_R   0.110925 0.568065 0.137648 -0.181797
C23   C     C_R   0.871891 0.496770 0.508351 -0.050662
C24   C     C_R   0.889403 0.433399 0.862526 -0.181853
C25   C     C_R   0.095151 0.628733 0.005607 -0.273472
C26   C     C_R   0.905051 0.373324 0.994908 -0.273439
C27   C     C_R   0.062219 0.757576 0.997021 0.543488
C28   C     C_R   0.937544 0.244437 0.004229 0.542702
C29   C     C_R   0.922346 0.559324 0.396709 -0.237307
C30   C     C_R   0.077666 0.440608 0.603236 -0.237596
C31   C     C_3   0.145665 0.847630 0.809766 -0.258524
C32   C     C_3   0.853957 0.153992 0.191092 -0.258372
C33   C     C_3   0.711625 0.730020 0.007429 -0.224733
C34   C     C_R   0.128119 0.503221 0.491631 -0.050619
C35   C     C_3   0.288216 0.270127 0.992590 -0.224639
C36   C     C_R   0.951088 0.436144 0.613699 0.019313
C37   C     C_R   0.048923 0.563953 0.386357 0.019551
C38   C     C_3   0.587945 0.035431 0.592026 0.382422
C39   C     C_3   0.412189 0.964562 0.407968 0.382497
C40   C     C_3   0.610676 0.949652 0.462475 -0.386111
Cl1   Cl    Cl    0.701995 0.081164 0.719716 -0.607564
Cl2   Cl    Cl    0.298200 0.918807 0.280224 -0.607632
Cl3   Cl    Cl    0.450609 0.914155 0.807194 -0.568633
Cl4   Cl    Cl    0.549548 0.085819 0.192800 -0.568616
Cu1   Cu    Cu3+1 0.500030 0.499990 0.643150 1.015773
Cu2   Cu    Cu3+1 0.499970 0.500010 0.356850 1.015699
H1    H     H_    0.301335 0.552057 0.885533 0.150982
H2    H     H_    0.871947 0.534409 0.858336 0.196969
H3    H     H_    0.101521 0.574429 0.909128 0.149127
H4    H     H_    0.898765 0.428088 0.091069 0.149563
H5    H     H_    0.861973 0.606641 0.315737 0.144355
H6    H     H_    0.138036 0.393313 0.684227 0.144500
H7    H     H_    0.701024 0.907504 0.431990 0.183666
H8    H     H_    0.299103 0.092479 0.568004 0.183674
H9    H     H_    0.193754 0.914872 0.880612 0.211407
H10   H     H_    0.123883 0.895507 0.706049 0.188905
H11   H     H_    0.206991 0.763080 0.789786 0.185500
H12   H     H_    0.698625 0.447891 0.114503 0.151107
H13   H     H_    0.875577 0.106774 0.295216 0.189045
H14   H     H_    0.807034 0.085899 0.120268 0.210623
H15   H     H_    0.791633 0.238009 0.210077 0.185928
H16   H     H_    0.775275 0.664050 0.071052 0.101777
H17   H     H_    0.646516 0.781274 0.077151 0.196802
H18   H     H_    0.768137 0.800871 0.959621 0.236106
H19   H     H_    0.353206 0.218990 0.922626 0.196404
H20   H     H_    0.224460 0.336186 0.929218 0.101910
H21   H     H_    0.231795 0.199194 0.040394 0.235929
H22   H     H_    0.432657 0.702204 0.093406 0.209868
H23   H     H_    0.567329 0.297791 0.906600 0.209866
H24   H     H_    0.012343 0.923408 0.116167 0.182246
H25   H     H_    0.986783 0.077860 0.886026 0.183267
H26   H     H_    0.029278 0.815294 0.348090 0.164164
H27   H     H_    0.970119 0.184921 0.653455 0.164604
H28   H     H_    0.128686 0.467082 0.141248 0.197021
N1    N     N_3   0.500090 0.499970 0.858290 -0.210461
N2    N     N_3   0.499910 0.500030 0.141710 -0.210548
O1    O     O_R   0.500060 0.316850 0.620870 -0.579720
O2    O     O_3   0.964712 0.188078 0.134988 -0.602939
O3    O     O_3   0.649029 0.666720 0.896825 -0.532362
O4    O     O_3   0.350980 0.333272 0.103185 -0.532199
O5    O     O_R   0.499940 0.683150 0.379130 -0.579709
O6    O     O_R   0.500000 0.316860 0.379090 -0.512653
O7    O     O_R   0.500000 0.683140 0.620910 -0.512602
O8    O     O_R   0.319670 0.500010 0.620890 -0.613404
O9    O     O_R   0.680330 0.499990 0.379110 -0.613413
O10   O     O_R   0.319620 0.500010 0.379110 -0.544124
O11   O     O_R   0.680380 0.499990 0.620890 -0.544153
O12   O     O_3   0.034881 0.814544 0.866616 -0.603391

loop_
_geom_bond_atom_site_label_1
_geom_bond_atom_site_label_2
_ccdc_geom_bond_type
C8    C13   S    
C34   C37   A    
C1    O1    A    
C14   O8    A    
Cu2   N2    S    
C21   C36   S    
Cu1   Cu2   S    
C7    C11   S    
C8    H23   S    
C23   C29   A    
Cu1   O11   S    
C24   C26   A    
C32   H15   S    
C26   H4    S    
C35   H19   S    
C35   O4    S    
C9    C13   S    
C3    C12   S    
C7    H22   S    
Cu2   O6    S    
C10   N2    S    
C2    C39   S    
C33   H16   S    
C10   H12   S    
C22   C25   A    
C31   H10   S    
C28   O2    S    
C15   O9    A    
Cu2   O9    S    
C16   C27   A    
C15   C23   S    
C5    Cl3   S    
C13   O4    S    
C3    C39   S    
C6    Cl4   S    
C5    C38   S    
Cu1   O7    S    
C39   Cl2   S    
C18   H26   S    
C30   C34   A    
C24   H2    S    
C19   H27   S    
C16   H24   S    
C14   O10   A    
C38   Cl1   S    
C4    C6    S    
C2    H8    S    
C33   O3    S    
C35   H20   S    
C1    O6    A    
C8    N1    S    
C12   O7    A    
C2    C4    S    
Cu2   O5    S    
C13   N2    S    
C35   H21   S    
C33   H17   S    
C11   O3    S    
C16   C18   A    
C4    C38   S    
C3    C40   S    
C9    H1    S    
C6    C40   S    
Cu1   O8    S    
C32   H14   S    
C15   O11   A    
C29   H5    S    
C7    C9    S    
C30   H6    S    
C31   O12   S    
C19   C21   A    
C17   C28   A    
C20   C22   A    
C3    C5    S    
C14   C34   S    
C40   H7    S    
C17   H25   S    
C7    N2    S    
C25   C27   A    
C26   C28   A    
C30   C36   A    
Cu1   N1    S    
C1    C4    S    
C31   H11   S    
C11   N1    S    
C38   C40   S    
C20   C37   S    
C33   H18   S    
C17   C19   A    
C12   O5    A    
C18   C20   A    
C27   O12   S    
C25   H3    S    
C10   C11   S    
C32   O2    S    
C2    C5    S    
C8    C10   S    
C23   C36   A    
C21   C24   A    
C29   C37   A    
C22   H28   S    
C6    C39   S    
Cu1   O1    S    
C9    N1    S    
C32   H13   S    
C31   H9    S    
Cu2   O10   S    
