data_mof_unit_55615.cif
_audit_creation_date              2012-12-10T19:10:34-0500
_audit_creation_method            fapswitch 2.2
_symmetry_space_group_name_H-M    P1
_symmetry_Int_Tables_number       1
_space_group_crystal_system       triclinic
_cell_length_a                    10.630816
_cell_length_b                    9.806992
_cell_length_c                    15.703947
_cell_angle_alpha                 89.628492
_cell_angle_beta                  91.802539
_cell_angle_gamma                 90.142104
_cell_volume                      1636.38703993

loop_
_atom_site_label
_atom_site_type_symbol
_atom_type_description
_atom_site_fract_x
_atom_site_fract_y
_atom_site_fract_z
_atom_type_partial_charge
C1    C     C_R   0.257981 0.500220 0.496746 0.810292
C2    C     C_3   0.933296 0.457374 0.584155 -0.422195
C3    C     C_3   0.068309 0.396847 0.429382 -0.421701
C4    C     C_3   0.121502 0.501340 0.495135 0.202115
C5    C     C_3   0.878820 0.501409 0.495591 0.211336
C6    C     C_R   0.500302 0.500155 0.338433 0.901146
C7    C     C_3   0.923931 0.400927 0.427153 -0.393218
C8    C     C_3   0.384459 0.078736 0.536116 -0.340938
C9    C     C_3   0.382838 0.918389 0.533551 -0.294458
C10   C     C_3   0.515425 0.078478 0.410511 0.284430
C11   C     C_3   0.510013 0.916308 0.409609 0.302672
C12   C     C_3   0.567270 0.623417 0.951060 -0.396366
C13   C     C_3   0.607362 0.081611 0.552057 0.348619
C14   C     C_3   0.608758 0.918087 0.550026 0.363072
C15   C     C_R   0.742238 0.500383 0.497828 0.785227
C16   C     C_R   0.498539 0.499479 0.661528 0.897026
C17   C     C_3   0.359767 0.501531 0.047283 -0.406525
C18   C     C_3   0.561574 0.367071 0.050998 -0.386210
C19   C     C_3   0.559849 0.366451 0.952700 -0.414785
C20   C     C_3   0.358066 0.501380 0.948956 -0.394571
C21   C     C_1   0.494781 0.497867 0.750413 -0.191250
C22   C     C_3   0.497354 0.497955 0.082671 0.378682
C23   C     C_3   0.568951 0.624089 0.049294 -0.409311
C24   C     C_3   0.494433 0.496885 0.917369 0.375858
C25   C     C_3   0.315845 0.148432 0.345850 0.198774
C26   C     C_3   0.260028 0.184221 0.258066 -0.933465
C27   C     C_3   0.440525 0.858217 0.270656 0.164958
C28   C     C_3   0.326577 0.806616 0.219242 -0.887454
C29   C     C_3   0.710108 0.188824 0.669573 0.199256
C30   C     C_3   0.708566 0.195241 0.766180 -0.883803
C31   C     C_3   0.726776 0.825667 0.665529 0.197271
C32   C     C_3   0.722056 0.789736 0.759757 -0.878422
C33   C     C_1   0.493385 0.496831 0.825829 -0.140057
C34   C     C_1   0.499121 0.498821 0.174121 -0.133050
C35   C     C_1   0.500160 0.499735 0.249519 -0.195587
C36   C     C_3   0.070916 0.645337 0.470391 -0.390349
C37   C     C_3   0.077225 0.463491 0.585010 -0.397852
C38   C     C_3   0.927869 0.646280 0.472999 -0.403328
H1    H     H_    0.303922 0.411472 0.924905 0.164413
H2    H     H_    0.299187 0.883805 0.495291 0.182686
H3    H     H_    0.376997 0.112267 0.603258 0.222747
H4    H     H_    0.369690 0.877066 0.598774 0.202355
H5    H     H_    0.696919 0.117617 0.523819 -0.040802
H6    H     H_    0.696789 0.886982 0.518153 -0.062665
H7    H     H_    0.614262 0.101402 0.393520 0.036615
H8    H     H_    0.601019 0.877988 0.385162 -0.000275
H9    H     H_    0.306916 0.411353 0.070748 0.166767
H10   H     H_    0.511675 0.275050 0.074710 0.171799
H11   H     H_    0.660592 0.362015 0.076091 0.162674
H12   H     H_    0.509177 0.274063 0.928960 0.170122
H13   H     H_    0.311141 0.594235 0.069832 0.166915
H14   H     H_    0.658124 0.361271 0.930482 0.169681
H15   H     H_    0.309385 0.594544 0.924130 0.164546
H16   H     H_    0.524746 0.719514 0.071718 0.161052
H17   H     H_    0.668093 0.623250 0.074354 0.161155
H18   H     H_    0.522206 0.718539 0.926028 0.172669
H19   H     H_    0.665671 0.622080 0.928825 0.167167
H20   H     H_    0.100991 0.673991 0.405351 0.175869
H21   H     H_    0.116352 0.362902 0.605699 0.164462
H22   H     H_    0.108574 0.723765 0.515472 0.167902
H23   H     H_    0.887702 0.680175 0.410033 0.160627
H24   H     H_    0.111357 0.540739 0.632051 0.156178
H25   H     H_    0.899251 0.721730 0.521179 0.157078
H26   H     H_    0.897148 0.523907 0.635028 0.145583
H27   H     H_    0.289096 0.232076 0.387339 0.172919
H28   H     H_    0.273004 0.051894 0.367647 0.158210
H29   H     H_    0.289798 0.109625 0.210011 0.262248
H30   H     H_    0.155678 0.184162 0.259894 0.204864
H31   H     H_    0.292063 0.287297 0.238440 0.259096
H32   H     H_    0.520230 0.787386 0.261528 0.135781
H33   H     H_    0.468233 0.958726 0.244506 0.163485
H34   H     H_    0.904957 0.350879 0.598204 0.150240
H35   H     H_    0.243764 0.872223 0.230030 0.253769
H36   H     H_    0.346683 0.808274 0.150368 0.197149
H37   H     H_    0.303259 0.700869 0.238928 0.256460
H38   H     H_    0.714554 0.294702 0.645718 0.163278
H39   H     H_    0.796647 0.134481 0.651207 0.072471
H40   H     H_    0.721458 0.092188 0.794153 0.251775
H41   H     H_    0.786188 0.261859 0.790416 0.194782
H42   H     H_    0.617564 0.237127 0.786428 0.269742
H43   H     H_    0.796523 0.908609 0.657411 0.091052
H44   H     H_    0.759443 0.734189 0.631859 0.135085
H45   H     H_    0.103665 0.419840 0.364856 0.156009
H46   H     H_    0.677961 0.688436 0.767747 0.245591
H47   H     H_    0.818962 0.785663 0.788164 0.194439
H48   H     H_    0.666422 0.865971 0.794206 0.268229
H49   H     H_    0.098979 0.291959 0.447500 0.160816
H50   H     H_    0.888402 0.433639 0.362793 0.153769
H51   H     H_    0.887208 0.296276 0.438923 0.169548
H52   H     H_    0.297123 0.119194 0.506328 0.124538
N1    N     N_3   0.499750 0.138610 0.498180 -0.134321
N2    N     N_3   0.499750 0.861390 0.498180 -0.117393
O1    O     O_R   0.314910 0.616040 0.499980 -0.616082
O2    O     O_3   0.408637 0.866147 0.357516 -0.577386
O3    O     O_3   0.598224 0.125895 0.638037 -0.549953
O4    O     O_3   0.605535 0.864192 0.634405 -0.534327
O5    O     O_R   0.314910 0.383960 0.499980 -0.655100
O6    O     O_R   0.500120 0.616090 0.377110 -0.589924
O7    O     O_R   0.500120 0.383910 0.377110 -0.559199
O8    O     O_R   0.685320 0.616040 0.499960 -0.644178
O9    O     O_R   0.685320 0.383960 0.499960 -0.650309
O10   O     O_R   0.500110 0.615990 0.622830 -0.564817
O11   O     O_R   0.500110 0.384010 0.622830 -0.584550
O12   O     O_3   0.448077 0.143656 0.341559 -0.579838
Zn1   Zn    Zn3+2 0.500150 0.654960 0.499960 0.969766
Zn2   Zn    Zn3+2 0.500150 0.345040 0.499960 0.949108

loop_
_geom_bond_atom_site_label_1
_geom_bond_atom_site_label_2
_ccdc_geom_bond_type
C4    C36   S    
C16   C21   S    
C2    C37   S    
C15   O8    A    
C28   H36   S    
C11   H8    S    
C17   H13   S    
C37   H24   S    
C29   H38   S    
C12   C23   S    
O8    Zn1   S    
C31   H44   S    
C13   O3    S    
C26   H29   S    
C6    O6    A    
C18   C19   S    
C3    C7    S    
C21   C33   T    
C31   O4    S    
C7    H51   S    
C17   C20   S    
C6    C35   S    
O10   Zn1   S    
C34   C35   T    
O1    Zn1   S    
C19   H14   S    
C31   C32   S    
C8    C9    S    
C17   C22   S    
C38   H23   S    
C30   H42   S    
C13   C14   S    
C13   N1    S    
N1    Zn2   S    
C2    H34   S    
C28   H35   S    
C11   N2    S    
C9    N2    S    
C14   O4    S    
C2    H26   S    
C22   C34   S    
C3    H49   S    
C20   C24   S    
C25   H27   S    
C8    H3    S    
C1    O5    A    
C5    C7    S    
C20   H1    S    
C25   C26   S    
C9    H2    S    
C29   C30   S    
C16   O11   A    
C7    H50   S    
C32   H48   S    
C10   H7    S    
C9    H4    S    
C8    N1    S    
C12   H18   S    
C15   O9    A    
O6    Zn1   S    
C14   N2    S    
C37   H21   S    
C27   H32   S    
C12   H19   S    
C11   O2    S    
C16   O10   A    
C10   N1    S    
C3    H45   S    
C2    C5    S    
C8    H52   S    
O5    Zn2   S    
C3    C4    S    
C13   H5    S    
C27   H33   S    
C23   H16   S    
C14   H6    S    
C38   H25   S    
O9    Zn2   S    
O7    Zn2   S    
C18   C22   S    
C25   H28   S    
C17   H9    S    
C32   H46   S    
C20   H15   S    
C36   H22   S    
C18   H10   S    
C25   O12   S    
C23   H17   S    
C12   C24   S    
C36   H20   S    
C24   C33   S    
C31   H43   S    
C1    C4    S    
C26   H30   S    
C6    O7    A    
C10   O12   S    
C19   C24   S    
C19   H12   S    
C30   H41   S    
C32   H47   S    
C36   C38   S    
O11   Zn2   S    
C5    C15   S    
C10   C11   S    
C29   O3    S    
C30   H40   S    
N2    Zn1   S    
C29   H39   S    
C4    C37   S    
C1    O1    A    
C27   C28   S    
C26   H31   S    
C22   C23   S    
C27   O2    S    
C5    C38   S    
C28   H37   S    
C18   H11   S    
