data_mof_unit_34666.cif
_audit_creation_date              2012-10-26T20:08:11-0400
_audit_creation_method            fapswitch 2.2
_symmetry_space_group_name_H-M    P1
_symmetry_Int_Tables_number       1
_space_group_crystal_system       triclinic
_cell_length_a                    10.943681
_cell_length_b                    10.748066
_cell_length_c                    9.720532
_cell_angle_alpha                 91.931315
_cell_angle_beta                  92.129899
_cell_angle_gamma                 90.374765
_cell_volume                      1141.88836158

loop_
_atom_site_label
_atom_site_type_symbol
_atom_type_description
_atom_site_fract_x
_atom_site_fract_y
_atom_site_fract_z
_atom_type_partial_charge
C1    C     C_R   0.501004 0.263028 0.498270 0.550261
C2    C     C_R   0.400783 0.067716 0.548192 -0.116115
C3    C     C_R   0.498832 0.871179 0.504406 0.013003
C4    C     C_R   0.501171 0.128821 0.495594 0.013004
C5    C     C_R   0.461110 0.398008 0.066099 0.095725
C6    C     C_R   0.538889 0.601992 0.933901 0.095726
C7    C     C_R   0.463092 0.398207 0.919614 0.007760
C8    C     C_R   0.536906 0.601793 0.080386 0.007761
C9    C     C_R   0.262611 0.501244 0.497196 0.558980
C10   C     C_R   0.737389 0.498756 0.502804 0.558981
C11   C     C_R   0.170802 0.492377 0.019816 -0.084416
C12   C     C_R   0.498999 0.736972 0.501730 0.550264
C13   C     C_R   0.829201 0.507607 0.980186 -0.084414
C14   C     C_R   0.140805 0.523107 0.156179 -0.006364
C15   C     C_R   0.859197 0.476882 0.843822 -0.006362
C16   C     C_R   0.101914 0.428928 0.242176 -0.035590
C17   C     C_R   0.898089 0.571064 0.757829 -0.035587
C18   C     C_R   0.089200 0.306344 0.190882 -0.072926
C19   C     C_R   0.910810 0.693646 0.809130 -0.072928
C20   C     C_R   0.113679 0.276262 0.054532 0.240729
C21   C     C_R   0.886331 0.723724 0.945482 0.240726
C22   C     C_R   0.153476 0.368678 0.967529 -0.040646
C23   C     C_R   0.871770 0.496034 0.507489 0.028344
C24   C     C_R   0.846528 0.631305 0.032478 -0.040648
C25   C     C_R   0.929061 0.454271 0.389421 -0.109616
C26   C     C_R   0.070938 0.545733 0.610577 -0.109622
C27   C     C_1   0.175462 0.332657 0.826486 0.246431
C28   C     C_1   0.824535 0.667323 0.173520 0.246424
C29   C     C_1   0.223695 0.588163 0.939252 0.192206
C30   C     C_1   0.776302 0.411821 0.060744 0.192208
C31   C     C_1   0.147331 0.651675 0.207306 0.257346
C32   C     C_1   0.852670 0.348315 0.792689 0.257342
C33   C     C_1   0.709733 0.122112 0.401099 0.266388
C34   C     C_R   0.128230 0.503966 0.492511 0.028341
C35   C     C_1   0.290262 0.877887 0.598889 0.266390
C36   C     C_1   0.415159 0.286318 0.123584 0.258031
C37   C     C_1   0.584846 0.713681 0.876415 0.258030
C38   C     C_R   0.944977 0.539603 0.621426 -0.022378
C39   C     C_R   0.055023 0.460395 0.378576 -0.022378
C40   C     C_R   0.601501 0.061336 0.447736 -0.014626
C41   C     C_R   0.398497 0.938664 0.552258 -0.014625
C42   C     C_R   0.599217 0.932283 0.451805 -0.116116
Cl1   Cl    Cl    0.097041 0.120067 0.996401 -0.444644
Cl2   Cl    Cl    0.902976 0.879917 0.003622 -0.444643
Cu1   Cu    Cu3+1 0.500000 0.500020 0.640660 1.012843
Cu2   Cu    Cu3+1 0.500000 0.499980 0.359340 1.012843
H1    H     H_    0.432938 0.316079 0.860255 0.145480
H2    H     H_    0.567059 0.683922 0.139744 0.145482
H3    H     H_    0.056916 0.234476 0.256503 0.186632
H4    H     H_    0.943098 0.765517 0.743514 0.186634
H5    H     H_    0.875057 0.418677 0.302895 0.168050
H6    H     H_    0.124939 0.581336 0.697096 0.168057
H7    H     H_    0.676261 0.879154 0.415721 0.158654
H8    H     H_    0.323737 0.120845 0.584274 0.158655
N1    N     N_R   0.500030 0.500030 0.852070 -0.252650
N2    N     N_1   0.202916 0.829884 0.635568 -0.244540
N3    N     N_1   0.377894 0.195046 0.166844 -0.236671
N4    N     N_1   0.622115 0.804950 0.833156 -0.236674
N5    N     N_R   0.499970 0.499970 0.147930 -0.252650
N6    N     N_1   0.191614 0.299292 0.714375 -0.275271
N7    N     N_1   0.808377 0.700688 0.285630 -0.275269
N8    N     N_1   0.266804 0.667122 0.878681 -0.239736
N9    N     N_1   0.733184 0.332866 0.121313 -0.239734
N10   N     N_1   0.152560 0.754046 0.248119 -0.203894
N11   N     N_1   0.847441 0.245944 0.751870 -0.203907
N12   N     N_1   0.797077 0.170114 0.364414 -0.244532
O1    O     O_R   0.499990 0.319660 0.618740 -0.509030
O2    O     O_R   0.500010 0.680340 0.381260 -0.509029
O3    O     O_R   0.499990 0.319630 0.381170 -0.484437
O4    O     O_R   0.500010 0.680370 0.618830 -0.484437
O5    O     O_R   0.319650 0.500020 0.618780 -0.487194
O6    O     O_R   0.680350 0.499980 0.381220 -0.487194
O7    O     O_R   0.319640 0.500000 0.381210 -0.506118
O8    O     O_R   0.680360 0.500000 0.618790 -0.506118

loop_
_geom_bond_atom_site_label_1
_geom_bond_atom_site_label_2
_ccdc_geom_bond_type
Cu1   O1    S    
C2    C4    A    
C25   H5    S    
C3    C42   A    
Cu2   O2    S    
C26   H6    S    
Cu2   N5    S    
Cu1   O5    S    
C21   Cl2   S    
C12   O2    A    
C6    N1    A    
C11   C22   A    
Cu2   O6    S    
C37   N4    T    
C13   C15   A    
C7    N1    A    
C14   C31   S    
C22   C27   S    
C1    C4    S    
C28   N7    T    
C32   N11   T    
C8    H2    S    
C35   N2    T    
C6    C37   S    
C5    C7    A    
C15   C32   S    
C42   H7    S    
C30   N9    T    
C25   C39   A    
C10   O8    A    
C19   H4    S    
Cu1   N1    S    
C9    O7    A    
C35   C41   S    
C13   C24   A    
C40   C42   A    
C1    O1    A    
C20   C22   A    
C33   N12   T    
C18   C20   A    
C27   N6    T    
C23   C25   A    
C8    N5    A    
C9    C34   S    
C10   C23   S    
C11   C14   A    
C14   C16   A    
C9    O5    A    
C33   C40   S    
C1    O3    A    
C5    N5    A    
C2    C41   A    
C34   C39   A    
C23   C38   A    
C5    C36   S    
C24   C28   S    
C13   C30   S    
C20   Cl1   S    
C17   C38   S    
C11   C29   S    
C16   C18   A    
C36   N3    T    
C2    H8    S    
C21   C24   A    
C15   C17   A    
C12   O4    A    
C29   N8    T    
C26   C38   A    
Cu2   O3    S    
C6    C8    A    
C3    C12   S    
C16   C39   S    
C17   C19   A    
Cu1   O4    S    
Cu1   Cu2   S    
C31   N10   T    
C26   C34   A    
Cu2   O7    S    
C3    C41   A    
C4    C40   A    
C18   H3    S    
C10   O6    A    
Cu1   O8    S    
C19   C21   A    
C7    H1    S    
