data_mof_unit_58484.cif
_audit_creation_date              2013-03-05T16:32:41-0500
_audit_creation_method            fapswitch 2.2
_symmetry_space_group_name_H-M    P1
_symmetry_Int_Tables_number       1
_space_group_crystal_system       triclinic
_cell_length_a                    9.625042
_cell_length_b                    10.908991
_cell_length_c                    17.11302
_cell_angle_alpha                 92.656846
_cell_angle_beta                  85.583619
_cell_angle_gamma                 91.889832
_cell_volume                      1788.81712122

loop_
_atom_site_label
_atom_site_type_symbol
_atom_site_description
_atom_site_fract_x
_atom_site_fract_y
_atom_site_fract_z
_atom_type_partial_charge
O1    O     O_R   0.381190 0.680360 0.500000 -0.524059
O2    O     O_R   0.618770 0.680320 0.499990 -0.529865
C1    C     C_R   0.501292 0.737090 0.504238 0.829167
O3    O     O_R   0.367430 0.500040 0.613600 -0.518336
O4    O     O_R   0.605020 0.500000 0.613590 -0.617004
C2    C     C_R   0.481387 0.498342 0.649891 0.901899
Cu1   Cu    Cu3+1 0.359330 0.500020 0.500000 1.108444
Cu2   Cu    Cu3+1 0.640670 0.499980 0.500000 1.070938
O5    O     O_R   0.381230 0.319680 0.500010 -0.561720
O6    O     O_R   0.618810 0.319640 0.500000 -0.546030
O7    O     O_R   0.394980 0.500000 0.386410 -0.514640
O8    O     O_R   0.632570 0.499960 0.386400 -0.528583
C3    C     C_R   0.498644 0.262340 0.500267 0.885337
C4    C     C_R   0.519668 0.521432 0.352048 0.899204
C5    C     C_R   0.471790 0.485248 0.734603 -0.267991
C6    C     C_R   0.443384 0.588066 0.784966 0.427731
C7    C     C_R   0.446333 0.575168 0.866282 -0.320391
C8    C     C_R   0.484702 0.464701 0.896168 -0.148532
C9    C     C_R   0.514757 0.362365 0.845279 0.318106
C10   C     C_R   0.506513 0.372668 0.764270 0.181167
C11   C     C_R   0.429300 0.567464 0.146756 -0.229518
C12   C     C_R   0.416778 0.580950 0.228834 0.499648
C13   C     C_R   0.667766 0.583662 0.230184 0.158264
C14   C     C_R   0.680689 0.575613 0.147166 0.271882
C15   C     C_R   0.560183 0.555654 0.106309 -0.033493
C16   C     C_2   0.487533 0.457155 0.981781 0.373586
C17   C     C_2   0.568441 0.539320 0.020270 -0.195499
C18   C     C_R   0.534752 0.560593 0.269528 -0.270211
H1    H     H_    0.638646 0.601129 0.986933 0.172162
H2    H     H_    0.337591 0.567247 0.113952 0.187154
H3    H     H_    0.418056 0.650486 0.907165 0.171022
C19   C     C_R   0.388872 0.928684 0.483804 -0.192556
C20   C     C_R   0.503591 0.870069 0.507353 -0.110505
C21   C     C_R   0.621166 0.942396 0.527528 0.473392
C22   C     C_R   0.617675 0.070722 0.525073 -0.196886
H4    H     H_    0.706194 0.124810 0.544136 0.200521
C23   C     C_R   0.499771 0.128511 0.501433 -0.052538
C24   C     C_R   0.389918 0.053951 0.476630 -0.137010
C25   C     C_3   0.234181 0.058996 0.492519 0.766238
C26   C     C_3   0.236201 0.922688 0.511924 0.462000
C27   C     C_R   0.934671 0.467982 0.433595 0.251648
N1    N     N_R   0.852130 0.499070 0.499500 -0.220032
C28   C     C_R   0.917844 0.544652 0.562850 -0.117805
H5    H     H_    0.855614 0.582721 0.612769 0.153988
C29   C     C_R   0.066323 0.541388 0.564517 0.586495
N2    N     N_R   0.148040 0.499110 0.499500 -0.243807
C30   C     C_R   0.081058 0.472899 0.432133 0.115581
C31   C     C_3   0.085355 0.357003 0.380832 -0.106484
C32   C     C_3   0.923802 0.353937 0.382269 0.724708
H6    H     H_    0.129931 0.284610 0.412617 0.176748
O9    O     O_3   0.406826 0.696177 0.752271 -0.569325
C33   C     C_3   0.456848 0.802108 0.793104 -0.161371
H7    H     H_    0.385279 0.825574 0.845284 0.196089
H8    H     H_    0.458467 0.880552 0.754132 0.238337
H9    H     H_    0.565521 0.792465 0.809700 0.131353
N3    N     N_R   0.813743 0.590290 0.104468 0.155664
O10   O     O_R   0.865303 0.499441 0.060859 -0.300812
O11   O     O_R   0.873895 0.698622 0.100616 -0.317771
O12   O     O_3   0.739784 0.889691 0.549663 -0.537714
C34   C     C_3   0.724231 0.874383 0.631235 -0.214689
H10   H     H_    0.711144 0.964054 0.664448 0.194909
H11   H     H_    0.819973 0.833345 0.649291 0.220608
H12   H     H_    0.635542 0.809948 0.647036 0.146032
O13   O     O_3   0.198846 0.139727 0.558020 -0.551686
C35   C     C_3   0.053240 0.146154 0.573927 -0.141865
H13   H     H_    0.997649 0.055976 0.566216 0.193794
H14   H     H_    0.011598 0.214923 0.536979 0.161301
H15   H     H_    0.031638 0.178358 0.635960 0.191737
O14   O     O_3   0.158798 0.079553 0.425494 -0.642012
C36   C     C_3   0.233412 0.054981 0.351680 -0.294976
H16   H     H_    0.267725 0.958930 0.344667 0.186874
H17   H     H_    0.324765 0.118942 0.343031 0.204532
H18   H     H_    0.165157 0.068605 0.303839 0.204006
N4    N     N_R   0.213333 0.900979 0.596323 0.130959
O15   O     O_R   0.100849 0.843348 0.623658 -0.306777
O16   O     O_R   0.298005 0.949553 0.645698 -0.312765
N5    N     N_R   0.147097 0.842441 0.464129 0.115651
O17   O     O_R   0.012483 0.852956 0.471486 -0.291709
O18   O     O_R   0.200198 0.760517 0.414077 -0.353122
O19   O     O_3   0.129551 0.589133 0.629603 -0.503363
C37   C     C_3   0.077564 0.528079 0.697336 -0.179690
H19   H     H_    0.151018 0.546312 0.743609 0.221376
H20   H     H_    0.069687 0.426568 0.686661 0.133994
H21   H     H_    0.975558 0.564563 0.720688 0.141916
N6    N     N_R   0.158329 0.373847 0.303454 0.175356
O20   O     O_R   0.108769 0.441619 0.252305 -0.241571
O21   O     O_R   0.272132 0.315523 0.283635 -0.366093
O22   O     O_3   0.293412 0.615209 0.270481 -0.500422
C38   C     C_3   0.231755 0.712118 0.234496 -0.065414
H22   H     H_    0.178620 0.677938 0.182105 0.195006
H23   H     H_    0.308879 0.787355 0.219442 0.091210
H24   H     H_    0.149204 0.751953 0.275646 0.241575
O23   O     O_3   0.858622 0.387085 0.314739 -0.536427
C39   C     C_3   0.852939 0.293666 0.255230 -0.104943
H25   H     H_    0.761206 0.231472 0.267193 0.139101
H26   H     H_    0.951053 0.242860 0.244773 0.157271
H27   H     H_    0.836820 0.337385 0.199531 0.221219
O24   O     O_3   0.851920 0.261431 0.426619 -0.625624
C40   C     C_3   0.868568 0.141394 0.393555 -0.282978
H28   H     H_    0.888197 0.079286 0.440533 0.242394
H29   H     H_    0.955420 0.132293 0.348054 0.174274
H30   H     H_    0.769988 0.107924 0.369327 0.178968
N7    N     N_R   0.782151 0.630436 0.273626 0.181258
O25   O     O_R   0.758663 0.708472 0.332667 -0.333702
O26   O     O_R   0.910488 0.612260 0.247622 -0.262842
N8    N     N_R   0.554351 0.248728 0.875401 0.175584
O27   O     O_R   0.651705 0.247952 0.924072 -0.292220
O28   O     O_R   0.495211 0.145303 0.853127 -0.278808
N9    N     N_R   0.535003 0.269057 0.711695 0.134430
O29   O     O_R   0.434410 0.216157 0.674923 -0.315737
O30   O     O_R   0.656736 0.219697 0.707102 -0.369216
N10   N     N_R   0.404400 0.363005 0.021467 0.163974
O31   O     O_R   0.291977 0.318591 0.991674 -0.283902
O32   O     O_R   0.449680 0.310348 0.080936 -0.284739

loop_
_geom_bond_atom_site_label_1
_geom_bond_atom_site_label_2
_geom_bond_distance
_ccdc_geom_bond_type
O23   C39   1.409734 S    
C17   H1    1.087645 S    
C27   N1    1.364738 A    
C9    C10   1.404550 A    
C8    C16   1.473603 S    
C6    O9    1.395234 S    
N10   O32   1.301790 A    
C37   H19   1.108519 S    
Cu1   Cu2   2.707924 S    
N5    O17   1.300420 A    
Cu1   O7    1.947718 S    
C25   O13   1.420301 S    
C16   C17   1.349792 D    
N4    O16   1.301904 A    
C34   H12   1.112834 S    
C22   C23   1.410831 A    
Cu2   N1    2.035020 S    
C8    C9    1.407395 A    
N9    O30   1.300949 A    
C24   C25   1.505043 S    
O7    C4    1.313893 A    
N8    O27   1.301249 A    
C1    C20   1.448678 S    
C5    C6    1.403557 A    
N3    O10   1.300877 A    
C34   H11   1.108603 S    
C21   C22   1.404068 A    
O5    C3    1.310000 A    
C32   O24   1.420260 S    
C13   N7    1.441871 S    
C30   C31   1.505283 S    
N3    O11   1.300920 A    
C6    C7    1.407663 A    
C35   H14   1.107277 S    
C13   C14   1.415446 A    
C36   H16   1.107457 S    
C19   C24   1.377338 A    
C38   H23   1.114017 S    
C3    C23   1.461405 S    
C33   H9    1.114259 S    
C31   H6    1.096239 S    
C2    C5    1.458829 S    
O12   C34   1.409523 S    
C12   C18   1.405854 A    
C11   C12   1.401796 A    
C39   H25   1.107860 S    
O3    Cu1   1.951579 S    
C27   C32   1.494821 S    
N10   O31   1.301179 A    
C37   H20   1.115011 S    
C33   H8    1.108043 S    
C20   C21   1.413659 A    
N5    O18   1.298214 A    
C25   O14   1.433565 S    
C5    C10   1.410232 A    
N4    O15   1.300236 A    
N6    O21   1.299391 A    
O9    C33   1.412712 S    
Cu1   N2    2.034046 S    
C14   C15   1.405602 A    
O3    C2    1.302470 A    
C25   C26   1.539625 S    
C39   H27   1.108998 S    
N6    O20   1.299179 A    
C34   H10   1.114170 S    
O1    C1    1.298508 A    
C22   H4    1.082723 S    
C28   H5    1.079683 S    
C23   C24   1.392874 A    
C40   H28   1.106074 S    
Cu2   O8    1.951583 S    
C35   H15   1.108986 S    
C36   H18   1.106579 S    
C7    C8    1.402059 A    
C27   C30   1.406570 A    
N7    O26   1.298657 A    
C13   C18   1.420366 A    
C38   H24   1.106483 S    
C39   H26   1.109191 S    
C28   C29   1.433245 A    
C31   C32   1.552537 S    
C40   H29   1.101379 S    
O8    C4    1.307397 A    
O24   C40   1.411303 S    
C12   O22   1.389887 S    
C21   O12   1.381182 S    
C7    H3    1.082039 S    
C14   N3    1.432763 S    
N1    C28   1.362897 A    
C16   N10   1.443313 S    
C37   H21   1.110261 S    
C33   H7    1.110466 S    
Cu1   O5    1.985498 S    
C11   C15   1.396722 A    
N2    C30   1.377766 A    
O1    Cu1   1.971635 S    
O2    Cu2   1.985497 S    
O19   C37   1.413438 S    
O6    C3    1.296249 A    
O4    Cu2   1.947718 S    
C15   C17   1.471240 S    
C11   H2    1.081828 S    
C4    C18   1.489309 S    
O13   C35   1.410344 S    
O2    C1    1.302582 A    
N9    O29   1.299913 A    
C19   C20   1.389058 A    
C26   N5    1.470706 S    
O4    C2    1.299254 A    
N8    O28   1.301335 A    
C26   N4    1.473068 S    
C29   O19   1.382724 S    
C19   C26   1.510910 S    
O14   C36   1.422961 S    
C10   N9    1.431931 S    
C9    N8    1.438182 S    
C29   N2    1.382346 A    
C40   H30   1.108704 S    
O22   C38   1.416694 S    
Cu2   O6    1.971635 S    
C35   H13   1.111575 S    
N7    O25   1.301700 A    
C31   N6    1.466743 S    
C36   H17   1.109488 S    
C32   O23   1.423100 S    
C38   H22   1.109715 S    
