data_mof_unit_11637.cif
_audit_creation_date              2012-10-26T19:15:05-0400
_audit_creation_method            fapswitch 2.2
_symmetry_space_group_name_H-M    P1
_symmetry_Int_Tables_number       1
_space_group_crystal_system       triclinic
_cell_length_a                    10.850117
_cell_length_b                    10.852893
_cell_length_c                    9.551311
_cell_angle_alpha                 91.226869
_cell_angle_beta                  89.237211
_cell_angle_gamma                 90.384339
_cell_volume                      1124.33545032

loop_
_atom_site_label
_atom_site_type_symbol
_atom_type_description
_atom_site_fract_x
_atom_site_fract_y
_atom_site_fract_z
_atom_type_partial_charge
C1    C     C_R   0.501572 0.262975 0.498271 0.583380
C2    C     C_R   0.404725 0.939962 0.561897 -0.068125
C3    C     C_3   0.336927 0.943793 0.702178 0.409226
C4    C     C_R   0.262553 0.496696 0.500574 0.530307
C5    C     C_3   0.343194 0.085245 0.698805 0.168010
C6    C     C_R   0.593099 0.556630 0.073339 0.178882
C7    C     C_R   0.414225 0.435191 0.074096 -0.006398
C8    C     C_R   0.413749 0.435835 0.925294 0.018497
C9    C     C_R   0.594678 0.553703 0.925742 0.157665
C10   C     C_3   0.632508 0.684722 0.917724 -0.286165
C11   C     C_3   0.624315 0.691258 0.075727 -0.255766
C12   C     C_R   0.934817 0.491608 0.622837 -0.015681
C13   C     C_R   0.497775 0.737674 0.501570 0.536200
C14   C     C_R   0.737814 0.503699 0.499358 0.536231
C15   C     C_R   0.061523 0.486837 0.623913 -0.010339
C16   C     C_R   0.129694 0.503800 0.501205 -0.052417
C17   C     C_R   0.068994 0.541929 0.381075 -0.095096
C18   C     C_R   0.941128 0.550964 0.380223 0.207359
C19   C     C_R   0.871588 0.515131 0.499785 -0.001750
C20   C     C_3   0.654845 0.132984 0.185123 -0.244199
C21   C     C_3   0.195467 0.767344 0.678853 -0.223202
C22   C     C_3   0.921725 0.387673 0.722055 -0.250368
C23   C     C_3   0.061619 0.382275 0.722877 -0.255808
C24   C     C_R   0.408486 0.066461 0.561162 -0.124614
C25   C     C_R   0.500780 0.130437 0.492061 -0.019110
C26   C     C_R   0.588949 0.063813 0.412121 0.152220
C27   C     C_R   0.593696 0.934352 0.422500 0.216865
C28   C     C_R   0.502256 0.871447 0.502902 -0.031357
Cu1   Cu    Cu3+1 0.499990 0.499980 0.640670 0.948411
Cu2   Cu    Cu3+1 0.500010 0.500020 0.359330 0.959999
H1    H     H_    0.120433 0.565661 0.287303 0.166015
H2    H     H_    0.877979 0.304571 0.673346 0.139513
H3    H     H_    0.101474 0.409251 0.825758 0.141541
H4    H     H_    0.099186 0.296234 0.674284 0.128240
H5    H     H_    0.488715 0.918266 0.805220 0.303361
H6    H     H_    0.503881 0.124727 0.785305 0.324324
H7    H     H_    0.821093 0.648665 0.293282 0.330607
H8    H     H_    0.769004 0.098567 0.351434 0.276918
H9    H     H_    0.658594 0.039209 0.136152 0.169788
H10   H     H_    0.724771 0.192349 0.133299 0.141073
H11   H     H_    0.562392 0.172996 0.168120 0.179031
H12   H     H_    0.253245 0.132127 0.688168 0.117630
H13   H     H_    0.705329 0.795753 0.406131 0.313383
H14   H     H_    0.154920 0.946403 0.628135 0.210173
H15   H     H_    0.096211 0.743285 0.689025 0.129457
H16   H     H_    0.246317 0.718419 0.760895 0.215693
H17   H     H_    0.229038 0.737809 0.573389 0.136036
H18   H     H_    0.343610 0.384261 0.129595 0.125863
H19   H     H_    0.342451 0.385945 0.869429 0.149786
H20   H     H_    0.727904 0.695159 0.875456 0.132124
H21   H     H_    0.562680 0.740599 0.866878 0.189049
H22   H     H_    0.714614 0.713875 0.121648 0.173667
H23   H     H_    0.547003 0.749573 0.115529 0.183443
H24   H     H_    0.880962 0.418072 0.824379 0.155193
N1    N     N_R   0.500790 0.500930 0.147930 -0.238967
N2    N     N_R   0.500790 0.500890 0.852020 -0.235550
N3    N     N_2   0.680449 0.127621 0.333157 -0.488378
N4    N     N_2   0.210504 0.898893 0.695016 -0.476141
O1    O     O_R   0.500000 0.319640 0.618810 -0.483312
O2    O     O_3   0.415197 0.139138 0.806133 -0.689415
O3    O     O_3   0.888476 0.594054 0.261246 -0.696660
O4    O     O_3   0.691297 0.873999 0.357867 -0.728146
O5    O     O_R   0.500010 0.319680 0.381230 -0.489474
O6    O     O_R   0.319650 0.499970 0.618810 -0.512714
O7    O     O_R   0.319660 0.500010 0.381230 -0.518383
O8    O     O_R   0.499990 0.680320 0.618770 -0.501302
O9    O     O_R   0.500000 0.680360 0.381190 -0.497675
O10   O     O_R   0.680340 0.499990 0.618770 -0.507195
O11   O     O_R   0.680350 0.500030 0.381190 -0.479198
O12   O     O_3   0.401088 0.892617 0.813739 -0.652255

loop_
_geom_bond_atom_site_label_1
_geom_bond_atom_site_label_2
_ccdc_geom_bond_type
C17   C18   A    
C4    C16   S    
H7    O3    S    
C5    H12   S    
C3    O12   S    
C18   O3    S    
Cu1   Cu2   S    
Cu1   N2    S    
H8    N3    S    
C9    C10   S    
C4    O6    A    
Cu2   N1    S    
Cu2   O9    S    
C11   H23   S    
C12   C15   A    
C7    N1    A    
C6    N1    A    
C3    C5    S    
C23   H4    S    
C7    H18   S    
C8    N2    A    
C6    C9    A    
C15   C23   S    
C2    C3    S    
C25   C26   A    
Cu1   O6    S    
C21   N4    S    
C13   C28   S    
C9    N2    A    
Cu2   O5    S    
H6    O2    S    
C1    C25   S    
C6    C11   S    
C26   C27   A    
C5    C24   S    
C22   H2    S    
C17   H1    S    
C10   H21   S    
C1    O5    A    
C12   C19   A    
C14   O11   A    
C27   O4    S    
C20   H11   S    
C21   H15   S    
C13   O8    A    
C1    O1    A    
C2    C24   A    
C4    O7    A    
C20   H10   S    
C26   N3    S    
C8    H19   S    
Cu2   O7    S    
C10   C11   S    
Cu1   O1    S    
C15   C16   A    
Cu1   O10   S    
C3    N4    S    
C12   C22   S    
C7    C8    A    
Cu2   O11   S    
C24   C25   A    
H13   O4    S    
C22   H24   S    
C21   H16   S    
C13   O9    A    
C27   C28   A    
C20   H9    S    
C14   O10   A    
C22   C23   S    
C18   C19   A    
C2    C28   A    
C11   H22   S    
C5    O2    S    
C23   H3    S    
C20   N3    S    
C14   C19   S    
Cu1   O8    S    
H5    O12   S    
H14   N4    S    
C16   C17   A    
C21   H17   S    
C10   H20   S    
