data_mof_unit_43903.cif
_audit_creation_date              2012-12-10T17:46:59-0500
_audit_creation_method            fapswitch 2.2
_symmetry_space_group_name_H-M    P1
_symmetry_Int_Tables_number       1
_space_group_crystal_system       triclinic
_cell_length_a                    9.974873
_cell_length_b                    10.609029
_cell_length_c                    13.630376
_cell_angle_alpha                 92.114805
_cell_angle_beta                  83.758462
_cell_angle_gamma                 88.771456
_cell_volume                      1432.41996715

loop_
_atom_site_label
_atom_site_type_symbol
_atom_type_description
_atom_site_fract_x
_atom_site_fract_y
_atom_site_fract_z
_atom_type_partial_charge
C1    C     C_R   0.499180 0.739112 0.497814 0.838395
C2    C     C_R   0.553219 0.937791 0.567177 -0.214171
C3    C     C_R   0.556687 0.066362 0.565899 -0.198637
C4    C     C_R   0.476434 0.500953 0.685264 0.878685
C5    C     C_R   0.504915 0.127925 0.489506 -0.085834
C6    C     C_R   0.832572 0.631529 0.650196 -0.132052
C7    C     C_R   0.881884 0.664202 0.738491 -0.251382
C8    C     C_R   0.019252 0.656783 0.744051 -0.167927
C9    C     C_R   0.106194 0.634151 0.657483 0.157441
C10   C     C_R   0.058284 0.565369 0.575883 0.109879
C11   C     C_R   0.914361 0.564574 0.574539 0.146643
C12   C     C_1   0.458856 0.508418 0.788750 -0.192916
C13   C     C_R   0.940960 0.437951 0.428454 -0.110758
C14   C     C_R   0.083564 0.438035 0.428410 -0.103711
C15   C     C_R   0.501667 0.260703 0.496762 0.861146
C16   C     C_R   0.523518 0.499511 0.314746 0.861776
C17   C     C_1   0.540251 0.500481 0.211366 -0.176238
C18   C     C_2   0.553694 0.503394 0.020162 -0.171430
C19   C     C_2   0.439061 0.522017 0.980572 0.138848
C20   C     C_1   0.445602 0.515572 0.876361 -0.067690
C21   C     C_1   0.551097 0.501718 0.123868 0.048008
C22   C     C_R   0.403018 0.862693 0.331364 -0.193110
C23   C     C_R   0.357963 0.925053 0.252005 0.172361
C24   C     C_R   0.361146 0.056891 0.251435 -0.176820
C25   C     C_R   0.408829 0.125131 0.329299 -0.217339
C26   C     C_R   0.453355 0.062747 0.410234 0.096135
C27   C     C_R   0.450101 0.930907 0.411398 0.052748
C28   C     C_R   0.498371 0.871317 0.491907 -0.078220
H1    H     H_    0.731944 0.662580 0.642394 0.195578
H2    H     H_    0.057080 0.700399 0.808386 0.151261
H3    H     H_    0.191458 0.777765 0.575940 0.219563
H4    H     H_    0.293257 0.713801 0.664463 0.216064
H5    H     H_    0.146549 0.386800 0.369913 0.146627
H6    H     H_    0.591613 0.889831 0.627688 0.137119
H7    H     H_    0.224614 0.807448 0.199223 0.185319
H8    H     H_    0.284721 0.912204 0.117403 0.171865
H9    H     H_    0.328036 0.107028 0.190246 0.134439
H10   H     H_    0.815281 0.706514 0.799440 0.157846
H11   H     H_    0.649161 0.485787 0.974564 0.132662
H12   H     H_    0.402346 0.760787 0.328611 0.161542
H13   H     H_    0.412523 0.226534 0.324474 0.148390
H14   H     H_    0.596525 0.118354 0.625858 0.152318
H15   H     H_    0.897768 0.386738 0.369922 0.144771
H16   H     H_    0.272511 0.631344 0.020427 0.185589
H17   H     H_    0.246566 0.474801 0.021524 0.179857
N1    N     N_R   0.857120 0.501200 0.500900 -0.113669
N2    N     N_R   0.142720 0.501280 0.500940 -0.113228
N3    N     N_3   0.312387 0.545050 0.040016 -0.435580
N4    N     N_3   0.198508 0.733959 0.642680 -0.458655
N5    N     N_3   0.312178 0.852603 0.171687 -0.457031
O1    O     O_R   0.385310 0.683220 0.500000 -0.642392
O2    O     O_R   0.614640 0.683250 0.500010 -0.623590
O3    O     O_R   0.368830 0.499960 0.640340 -0.610154
O4    O     O_R   0.598160 0.499980 0.640350 -0.625604
O5    O     O_R   0.385360 0.316750 0.499990 -0.608882
O6    O     O_R   0.614690 0.316780 0.500000 -0.607080
O7    O     O_R   0.401840 0.500020 0.359650 -0.618212
O8    O     O_R   0.631170 0.500040 0.359660 -0.607405
Zn1   Zn    Zn3+2 0.346870 0.499980 0.499990 0.935493
Zn2   Zn    Zn3+2 0.653130 0.500020 0.500010 0.941349

loop_
_geom_bond_atom_site_label_1
_geom_bond_atom_site_label_2
_ccdc_geom_bond_type
C1    C28   S    
C2    C28   A    
C23   C24   A    
C3    H14   S    
C6    C7    A    
O5    Zn1   S    
C4    O3    A    
C4    C12   S    
C18   C21   S    
C9    C10   A    
C22   C27   A    
C19   C20   S    
C18   H11   S    
C22   H12   S    
C15   O6    A    
C2    H6    S    
H7    N5    S    
C24   H9    S    
O3    Zn1   S    
C8    H2    S    
C7    C8    A    
O4    Zn2   S    
C13   C14   A    
C1    O1    A    
C12   C20   T    
C26   C27   A    
C14   N2    A    
C14   H5    S    
C27   C28   A    
C7    H10   S    
H3    N4    S    
C11   N1    A    
C2    C3    A    
O1    Zn1   S    
C4    O4    A    
C16   O7    A    
C13   N1    A    
C1    O2    A    
H4    N4    S    
C5    C15   S    
O7    Zn1   S    
C10   C11   A    
N2    Zn1   S    
C5    C26   A    
H16   N3    S    
C13   H15   S    
C6    H1    S    
C9    N4    S    
C24   C25   A    
C18   C19   D    
H17   N3    S    
C25   H13   S    
C6    C11   A    
C19   N3    S    
C8    C9    A    
C23   N5    S    
C16   O8    A    
O2    Zn2   S    
N1    Zn2   S    
C25   C26   A    
C22   C23   A    
C10   N2    A    
O8    Zn2   S    
C17   C21   T    
O6    Zn2   S    
H8    N5    S    
C16   C17   S    
C3    C5    A    
C15   O5    A    
