data_mof_unit_67267.cif
_audit_creation_date              2012-12-11T18:15:50-0500
_audit_creation_method            fapswitch 2.2
_symmetry_space_group_name_H-M    P1
_symmetry_Int_Tables_number       1
_space_group_crystal_system       triclinic
_cell_length_a                    20.168343
_cell_length_b                    19.95082
_cell_length_c                    8.323044
_cell_angle_alpha                 90.001564
_cell_angle_beta                  91.78813
_cell_angle_gamma                 90.00038
_cell_volume                      3347.35386865

loop_
_atom_site_label
_atom_site_type_symbol
_atom_type_description
_atom_site_fract_x
_atom_site_fract_y
_atom_site_fract_z
_atom_type_partial_charge
Ba1   Ba    Ba6+2 0.999980 0.452130 0.155200 1.640660
Ba2   Ba    Ba6+2 0.999980 0.547870 0.655200 1.640660
Ba3   Ba    Ba6+2 0.499980 0.952130 0.155200 1.640672
Ba4   Ba    Ba6+2 0.499980 0.047870 0.655200 1.640664
C1    C     C_3   0.986422 0.129403 0.502141 0.008107
C2    C     C_3   0.986398 0.870592 0.002121 0.008152
C3    C     C_3   0.486510 0.629371 0.502262 0.007914
C4    C     C_3   0.486398 0.370616 0.002134 0.008035
C5    C     C_R   0.150567 0.346957 0.821125 0.036346
C6    C     C_R   0.150566 0.653041 0.321125 0.036330
C7    C     C_R   0.650564 0.846956 0.821126 0.036333
C8    C     C_R   0.650565 0.153042 0.321126 0.036328
C9    C     C_R   0.111669 0.336374 0.681433 -0.286778
C10   C     C_R   0.111668 0.663623 0.181434 -0.286780
C11   C     C_R   0.611665 0.836371 0.681436 -0.286739
C12   C     C_R   0.611666 0.163624 0.181436 -0.286776
C13   C     C_R   0.124805 0.283546 0.577725 0.003868
C14   C     C_R   0.124804 0.716452 0.077731 0.003882
C15   C     C_R   0.624798 0.783540 0.577732 0.003844
C16   C     C_R   0.624802 0.216453 0.077734 0.003883
C17   C     C_R   0.172761 0.235837 0.621191 -0.144305
C18   C     C_R   0.172759 0.764161 0.121199 -0.144299
C19   C     C_R   0.672753 0.735831 0.621199 -0.144331
C20   C     C_R   0.672758 0.264162 0.121202 -0.144308
C21   C     C_R   0.210473 0.242768 0.765435 -0.002327
C22   C     C_R   0.210472 0.757230 0.265439 -0.002325
C23   C     C_R   0.710467 0.742764 0.765440 -0.002305
C24   C     C_R   0.710471 0.257231 0.265441 -0.002322
C25   C     C_R   0.201412 0.299820 0.864447 -0.032533
C26   C     C_R   0.201413 0.700179 0.364445 -0.032546
C27   C     C_R   0.701409 0.799818 0.864448 -0.032544
C28   C     C_R   0.701411 0.200180 0.364447 -0.032548
C29   C     C_R   0.799882 0.701321 0.946862 -0.026241
C30   C     C_R   0.799886 0.298677 0.446860 -0.026243
C31   C     C_R   0.299885 0.201323 0.946862 -0.026241
C32   C     C_R   0.299887 0.798676 0.446859 -0.026236
C33   C     C_R   0.791095 0.758570 0.045570 0.001901
C34   C     C_R   0.791098 0.241429 0.545564 0.001905
C35   C     C_R   0.291098 0.258572 0.045570 0.001908
C36   C     C_R   0.291100 0.741428 0.545563 0.001919
C37   C     C_R   0.850072 0.653576 0.990832 0.048742
C38   C     C_R   0.850075 0.346424 0.490830 0.048738
C39   C     C_R   0.350074 0.153577 0.990833 0.048736
C40   C     C_R   0.350076 0.846423 0.490830 0.048744
C41   C     C_R   0.888395 0.663586 0.131976 -0.273615
C42   C     C_R   0.888399 0.336415 0.631973 -0.273609
C43   C     C_R   0.388397 0.163587 0.131977 -0.273610
C44   C     C_R   0.388401 0.836413 0.631972 -0.273602
C45   C     C_3   0.025624 0.208983 0.913539 0.360292
C46   C     C_3   0.025623 0.791017 0.413538 0.360284
C47   C     C_3   0.525623 0.708979 0.913577 0.360334
C48   C     C_3   0.525626 0.291018 0.413545 0.360293
C49   C     C_R   0.876059 0.717173 0.234806 0.000737
C50   C     C_R   0.876062 0.282828 0.734799 0.000737
C51   C     C_R   0.376062 0.217175 0.234806 0.000730
C52   C     C_R   0.376064 0.782826 0.734797 0.000721
C53   C     C_R   0.828829 0.765454 0.189901 -0.144463
C54   C     C_R   0.828833 0.234547 0.689891 -0.144467
C55   C     C_R   0.328832 0.265456 0.189901 -0.144477
C56   C     C_R   0.328834 0.734545 0.689889 -0.144461
C57   C     C_R   0.758225 0.693987 0.808542 -0.037419
C58   C     C_R   0.758228 0.306009 0.308543 -0.037418
C59   C     C_R   0.258229 0.193990 0.808539 -0.037412
C60   C     C_R   0.258229 0.806008 0.308542 -0.037414
C61   C     C_3   0.060905 0.142114 0.934867 -0.314734
C62   C     C_3   0.060907 0.857885 0.434870 -0.314732
C63   C     C_3   0.560896 0.642105 0.934905 -0.314768
C64   C     C_3   0.560910 0.357885 0.434889 -0.314735
C65   C     C_3   0.810939 0.457938 0.818208 0.303335
C66   C     C_3   0.810939 0.542060 0.318204 0.303343
C67   C     C_3   0.310940 0.957938 0.818209 0.303333
C68   C     C_3   0.310940 0.042060 0.318201 0.303335
C69   C     C_3   0.748471 0.415165 0.805827 -0.375866
C70   C     C_3   0.748471 0.584831 0.305830 -0.375869
C71   C     C_3   0.248472 0.915165 0.805827 -0.375854
C72   C     C_3   0.248471 0.084829 0.305805 -0.375861
C73   C     C_3   0.186891 0.544167 0.982670 0.294006
C74   C     C_3   0.186885 0.455830 0.482648 0.294021
C75   C     C_3   0.686892 0.044166 0.982674 0.293994
C76   C     C_3   0.686888 0.955834 0.482676 0.294002
C77   C     C_3   0.247857 0.589665 0.984136 -0.292411
C78   C     C_3   0.247847 0.410328 0.484086 -0.292422
C79   C     C_3   0.747859 0.089663 0.984150 -0.292403
C80   C     C_3   0.747853 0.910336 0.484149 -0.292410
C81   C     C_3   0.985777 0.197853 0.421008 0.361445
C82   C     C_3   0.985772 0.802140 0.921004 0.361449
C83   C     C_3   0.485799 0.697826 0.421065 0.361418
C84   C     C_3   0.485772 0.302146 0.921001 0.361448
C85   C     C_R   0.243292 0.307397 0.002377 -0.021935
C86   C     C_R   0.243293 0.692602 0.502371 -0.021968
C87   C     C_R   0.743290 0.807396 0.002376 -0.021977
C88   C     C_R   0.743292 0.192603 0.502372 -0.021977
H1    H     H_    0.941980 0.201184 0.337074 0.089377
H2    H     H_    0.941984 0.798796 0.837053 0.089383
H3    H     H_    0.441966 0.701123 0.337185 0.089374
H4    H     H_    0.441969 0.298795 0.837044 0.089393
H5    H     H_    0.713637 0.435961 0.712589 0.140322
H6    H     H_    0.713634 0.564031 0.212601 0.140322
H7    H     H_    0.213638 0.935960 0.712589 0.140328
H8    H     H_    0.213640 0.064030 0.212561 0.140327
H9    H     H_    0.760912 0.362958 0.773058 0.058878
H10   H     H_    0.760911 0.637038 0.273053 0.058876
H11   H     H_    0.260913 0.862957 0.773060 0.058872
H12   H     H_    0.260912 0.137037 0.273037 0.058871
H13   H     H_    0.723776 0.414542 0.923238 0.127189
H14   H     H_    0.723779 0.585460 0.423246 0.127188
H15   H     H_    0.223776 0.914541 0.923238 0.127198
H16   H     H_    0.223771 0.085456 0.423210 0.127205
H17   H     H_    0.164095 0.544102 0.101875 -0.019667
H18   H     H_    0.164090 0.455892 0.601854 -0.019675
H19   H     H_    0.664094 0.044100 0.101877 -0.019649
H20   H     H_    0.664091 0.955904 0.601881 -0.019654
H21   H     H_    0.150696 0.564252 0.892054 0.076820
H22   H     H_    0.150687 0.435752 0.392030 0.076846
H23   H     H_    0.650698 0.064253 0.892057 0.076819
H24   H     H_    0.650692 0.935745 0.392064 0.076829
H25   H     H_    0.276732 0.580769 0.874644 0.117303
H26   H     H_    0.276738 0.419247 0.374632 0.117341
H27   H     H_    0.776732 0.080773 0.874657 0.117298
H28   H     H_    0.776726 0.919223 0.374657 0.117298
H29   H     H_    0.232421 0.642934 0.984154 0.027429
H30   H     H_    0.232404 0.357061 0.484008 0.027439
H31   H     H_    0.732425 0.142931 0.984184 0.027423
H32   H     H_    0.732417 0.857069 0.484181 0.027429
H33   H     H_    0.979348 0.236326 0.516013 -0.116073
H34   H     H_    0.979342 0.763672 0.016012 -0.116082
H35   H     H_    0.479375 0.736306 0.516059 -0.116063
H36   H     H_    0.479356 0.263680 0.016026 -0.116083
H37   H     H_    0.940891 0.123154 0.572416 0.062978
H38   H     H_    0.940858 0.876836 0.072352 0.062953
H39   H     H_    0.441011 0.623101 0.572733 0.063108
H40   H     H_    0.440852 0.376871 0.072437 0.063051
H41   H     H_    0.109812 0.143944 0.877435 0.056053
H42   H     H_    0.109810 0.856056 0.377426 0.056054
H43   H     H_    0.609808 0.643931 0.877475 0.056050
H44   H     H_    0.609810 0.356062 0.377406 0.056050
H45   H     H_    0.073707 0.372399 0.647026 0.067383
H46   H     H_    0.073706 0.627597 0.147024 0.067389
H47   H     H_    0.573705 0.872399 0.647026 0.067377
H48   H     H_    0.573705 0.127598 0.147025 0.067387
H49   H     H_    0.181566 0.194301 0.540811 0.074299
H50   H     H_    0.181564 0.805697 0.040824 0.074302
H51   H     H_    0.681558 0.694295 0.540821 0.074276
H52   H     H_    0.681562 0.305698 0.040825 0.074293
H53   H     H_    0.820582 0.807440 0.269293 0.074402
H54   H     H_    0.820585 0.192561 0.769281 0.074401
H55   H     H_    0.320585 0.307442 0.269292 0.074397
H56   H     H_    0.320587 0.692559 0.769279 0.074395
H57   H     H_    0.925658 0.626965 0.167204 0.063980
H58   H     H_    0.925662 0.373036 0.667204 0.063986
H59   H     H_    0.425659 0.126966 0.167205 0.063982
H60   H     H_    0.425663 0.873035 0.667203 0.063984
H61   H     H_    0.239141 0.350917 0.078590 0.102892
H62   H     H_    0.239143 0.649083 0.578581 0.102892
H63   H     H_    0.739140 0.850917 0.078587 0.102901
H64   H     H_    0.739142 0.149084 0.578582 0.102894
H65   H     H_    0.762191 0.650485 0.732279 0.099782
H66   H     H_    0.762194 0.349511 0.232281 0.099780
H67   H     H_    0.262195 0.150488 0.732275 0.099787
H68   H     H_    0.262195 0.849510 0.232282 0.099781
H69   H     H_    0.030488 0.125463 0.584801 0.070768
H70   H     H_    0.030447 0.874541 0.084813 0.070775
H71   H     H_    0.530644 0.625449 0.584795 0.070777
H72   H     H_    0.530481 0.374576 0.084816 0.070813
H73   H     H_    0.055363 0.247444 0.980184 0.084417
H74   H     H_    0.055364 0.752556 0.480170 0.084402
H75   H     H_    0.555365 0.747436 0.980236 0.084438
H76   H     H_    0.555370 0.252553 0.480167 0.084389
H77   H     H_    0.023454 0.221431 0.783411 -0.091205
H78   H     H_    0.023449 0.778571 0.283408 -0.091193
H79   H     H_    0.523460 0.721428 0.783447 -0.091249
H80   H     H_    0.523450 0.278577 0.283408 -0.091201
H81   H     H_    0.069016 0.130928 0.064511 0.179638
H82   H     H_    0.069023 0.869069 0.564514 0.179626
H83   H     H_    0.569003 0.630917 0.064560 0.179659
H84   H     H_    0.569041 0.369058 0.564544 0.179627
H85   H     H_    0.030678 0.101590 0.878275 0.164654
H86   H     H_    0.030678 0.898410 0.378295 0.164665
H87   H     H_    0.530662 0.601583 0.878303 0.164641
H88   H     H_    0.530671 0.398415 0.378350 0.164695
H89   H     H_    0.833047 0.461065 0.698591 0.007926
H90   H     H_    0.833043 0.538927 0.198583 0.007926
H91   H     H_    0.333048 0.961065 0.698592 0.007921
H92   H     H_    0.333050 0.038926 0.198587 0.007928
H93   H     H_    0.846396 0.433944 0.905219 0.066525
H94   H     H_    0.846399 0.566057 0.405207 0.066522
H95   H     H_    0.346396 0.933944 0.905221 0.066526
H96   H     H_    0.346395 0.066059 0.405211 0.066522
O1    O     O_2   0.130070 0.404060 0.104920 -0.471318
O2    O     O_2   0.130070 0.595940 0.604920 -0.471299
O3    O     O_2   0.630070 0.904060 0.104920 -0.471295
O4    O     O_2   0.630070 0.095940 0.604920 -0.471298
O5    O     O_3   0.793352 0.478008 0.370095 -0.636003
O6    O     O_3   0.793351 0.521992 0.870086 -0.636005
O7    O     O_3   0.293352 0.978008 0.370093 -0.636001
O8    O     O_3   0.293351 0.021992 0.870086 -0.636002
O9    O     O_3   0.961469 0.204488 0.974334 -0.569913
O10   O     O_3   0.961470 0.795512 0.474345 -0.569912
O11   O     O_3   0.461463 0.704488 0.974357 -0.569897
O12   O     O_3   0.461473 0.295511 0.474361 -0.569890
O13   O     O_3   0.924190 0.533610 0.949240 -0.494940
O14   O     O_3   0.924190 0.466390 0.449240 -0.494928
O15   O     O_3   0.424190 0.033610 0.949240 -0.494941
O16   O     O_3   0.424190 0.966390 0.449240 -0.494930
O17   O     O_3   0.075780 0.466370 0.861070 -0.495889
O18   O     O_3   0.075780 0.533630 0.361070 -0.495888
O19   O     O_3   0.575780 0.966370 0.861070 -0.495890
O20   O     O_3   0.575780 0.033630 0.361070 -0.495880
O21   O     O_3   0.022320 0.344950 0.359800 -0.473272
O22   O     O_3   0.022320 0.655050 0.859800 -0.473274
O23   O     O_3   0.522320 0.844950 0.359800 -0.473245
O24   O     O_3   0.522320 0.155050 0.859800 -0.473274
O25   O     O_2   0.132091 0.291823 0.244368 -0.493415
O26   O     O_2   0.132092 0.708178 0.744375 -0.493408
O27   O     O_2   0.632098 0.791834 0.244384 -0.493413
O28   O     O_2   0.632097 0.208170 0.744385 -0.493406
O29   O     O_3   0.206129 0.478994 0.942974 -0.628836
O30   O     O_3   0.206127 0.521004 0.442974 -0.628846
O31   O     O_3   0.706129 0.978993 0.942972 -0.628857
O32   O     O_3   0.706127 0.021005 0.442968 -0.628856
O33   O     O_3   0.043854 0.205280 0.332516 -0.581225
O34   O     O_3   0.043856 0.794721 0.832544 -0.581234
O35   O     O_3   0.543853 0.705287 0.332456 -0.581192
O36   O     O_3   0.543863 0.294720 0.832515 -0.581206
O37   O     O_2   0.869860 0.403670 0.205810 -0.469106
O38   O     O_2   0.869860 0.596330 0.705810 -0.469101
O39   O     O_2   0.369860 0.903670 0.205810 -0.469100
O40   O     O_2   0.369860 0.096330 0.705810 -0.469101
O41   O     O_3   0.977590 0.344880 0.951200 -0.490032
O42   O     O_3   0.977590 0.655120 0.451200 -0.490033
O43   O     O_3   0.477590 0.844880 0.951200 -0.490031
O44   O     O_3   0.477590 0.155120 0.451200 -0.490032
O45   O     O_2   0.871179 0.288001 0.070729 -0.481265
O46   O     O_2   0.871181 0.712000 0.570738 -0.481269
O47   O     O_2   0.371175 0.788006 0.070723 -0.481244
O48   O     O_2   0.371181 0.211999 0.570739 -0.481268
P1    P     P_3+3 0.136530 0.426510 0.931350 0.976090
P2    P     P_3+3 0.136530 0.573490 0.431350 0.976087
P3    P     P_3+3 0.636530 0.926510 0.931350 0.976074
P4    P     P_3+3 0.636530 0.073490 0.431350 0.976085
P5    P     P_3+3 0.863410 0.426100 0.379280 0.973287
P6    P     P_3+3 0.863410 0.573900 0.879280 0.973278
P7    P     P_3+3 0.363410 0.926100 0.379280 0.973292
P8    P     P_3+3 0.363410 0.073900 0.879280 0.973278
P9    P     P_3+3 0.920019 0.279928 0.932451 0.964604
P10   P     P_3+3 0.920019 0.720072 0.432458 0.964596
P11   P     P_3+3 0.420018 0.779929 0.932454 0.964629
P12   P     P_3+3 0.420020 0.220073 0.432461 0.964604
P13   P     P_3+3 0.082076 0.718177 0.879201 0.961166
P14   P     P_3+3 0.082076 0.281823 0.379193 0.961154
P15   P     P_3+3 0.582078 0.218176 0.879199 0.961167
P16   P     P_3+3 0.582076 0.781823 0.379190 0.961160
C89   C     C_1   0.290345 0.577328 0.127206 0.352251
N1    N     N_1   0.323593 0.567756 0.240613 -0.234271
C90   C     C_1   0.290318 0.422624 0.627203 0.352207
N2    N     N_1   0.323551 0.432160 0.740650 -0.234311
C91   C     C_1   0.790347 0.077318 0.127210 0.352278
N3    N     N_1   0.823594 0.067742 0.240610 -0.234289
C92   C     C_1   0.790342 0.922681 0.627207 0.352267
N4    N     N_1   0.823590 0.932259 0.740605 -0.234286
I1    I     I_    0.991208 0.050055 0.330150 -0.400798
I2    I     I_    0.991201 0.949936 0.830139 -0.400778
I3    I     I_    0.491206 0.550027 0.330210 -0.400882
I4    I     I_    0.491157 0.449939 0.830051 -0.400792

loop_
_geom_bond_atom_site_label_1
_geom_bond_atom_site_label_2
_ccdc_geom_bond_type
O35   P16   S    
C72   H12   S    
C45   H77   S    
C84   H4    S    
C71   H15   S    
C36   C56   A    
C75   H23   S    
C74   C78   S    
C82   H34   S    
Ba3   O15   S    
O37   P5    D    
O48   P12   D    
C80   C92   S    
C47   H75   S    
Ba2   O14   S    
C59   H67   S    
C2    H38   S    
O1    P1    D    
O20   P4    S    
C68   O7    S    
C83   H35   S    
C64   H84   S    
C70   H6    S    
C12   H48   S    
O32   P4    S    
C11   C15   A    
C62   H86   S    
C45   C61   S    
O8    P8    S    
Ba3   O20   S    
Ba4   O44   S    
C12   C16   A    
O10   P10   S    
C91   N3    T    
C51   C55   A    
O28   P15   D    
C38   C42   A    
C89   N1    T    
C15   P16   S    
Ba4   O16   S    
C78   H26   S    
C14   P13   S    
O31   P3    S    
C77   H25   S    
C13   P14   S    
C30   C58   A    
Ba4   P8    S    
C21   C25   A    
Ba3   P3    S    
Ba1   Ba2   S    
C21   C59   A    
C50   P9    S    
C79   H27   S    
O47   P11   D    
Ba4   O4    S    
C49   P10   S    
C68   H96   S    
C32   C36   A    
C5    C9    A    
C82   H2    S    
O36   P15   S    
C62   H42   S    
C81   H1    S    
C34   C88   A    
C66   H90   S    
C3    C83   S    
C8    C12   A    
C63   H83   S    
C30   C38   A    
O9    P9    S    
O2    P2    D    
C71   H7    S    
C66   C70   S    
C58   H66   S    
C3    I3    S    
C80   H32   S    
C48   O12   S    
O39   P7    D    
C19   C23   A    
O23   P16   S    
C86   H62   S    
C39   C43   A    
O22   P13   S    
C3    H39   S    
O42   P10   S    
C68   C72   S    
O21   P14   S    
C70   H10   S    
C1    C81   S    
O4    P4    D    
C69   H9    S    
Ba1   O13   S    
C10   H46   S    
C2    H70   S    
C8    C28   A    
C71   H11   S    
Ba3   O16   S    
C46   H74   S    
C19   H51   S    
C74   H22   S    
Ba2   O13   S    
C7    C11   A    
C73   H21   S    
Ba1   O14   S    
C25   C85   A    
C30   C34   A    
C23   C57   A    
O46   P10   D    
C11   H47   S    
Ba3   O23   S    
C33   C53   A    
C9    H45   S    
C52   P11   S    
Ba2   O22   S    
O3    P3    D    
C65   O6    S    
C24   C58   A    
C33   C87   A    
O29   P1    S    
Ba1   O21   S    
C76   C80   S    
C67   H91   S    
C64   H44   S    
O19   P3    S    
C68   H92   S    
O18   P2    S    
C4    H72   S    
Ba3   O39   S    
Ba3   O43   S    
C81   O33   S    
C49   C53   A    
C15   C19   A    
Ba2   P2    S    
C16   P15   S    
C47   C63   S    
O15   P8    S    
Ba1   P1    S    
C48   C64   S    
O14   P5    S    
C23   C27   A    
C76   H20   S    
C64   H88   S    
C29   C33   A    
O13   P6    S    
C52   C56   A    
C77   H29   S    
C4    C84   S    
C83   O35   S    
C3    H71   S    
C69   H5    S    
C22   C60   A    
C45   H73   S    
C63   H43   S    
Ba1   O18   S    
C57   H65   S    
C90   N2    T    
C70   H14   S    
C1    I1    S    
C46   C62   S    
C53   H53   S    
C6    C26   A    
O44   P12   S    
C85   H61   S    
C26   C86   A    
O40   P8    D    
C24   C28   A    
C80   H28   S    
C35   C55   A    
C42   C50   A    
O26   P13   D    
C84   O36   S    
Ba4   P4    S    
O25   P14   D    
C2    I2    S    
Ba2   O17   S    
Ba3   P7    S    
O11   P11   S    
C45   O9    S    
O24   P15   S    
C65   C69   S    
O12   P12   S    
Ba2   P6    S    
C47   O11   S    
C73   O29   S    
Ba1   P5    S    
C29   C57   A    
O7    P7    S    
C42   H58   S    
C67   C71   S    
C4    H40   S    
C29   C37   A    
C27   C87   A    
C51   P12   S    
C46   H78   S    
C44   H60   S    
C5    P1    S    
O27   P16   D    
C20   C24   A    
C78   C90   S    
C32   C40   A    
C4    I4    S    
C87   H63   S    
O30   P2    S    
C92   N4    T    
C88   H64   S    
C65   H93   S    
O16   P7    S    
C31   C39   A    
Ba2   O38   S    
Ba4   O19   S    
C43   C51   A    
C50   C54   A    
Ba1   O37   S    
C44   C52   A    
C17   C21   A    
C83   H3    S    
C73   H17   S    
O6    P6    S    
C61   H81   S    
C81   H33   S    
C14   C18   A    
O5    P5    S    
C10   C14   A    
O43   P11   S    
Ba2   O2    S    
C67   H95   S    
Ba4   O15   S    
C75   H19   S    
C2    C82   S    
C76   O32   S    
Ba2   O42   S    
C7    C27   A    
C18   H50   S    
C54   H54   S    
C75   O31   S    
C6    P2    S    
C5    C25   A    
C39   P8    S    
C72   H8    S    
C82   O34   S    
C48   H76   S    
C38   P5    S    
C60   H68   S    
C74   H18   S    
C9    C13   A    
C37   P6    S    
C79   H31   S    
C47   H79   S    
C66   H94   S    
C17   H49   S    
C46   O10   S    
C84   H36   S    
C40   C44   A    
C63   H87   S    
C74   O30   S    
C75   C79   S    
O45   P9    D    
C67   O8    S    
C28   C88   A    
C61   H85   S    
C20   H52   S    
C66   O5    S    
Ba4   O24   S    
C1    H37   S    
C48   H80   S    
C69   H13   S    
C78   H30   S    
C79   C91   S    
C41   H57   S    
Ba4   O40   S    
Ba1   O1    S    
Ba3   O3    S    
C16   C20   A    
C13   C17   A    
O38   P6    D    
O17   P1    S    
C43   H59   S    
C41   C49   A    
C6    C10   A    
O34   P13   S    
Ba1   O41   S    
C8    P4    S    
C31   C35   A    
O33   P14   S    
C72   H16   S    
C73   C77   S    
C18   C22   A    
C65   H89   S    
C37   C41   A    
C62   H82   S    
C31   C59   A    
O41   P9    S    
C56   H56   S    
C76   H24   S    
C36   C86   A    
C32   C60   A    
C7    P3    S    
C34   C54   A    
C35   C85   A    
C61   H41   S    
C77   C89   S    
Ba3   Ba4   S    
C40   P7    S    
C1    H69   S    
C22   C26   A    
C55   H55   S    
