data_mof_unit_54850.cif
_audit_creation_date              2013-03-05T15:52:00-0500
_audit_creation_method            fapswitch 2.2
_symmetry_space_group_name_H-M    P1
_symmetry_Int_Tables_number       1
_space_group_crystal_system       triclinic
_cell_length_a                    18.887733
_cell_length_b                    11.009573
_cell_length_c                    18.761636
_cell_angle_alpha                 90.002911
_cell_angle_beta                  91.101062
_cell_angle_gamma                 89.977168
_cell_volume                      3900.68413561

loop_
_atom_site_label
_atom_site_type_symbol
_atom_site_description
_atom_site_fract_x
_atom_site_fract_y
_atom_site_fract_z
_atom_type_partial_charge
O1    O     O_R   0.214300 0.709080 0.827500 -0.534061
O2    O     O_R   0.785700 0.709080 0.172500 -0.537682
O3    O     O_R   0.714300 0.209080 0.827500 -0.537567
O4    O     O_R   0.285700 0.209080 0.172500 -0.534768
O5    O     O_R   0.236190 0.958390 0.823150 -0.506150
O6    O     O_R   0.763810 0.958390 0.176850 -0.494172
O7    O     O_R   0.736190 0.458390 0.823150 -0.494231
O8    O     O_R   0.263810 0.458390 0.176850 -0.502945
C1    C     C_R   0.273717 0.039160 0.855094 0.548746
C2    C     C_R   0.712282 0.003921 0.138483 0.549591
C3    C     C_R   0.787644 0.504185 0.861514 0.548876
C4    C     C_R   0.226299 0.538829 0.144756 0.545268
O9    O     O_R   0.332090 0.075280 0.831290 -0.494738
O10   O     O_R   0.667910 0.075280 0.168710 -0.500915
O11   O     O_R   0.832090 0.575280 0.831290 -0.497988
O12   O     O_R   0.167910 0.575280 0.168710 -0.511775
O13   O     O_R   0.446280 0.918040 0.826620 -0.503607
O14   O     O_R   0.553720 0.918040 0.173380 -0.517560
O15   O     O_R   0.946280 0.418040 0.826620 -0.517222
O16   O     O_R   0.053720 0.418040 0.173380 -0.506864
C5    C     C_R   0.469628 0.821369 0.855912 0.541264
C6    C     C_R   0.529159 0.821604 0.144786 0.536688
C7    C     C_R   0.970948 0.321465 0.855176 0.536936
C8    C     C_R   0.030382 0.321346 0.144100 0.544594
O17   O     O_R   0.457080 0.716270 0.831760 -0.482458
O18   O     O_R   0.542920 0.716270 0.168240 -0.465916
O19   O     O_R   0.957080 0.216270 0.831760 -0.466964
O20   O     O_R   0.042920 0.216270 0.168240 -0.461637
O21   O     O_R   0.320980 0.624440 0.823040 -0.468232
O22   O     O_R   0.679020 0.624440 0.176960 -0.462921
O23   O     O_R   0.820980 0.124440 0.823040 -0.462499
O24   O     O_R   0.179020 0.124440 0.176960 -0.463510
C9    C     C_R   0.260274 0.634589 0.850856 0.541272
C10   C     C_R   0.740201 0.632921 0.149794 0.534346
C11   C     C_R   0.759770 0.132986 0.850208 0.535253
C12   C     C_R   0.239497 0.134627 0.148964 0.537787
O25   O     O_R   0.213880 0.710510 0.665560 -0.520140
O26   O     O_R   0.786120 0.710510 0.334440 -0.525859
O27   O     O_R   0.713880 0.210510 0.665560 -0.518982
O28   O     O_R   0.286120 0.210510 0.334440 -0.526600
O29   O     O_R   0.235800 0.959720 0.673040 -0.510431
O30   O     O_R   0.764200 0.959720 0.326960 -0.507483
O31   O     O_R   0.735800 0.459720 0.673040 -0.504587
O32   O     O_R   0.264200 0.459720 0.326960 -0.510999
C13   C     C_R   0.273076 0.040708 0.643715 0.546333
C14   C     C_R   0.729264 0.048050 0.352885 0.555335
C15   C     C_R   0.773124 0.540512 0.643635 0.551609
C16   C     C_R   0.229380 0.548421 0.352700 0.547551
O33   O     O_R   0.331670 0.076720 0.669350 -0.512771
O34   O     O_R   0.668330 0.076720 0.330650 -0.520444
O35   O     O_R   0.831670 0.576720 0.669350 -0.513540
O36   O     O_R   0.168330 0.576720 0.330650 -0.523363
O37   O     O_R   0.445900 0.919370 0.676500 -0.510310
O38   O     O_R   0.554100 0.919370 0.323500 -0.511999
O39   O     O_R   0.945900 0.419370 0.676500 -0.511139
O40   O     O_R   0.054100 0.419370 0.323500 -0.512649
C17   C     C_R   0.466307 0.823326 0.644910 0.539751
C18   C     C_R   0.529034 0.823230 0.352281 0.539522
C19   C     C_R   0.970152 0.323893 0.647264 0.546072
C20   C     C_R   0.031763 0.323121 0.354068 0.539811
O41   O     O_R   0.456660 0.717710 0.669820 -0.517698
O42   O     O_R   0.543340 0.717710 0.330180 -0.522290
O43   O     O_R   0.956660 0.217710 0.669820 -0.523678
O44   O     O_R   0.043340 0.217710 0.330180 -0.517514
O45   O     O_R   0.320590 0.625770 0.672930 -0.508655
O46   O     O_R   0.679410 0.625770 0.327070 -0.512432
O47   O     O_R   0.820590 0.125770 0.672930 -0.510095
O48   O     O_R   0.179410 0.125770 0.327070 -0.508256
C21   C     C_R   0.261270 0.641555 0.641650 0.543303
C22   C     C_R   0.741540 0.633844 0.354675 0.543743
C23   C     C_R   0.760678 0.139923 0.642270 0.542742
C24   C     C_R   0.241606 0.134064 0.354666 0.545196
Cr1   Cr    Cr6+3 0.229640 0.835880 0.747370 1.018844
Cr2   Cr    Cr6+3 0.770360 0.835880 0.252630 1.017973
Cr3   Cr    Cr6+3 0.729640 0.335880 0.747370 1.023965
Cr4   Cr    Cr6+3 0.270360 0.335880 0.252630 1.015791
Cr5   Cr    Cr6+3 0.387390 0.989720 0.750850 1.049040
Cr6   Cr    Cr6+3 0.612610 0.989720 0.249150 1.028931
Cr7   Cr    Cr6+3 0.887390 0.489720 0.750850 1.034809
Cr8   Cr    Cr6+3 0.112610 0.489720 0.249150 1.031135
Cr9   Cr    Cr6+3 0.385770 0.677220 0.749340 1.072487
Cr10  Cr    Cr6+3 0.614230 0.677220 0.250660 1.061216
Cr11  Cr    Cr6+3 0.885770 0.177220 0.749340 1.062624
Cr12  Cr    Cr6+3 0.114230 0.177220 0.250660 1.071493
O49   O     O_3   0.334270 0.834280 0.749190 -0.268722
O50   O     O_3   0.665730 0.834280 0.250810 -0.275022
O51   O     O_3   0.834270 0.334280 0.749190 -0.278500
O52   O     O_3   0.165730 0.334280 0.250810 -0.262800
C25   C     C_3   0.466928 0.926079 0.029034 -0.131381
C26   C     C_3   0.525334 0.929424 0.972382 -0.131107
C27   C     C_3   0.975455 0.429445 0.027351 -0.130704
C28   C     C_3   0.033937 0.424764 0.970816 -0.129510
C29   C     C_3   0.428342 0.824327 0.986872 -0.122585
C30   C     C_3   0.567683 0.831546 0.014196 -0.122900
C31   C     C_3   0.932675 0.331951 0.985696 -0.123767
C32   C     C_3   0.071914 0.322579 0.013251 -0.118703
H1    H     H_    0.370734 0.821483 0.973832 0.117844
H2    H     H_    0.625310 0.832716 0.026997 0.109774
H3    H     H_    0.875067 0.333799 0.972843 0.110051
H4    H     H_    0.129487 0.318953 0.026394 0.118166
H5    H     H_    0.443893 0.006111 0.055348 0.131371
H6    H     H_    0.543787 0.012641 0.945761 0.133259
H7    H     H_    0.957348 0.513251 0.053646 0.136966
H8    H     H_    0.057720 0.504096 0.944449 0.135083
C33   C     C_3   0.487773 0.827403 0.931753 0.040764
C34   C     C_3   0.508508 0.828061 0.069501 0.038968
C35   C     C_3   0.991879 0.327278 0.930446 0.040488
C36   C     C_3   0.012426 0.327082 0.068247 0.044396
C37   C     C_3   0.529378 0.729551 0.972568 -0.051726
C38   C     C_3   0.470425 0.726350 0.028574 -0.049549
C39   C     C_3   0.029380 0.225001 0.971689 -0.054587
C40   C     C_3   0.970432 0.229563 0.027584 -0.054928
H9    H     H_    0.556342 0.650628 0.948193 0.179291
H10   H     H_    0.446786 0.645178 0.053776 0.184930
H11   H     H_    0.052467 0.142289 0.947648 0.174955
H12   H     H_    0.943510 0.150504 0.051846 0.176867
C41   C     C_R   0.240918 0.571173 0.070960 -0.005163
C42   C     C_R   0.772944 0.535792 0.935264 -0.005201
C43   C     C_R   0.726956 0.035262 0.064690 -0.004255
C44   C     C_R   0.259294 0.072111 0.928737 -0.000977
C45   C     C_R   0.302874 0.535400 0.036384 -0.049410
C46   C     C_R   0.708029 0.510028 0.966714 -0.037289
C47   C     C_R   0.791718 0.008722 0.033021 -0.036601
C48   C     C_R   0.196763 0.038680 0.962534 -0.061913
C49   C     C_R   0.306979 0.542485 0.961889 0.047211
C50   C     C_R   0.698237 0.528858 0.039707 0.046026
C51   C     C_R   0.801367 0.028070 0.960063 0.046430
C52   C     C_R   0.191393 0.045835 0.036846 0.049817
C53   C     C_R   0.186676 0.615359 0.955676 -0.191198
C54   C     C_R   0.820249 0.593177 0.051117 -0.185571
C55   C     C_R   0.679758 0.094531 0.949133 -0.185965
C56   C     C_R   0.313119 0.112617 0.044605 -0.194850
C57   C     C_R   0.183181 0.611777 0.029005 -0.166592
C58   C     C_R   0.828697 0.578870 0.978338 -0.169893
C59   C     C_R   0.671346 0.079657 0.021860 -0.170953
C60   C     C_R   0.317141 0.110493 0.971254 -0.164299
C61   C     C_3   0.335674 0.412441 0.038821 -0.235863
C62   C     C_3   0.673309 0.389529 0.966927 -0.226089
C63   C     C_3   0.825913 0.887615 0.032039 -0.226330
C64   C     C_3   0.162142 0.917886 0.958334 -0.229891
C65   C     C_3   0.336185 0.416390 0.958290 0.084149
C66   C     C_3   0.664095 0.405829 0.046052 0.089917
C67   C     C_3   0.834770 0.904727 0.952906 0.090045
C68   C     C_3   0.158246 0.921517 0.038542 0.086845
C69   C     C_R   0.249107 0.584246 0.921307 -0.020723
C70   C     C_R   0.754422 0.572439 0.082329 -0.020859
C71   C     C_R   0.745405 0.072923 0.917725 -0.020689
C72   C     C_R   0.250001 0.083568 0.078387 -0.016897
H13   H     H_    0.141329 0.650423 0.926062 0.161803
H14   H     H_    0.863938 0.630611 0.082144 0.159691
H15   H     H_    0.636182 0.132896 0.918318 0.158594
H16   H     H_    0.358516 0.146048 0.074755 0.154759
H17   H     H_    0.133077 0.635444 0.052272 0.200155
H18   H     H_    0.879946 0.597851 0.956057 0.192138
H19   H     H_    0.620239 0.099443 0.044281 0.189425
H20   H     H_    0.367605 0.133709 0.948452 0.194252
H21   H     H_    0.786805 0.816641 0.044715 0.123912
H22   H     H_    0.199242 0.848064 0.939155 0.145455
H23   H     H_    0.298096 0.344711 0.059457 0.142268
H24   H     H_    0.712172 0.318189 0.954145 0.124282
H25   H     H_    0.388755 0.413028 0.065452 0.203285
H26   H     H_    0.623304 0.388759 0.934647 0.198861
H27   H     H_    0.876135 0.885654 0.063959 0.199591
H28   H     H_    0.110095 0.921844 0.929676 0.196320
H29   H     H_    0.298497 0.351804 0.932168 0.110471
H30   H     H_    0.695220 0.340638 0.079464 0.114824
H31   H     H_    0.802982 0.840763 0.919306 0.115269
H32   H     H_    0.192086 0.853199 0.066488 0.103310
C73   C     C_R   0.493870 0.829130 0.420548 0.016957
C74   C     C_R   0.480835 0.830192 0.569325 0.016489
C75   C     C_R   0.015092 0.328934 0.429136 0.022712
C76   C     C_R   0.002706 0.335896 0.578108 0.015625
C77   C     C_R   0.483466 0.721048 0.458329 0.030050
C78   C     C_R   0.477433 0.722289 0.530864 0.040744
C79   C     C_R   0.037942 0.232304 0.472041 0.044952
C80   C     C_R   0.032719 0.235329 0.544906 0.017537
C81   C     C_R   0.478087 0.940389 0.531081 -0.160483
C82   C     C_R   0.484012 0.939810 0.456506 -0.164712
C83   C     C_R   0.989355 0.440885 0.536760 -0.164356
C84   C     C_R   0.994950 0.437152 0.462431 -0.173719
C85   C     C_3   0.525933 0.605853 0.461437 -0.270018
C86   C     C_3   0.518648 0.608090 0.541431 -0.279249
C87   C     C_3   0.019017 0.101006 0.467745 -0.265127
C88   C     C_3   0.015414 0.102696 0.548147 -0.269915
H33   H     H_    0.473714 0.026162 0.558683 0.131595
H34   H     H_    0.486013 0.025180 0.428111 0.121380
H35   H     H_    0.968727 0.522134 0.560914 0.139667
H36   H     H_    0.981326 0.516723 0.431146 0.122385
H37   H     H_    0.062371 0.044213 0.447522 0.140165
H38   H     H_    0.961695 0.083204 0.567221 0.163055
H39   H     H_    0.581294 0.620186 0.445009 0.167991
H40   H     H_    0.485938 0.532379 0.561879 0.137226
H41   H     H_    0.497936 0.528297 0.435488 0.129508
H42   H     H_    0.569654 0.623206 0.570687 0.138794
H43   H     H_    0.966908 0.085872 0.440835 0.137417
H44   H     H_    0.058199 0.049375 0.574843 0.129324
C89   C     C_R   0.251723 0.603943 0.418784 0.019477
C90   C     C_R   0.763218 0.557848 0.568320 0.017817
C91   C     C_R   0.751189 0.101537 0.419624 0.020085
C92   C     C_R   0.263018 0.059005 0.568518 0.020849
C93   C     C_R   0.203308 0.676745 0.455101 0.027507
C94   C     C_R   0.820876 0.602299 0.531578 0.036108
C95   C     C_R   0.703279 0.175547 0.455731 0.029246
C96   C     C_R   0.319943 0.107092 0.532192 0.038617
C97   C     C_R   0.206142 0.681638 0.527615 0.040706
C98   C     C_R   0.819504 0.609436 0.459069 0.024696
C99   C     C_R   0.705642 0.180249 0.528328 0.046142
C100  C     C_R   0.318783 0.114765 0.459819 0.028704
C101  C     C_R   0.314603 0.567007 0.529946 -0.161071
C102  C     C_R   0.707238 0.504294 0.455425 -0.165659
C103  C     C_R   0.810851 0.056949 0.531508 -0.167311
C104  C     C_R   0.208969 0.002779 0.455079 -0.156453
C105  C     C_R   0.312231 0.561425 0.455584 -0.165312
C106  C     C_R   0.708799 0.498597 0.529766 -0.161291
C107  C     C_R   0.809840 0.053991 0.457189 -0.170709
C108  C     C_R   0.210204 0.996543 0.529413 -0.153331
C109  C     C_3   0.123491 0.678083 0.455454 -0.267695
C110  C     C_3   0.859448 0.719051 0.541999 -0.279062
C111  C     C_3   0.623509 0.178249 0.455409 -0.269333
C112  C     C_3   0.357217 0.224948 0.543111 -0.278535
C113  C     C_3   0.127879 0.682383 0.535716 -0.278674
C114  C     C_3   0.858571 0.728647 0.461922 -0.269404
C115  C     C_3   0.627272 0.183116 0.535626 -0.279540
C116  C     C_3   0.356126 0.235599 0.462983 -0.268967
C117  C     C_R   0.257410 0.618144 0.566446 0.019981
C118  C     C_R   0.758658 0.573249 0.420728 0.019886
C119  C     C_R   0.755352 0.113583 0.567502 0.022150
C120  C     C_R   0.259022 0.075060 0.420987 0.021512
H45   H     H_    0.359270 0.527771 0.558589 0.132810
H46   H     H_    0.662328 0.466864 0.426274 0.123619
H47   H     H_    0.852825 0.011153 0.560657 0.119424
H48   H     H_    0.166110 0.961005 0.425068 0.119378
H49   H     H_    0.353554 0.513321 0.428055 0.123589
H50   H     H_    0.666526 0.452806 0.556885 0.131772
H51   H     H_    0.850314 0.003620 0.429935 0.117693
H52   H     H_    0.169359 0.946574 0.556089 0.128207
H53   H     H_    0.099224 0.592552 0.436070 0.175884
H54   H     H_    0.913433 0.707394 0.565379 0.136999
H55   H     H_    0.599177 0.092570 0.436264 0.170294
H56   H     H_    0.411370 0.213852 0.566307 0.138841
H57   H     H_    0.100885 0.762133 0.431345 0.124549
H58   H     H_    0.826548 0.789068 0.568353 0.137977
H59   H     H_    0.601495 0.262351 0.430819 0.127217
H60   H     H_    0.323763 0.293846 0.569804 0.139742
H61   H     H_    0.107434 0.768387 0.558265 0.134028
H62   H     H_    0.825756 0.805970 0.443267 0.171937
H63   H     H_    0.607533 0.269940 0.557761 0.136967
H64   H     H_    0.322255 0.311902 0.444444 0.171591
H65   H     H_    0.108276 0.598476 0.561707 0.143421
H66   H     H_    0.912128 0.722665 0.438594 0.128059
H67   H     H_    0.606476 0.099999 0.561601 0.136866
H68   H     H_    0.409757 0.231946 0.439652 0.127247
N1    N     N_R   0.406936 0.411370 0.928122 0.100518
O53   O     O_R   0.458241 0.478362 0.953261 -0.326194
O54   O     O_R   0.418844 0.339062 0.874864 -0.344282
N2    N     N_R   0.589417 0.410022 0.065003 0.098046
O55   O     O_R   0.561827 0.507729 0.091676 -0.314456
O56   O     O_R   0.551365 0.311729 0.060634 -0.348918
N3    N     N_R   0.909276 0.908044 0.933270 0.095934
O57   O     O_R   0.938226 0.007535 0.910713 -0.325331
O58   O     O_R   0.945576 0.807711 0.932394 -0.333361
N4    N     N_R   0.085064 0.919767 0.062495 0.086702
O59   O     O_R   0.058899 0.010518 0.097402 -0.317584
O60   O     O_R   0.047535 0.821517 0.054704 -0.336226

loop_
_geom_bond_atom_site_label_1
_geom_bond_atom_site_label_2
_geom_bond_distance
_ccdc_geom_bond_type
C18   O42   1.264353 A    
C103  C107  1.394498 A    
O4    C12   1.270503 A    
C99   C115  1.489508 S    
O39   C19   1.274699 A    
O20   Cr12  2.075967 S    
C114  H62   1.105728 S    
O29   C13   1.268402 A    
O37   Cr5   1.955876 S    
C39   C40   1.544907 S    
C38   H10   1.109063 S    
C28   C32   1.546460 S    
C41   C57   1.405464 A    
C43   C47   1.400813 A    
C78   C86   1.489752 S    
Cr7   O51   1.984042 S    
C50   C70   1.401282 A    
O1    C9    1.266280 A    
C106  H50   1.080052 S    
C85   C86   1.509943 S    
C13   C92   1.434141 S    
O7    C3    1.300090 A    
C112  H60   1.112281 S    
O5    C1    1.279244 A    
C103  H47   1.079279 S    
C32   H4    1.111108 S    
C68   H32   1.111729 S    
C91   C107  1.402666 A    
O24   C12   1.271389 A    
C79   C87   1.491011 S    
C98   C114  1.506371 S    
C39   H11   1.109065 S    
O25   C21   1.262385 A    
C31   C40   1.541040 S    
O26   Cr2   2.081338 S    
N1    O53   1.299403 A    
C104  H48   1.080101 S    
C31   H3    1.110125 S    
C54   C70   1.403260 A    
C55   C71   1.403227 A    
O47   C23   1.269074 A    
C83   H35   1.078803 S    
C30   H2    1.110198 S    
C81   H33   1.080865 S    
C111  H55   1.106346 S    
C53   H13   1.082947 S    
O21   C9    1.273747 A    
O8    Cr4   1.961941 S    
O23   Cr11  1.952643 S    
C9    C69   1.452465 S    
O30   C14   1.276508 A    
C45   C61   1.488864 S    
O32   Cr4   1.955292 S    
C1    O9    1.261922 A    
O44   Cr12  2.072096 S    
O25   Cr1   2.081392 S    
C2    C43   1.458618 S    
C84   H36   1.082712 S    
C64   H22   1.104830 S    
C3    O11   1.287548 A    
C116  H64   1.107707 S    
O11   Cr7   2.077400 S    
C4    O12   1.264096 A    
C49   C65   1.495626 S    
N2    O56   1.301033 A    
C25   C34   1.527816 S    
C54   H14   1.082326 S    
C87   H43   1.110137 S    
C15   C90   1.434546 S    
C110  C114  1.505871 S    
C86   H42   1.112154 S    
O6    Cr2   1.961941 S    
C7    O19   1.264392 A    
O19   Cr11  2.076156 S    
O3    Cr3   2.076101 S    
C68   N4    1.461791 S    
Cr4   O52   1.975950 S    
C53   C69   1.397312 A    
C42   C58   1.398062 A    
C56   C60   1.379933 A    
C29   C38   1.543691 S    
C48   C52   1.402043 A    
C29   C33   1.541189 S    
O2    C10   1.268673 A    
O10   Cr6   2.077847 S    
O42   Cr10  2.072096 S    
C77   C85   1.500887 S    
O18   Cr10  2.075967 S    
C103  C119  1.403663 A    
Cr8   O52   1.983355 S    
C91   C95   1.401644 A    
C102  C118  1.402950 A    
C112  C116  1.507649 S    
C54   C58   1.386751 A    
C35   C39   1.531924 S    
C105  H49   1.082387 S    
O34   Cr6   2.074107 S    
C33   C37   1.529948 S    
C43   C59   1.398213 A    
C12   C72   1.455542 S    
C20   O44   1.264526 A    
C26   C30   1.546521 S    
C66   N2    1.461935 S    
O35   Cr7   2.073791 S    
C109  C113  1.507280 S    
C19   C76   1.452497 S    
O24   Cr12  1.952311 S    
C32   C39   1.544047 S    
O9    Cr5   2.077400 S    
O30   Cr2   1.955292 S    
O22   C10   1.275361 A    
C74   C81   1.409974 A    
C76   C80   1.395796 A    
O48   Cr12  1.955328 S    
C104  C108  1.396067 A    
C6    C34   1.459809 S    
C18   C73   1.455491 S    
C67   N3    1.461969 S    
C46   C62   1.480150 S    
C62   H26   1.112177 S    
C2    O10   1.287982 A    
C59   H19   1.082410 S    
C27   C28   1.546872 S    
N1    O54   1.300446 A    
C61   H23   1.104853 S    
C98   C118  1.401957 A    
C52   C72   1.404484 A    
C51   C67   1.504217 S    
C115  H63   1.109417 S    
O27   C23   1.261112 A    
C77   C78   1.367889 A    
C111  C115  1.506261 S    
C50   C66   1.506102 S    
C32   C36   1.540794 S    
C101  C105  1.396358 A    
C36   C40   1.530087 S    
C8    O20   1.263011 A    
O48   C24   1.277940 A    
C44   C60   1.405506 A    
C56   C72   1.398064 A    
O41   Cr9   2.072357 S    
C46   C50   1.400817 A    
C88   H44   1.110241 S    
O15   C7    1.274634 A    
C87   C88   1.511429 S    
C42   C46   1.400004 A    
C45   C49   1.403473 A    
C82   H34   1.081431 S    
C15   O35   1.262657 A    
C92   C96   1.389061 A    
C66   H30   1.113211 S    
O12   Cr8   2.077847 S    
O39   Cr7   1.955876 S    
C86   H40   1.110519 S    
C28   C35   1.527769 S    
C47   C51   1.400681 A    
C79   C80   1.372907 A    
O3    C11   1.267411 A    
O8    C4    1.277490 A    
C7    C35   1.460557 S    
N2    O55   1.299484 A    
C21   C117  1.434762 S    
O13   Cr5   1.954354 S    
C13   O33   1.262222 A    
C102  H46   1.082071 S    
C116  H68   1.111904 S    
C107  H51   1.080767 S    
C63   C67   1.509069 S    
O16   Cr8   1.954654 S    
C101  H45   1.081411 S    
O47   Cr11  1.955570 S    
Cr2   O50   1.975950 S    
C97   C117  1.389059 A    
C52   C68   1.505896 S    
Cr1   O49   1.975936 S    
C31   C35   1.540155 S    
C8    C36   1.458009 S    
C90   C94   1.389246 A    
C87   H37   1.103144 S    
C76   C83   1.412024 A    
Cr3   O51   1.975936 S    
O26   C22   1.256369 A    
C22   C118  1.438703 S    
O21   Cr9   1.952643 S    
O27   Cr3   2.081392 S    
C61   C65   1.511730 S    
C94   C98   1.362419 A    
C56   H16   1.082713 S    
C47   C63   1.481571 S    
C53   C57   1.379188 A    
C75   C84   1.401137 A    
C100  C116  1.506626 S    
C110  H54   1.109629 S    
C41   C45   1.405021 A    
N3    O57   1.298973 A    
C90   C106  1.406102 A    
C114  H66   1.111816 S    
C73   C82   1.406836 A    
C40   H12   1.110259 S    
C96   C112  1.488747 S    
C85   H41   1.111825 S    
C96   C100  1.360212 A    
N4    O60   1.300195 A    
O31   Cr3   1.955456 S    
O14   Cr6   1.954654 S    
C17   C74   1.451564 S    
O38   C18   1.283094 A    
C49   C69   1.397682 A    
C115  H67   1.112137 S    
C19   O43   1.270860 A    
C80   C88   1.497986 S    
O15   Cr7   1.954354 S    
C5    O17   1.263486 A    
C30   C34   1.540103 S    
C88   H38   1.103500 S    
O37   C17   1.275267 A    
O22   Cr10  1.952311 S    
O28   C24   1.253839 A    
C25   H5    1.103312 S    
O14   C6    1.273190 A    
C20   C75   1.450462 S    
C23   C119  1.434075 S    
C27   C36   1.524891 S    
C48   C64   1.483619 S    
O5    Cr1   1.961909 S    
C64   C68   1.508566 S    
C26   C33   1.525027 S    
C27   H7    1.103559 S    
N3    O58   1.300150 A    
O17   Cr9   2.076156 S    
O2    Cr2   2.075843 S    
Cr11  O51   1.983619 S    
O6    C2    1.299750 A    
O7    Cr3   1.961909 S    
C17   O41   1.267752 A    
N4    O59   1.297440 A    
C74   C78   1.390771 A    
C37   H9    1.109985 S    
C64   H28   1.112216 S    
C14   O34   1.256787 A    
C30   C37   1.540530 S    
C55   C59   1.386451 A    
O40   Cr8   1.956281 S    
C89   C93   1.402222 A    
C95   C111  1.506850 S    
C16   C89   1.438383 S    
C57   H17   1.081523 S    
C10   C70   1.459623 S    
O1    Cr1   2.076101 S    
C65   H29   1.113322 S    
C94   C110  1.488785 S    
C26   H6    1.103316 S    
C63   H27   1.112237 S    
C99   C119  1.390472 A    
C93   C109  1.507774 S    
C101  C117  1.407402 A    
O32   C16   1.277132 A    
C102  C106  1.395905 A    
C37   C38   1.546035 S    
C100  C120  1.401690 A    
O46   Cr10  1.955328 S    
Cr10  O50   1.984294 S    
C85   H39   1.107144 S    
C73   C77   1.400939 A    
Cr6   O50   1.983355 S    
C14   C91   1.437464 S    
C58   H18   1.082168 S    
Cr12  O52   1.984294 S    
C95   C99   1.362888 A    
C67   H31   1.113341 S    
Cr5   O49   1.984042 S    
O45   C21   1.266696 A    
C113  H61   1.109322 S    
O23   C11   1.275869 A    
C97   C113  1.488934 S    
C92   C108  1.406646 A    
C108  H52   1.078655 S    
O33   Cr5   2.073791 S    
C55   H15   1.082363 S    
C62   C66   1.508707 S    
C11   C71   1.459092 S    
C110  H58   1.111859 S    
C60   H20   1.082929 S    
C25   C29   1.546037 S    
O16   C8    1.272932 A    
C109  H57   1.111521 S    
O4    Cr4   2.075843 S    
C109  H53   1.105873 S    
C28   H8    1.103749 S    
O29   Cr1   1.955456 S    
C83   C84   1.401141 A    
C104  C120  1.400006 A    
C62   H24   1.104304 S    
C51   C71   1.399781 A    
C16   O36   1.256682 A    
C89   C105  1.404006 A    
O40   C20   1.280427 A    
O46   C22   1.276692 A    
C63   H21   1.104535 S    
C27   C31   1.546644 S    
C34   C38   1.529801 S    
C81   C82   1.405775 A    
C6    O18   1.265496 A    
O28   Cr4   2.081338 S    
O43   Cr11  2.072357 S    
C1    C44   1.459168 S    
C93   C97   1.361574 A    
O45   Cr9   1.955570 S    
C112  H56   1.110549 S    
C75   C79   1.397277 A    
C65   N1    1.462259 S    
C4    C41   1.461103 S    
C111  H59   1.111505 S    
C25   C26   1.546969 S    
O36   Cr8   2.074107 S    
C3    C42   1.458564 S    
O31   C15   1.268073 A    
C113  H65   1.111534 S    
Cr9   O49   1.983619 S    
C5    C33   1.458700 S    
C44   C48   1.400578 A    
C61   H25   1.111591 S    
C29   H1    1.111118 S    
O38   Cr6   1.956281 S    
C24   C120  1.436180 S    
O13   C5    1.272643 A    
