data_mof_unit_16416.cif
_audit_creation_date              2012-12-11T16:31:32-0500
_audit_creation_method            fapswitch 2.2
_symmetry_space_group_name_H-M    P1
_symmetry_Int_Tables_number       1
_space_group_crystal_system       triclinic
_cell_length_a                    6.965595
_cell_length_b                    18.311314
_cell_length_c                    20.183546
_cell_angle_alpha                 68.392567
_cell_angle_beta                  90.735359
_cell_angle_gamma                 90.454307
_cell_volume                      2393.27772144

loop_
_atom_site_label
_atom_site_type_symbol
_atom_type_description
_atom_site_fract_x
_atom_site_fract_y
_atom_site_fract_z
_atom_type_partial_charge
O1    O     O_R   0.488990 0.443920 0.942160 -0.545465
O2    O     O_R   0.823840 0.406530 0.087600 -0.534372
O3    O     O_R   0.999650 0.556080 0.057840 -0.530946
C1    C     C_R   0.654356 0.381463 0.113530 0.774662
O4    O     O_R   0.818390 0.434590 0.944530 -0.536304
O5    O     O_R   0.994160 0.584350 0.913750 -0.537519
C2    C     C_R   0.648900 0.420326 0.924238 0.770660
O6    O     O_R   0.494480 0.415650 0.086250 -0.546998
O7    O     O_3   0.662600 0.549100 0.990070 -0.368806
V1    V     V_3+5 0.935320 0.490890 0.001840 1.437168
O8    O     O_R   0.324240 0.593470 0.912400 -0.538624
C3    C     C_R   0.154827 0.616212 0.884821 0.690599
O9    O     O_R   0.329690 0.565410 0.055470 -0.540004
C4    C     C_R   0.162290 0.579097 0.076384 0.713414
V2    V     V_3+5 0.435990 0.509110 0.998160 1.419132
O10   O     O_3   0.158840 0.450900 0.009930 -0.379734
C5    C     C_3   0.954714 0.693225 0.251508 0.671775
C6    C     C_3   0.318297 0.690569 0.261075 -0.355832
C7    C     C_3   0.293693 0.730044 0.317404 0.350573
H1    H     H_    0.454066 0.711248 0.232008 0.203646
H2    H     H_    0.333615 0.625815 0.287813 0.184112
H3    H     H_    0.434444 0.757178 0.321108 0.089918
C8    C     C_1   0.113819 0.881538 0.373399 -0.205023
C9    C     C_3   0.146575 0.710520 0.207098 -0.017978
C10   C     C_3   0.936749 0.756395 0.287885 0.112743
C11   C     C_3   0.134817 0.795845 0.289463 0.014878
C12   C     C_3   0.180321 0.849121 0.210881 0.127505
C13   C     C_3   0.165340 0.800433 0.161181 0.127672
C14   C     C_1   0.125186 0.845176 0.334004 -0.006820
C15   C     C_1   0.153865 0.662565 0.160792 0.061885
C16   C     C_1   0.157390 0.624502 0.122375 -0.189616
H4    H     H_    0.035114 0.820713 0.126861 0.036450
H5    H     H_    0.071542 0.897212 0.192464 0.052783
H6    H     H_    0.834626 0.803130 0.255574 0.038105
H7    H     H_    0.921874 0.528544 0.696561 0.124693
C17   C     C_R   0.263258 0.773585 0.873703 -0.136789
C18   C     C_R   0.316745 0.848362 0.870279 -0.122873
C19   C     C_R   0.306513 0.911810 0.805917 -0.117019
C20   C     C_R   0.242316 0.901006 0.744501 -0.138674
C21   C     C_R   0.188606 0.825619 0.746035 0.070250
C22   C     C_R   0.199639 0.760487 0.812071 0.068992
C23   C     C_R   0.120879 0.814892 0.683556 -0.164131
C24   C     C_R   0.064516 0.738779 0.687261 0.005960
C25   C     C_R   0.076532 0.673639 0.753216 0.067982
C26   C     C_R   0.143728 0.684403 0.815771 -0.168072
C27   C     C_R   0.999707 0.725765 0.625704 -0.165708
C28   C     C_R   0.947961 0.650917 0.628386 0.378478
C29   C     C_R   0.960482 0.587169 0.693353 -0.202951
C30   C     C_R   0.024213 0.598233 0.754700 -0.185344
H8    H     H_    0.271053 0.726516 0.925334 0.103286
H9    H     H_    0.365236 0.857178 0.917976 0.115327
H10   H     H_    0.347186 0.969884 0.803616 0.112548
H11   H     H_    0.233940 0.952631 0.696144 0.112803
H12   H     H_    0.990208 0.773318 0.574391 0.116015
H13   H     H_    0.033514 0.546665 0.803092 0.127411
H14   H     H_    0.455385 0.473418 0.298740 0.111434
C31   C     C_R   0.681118 0.215353 0.123545 0.408469
C32   C     C_R   0.739194 0.140379 0.128964 -0.191421
C33   C     C_R   0.764311 0.081158 0.195177 -0.189824
C34   C     C_R   0.725570 0.095363 0.256734 -0.142968
C35   C     C_R   0.674360 0.171303 0.253485 0.023373
C36   C     C_R   0.668285 0.234277 0.185776 -0.030505
C37   C     C_R   0.622104 0.184291 0.315977 -0.161903
C38   C     C_R   0.578430 0.261420 0.311454 0.075498
C39   C     C_R   0.590207 0.325589 0.244860 0.063878
C40   C     C_R   0.639606 0.312650 0.182152 -0.193234
C41   C     C_R   0.527002 0.276608 0.372698 -0.137530
C42   C     C_R   0.483687 0.352512 0.367933 -0.125599
C43   C     C_R   0.492297 0.414744 0.302868 -0.131887
C44   C     C_R   0.548551 0.402087 0.242317 -0.147043
H15   H     H_    0.754940 0.126987 0.081347 0.127148
H16   H     H_    0.804606 0.022809 0.198769 0.139585
H17   H     H_    0.735502 0.045859 0.306662 0.125603
H18   H     H_    0.519657 0.230262 0.424752 0.099197
H19   H     H_    0.444118 0.363301 0.414921 0.132856
H20   H     H_    0.556532 0.453154 0.193559 0.110276
O11   O     O_R   0.770890 0.084490 0.414040 -0.537944
O12   O     O_R   0.445980 0.065450 0.555510 -0.543922
O13   O     O_R   0.270670 0.915620 0.586180 -0.538020
C45   C     C_R   0.614332 0.077700 0.577610 0.717534
O14   O     O_R   0.441480 0.093500 0.412450 -0.537669
O15   O     O_R   0.266140 0.943870 0.442100 -0.532407
C46   C     C_R   0.610356 0.116807 0.385367 0.694352
O16   O     O_R   0.775410 0.056240 0.558120 -0.530512
O17   O     O_3   0.602660 0.950990 0.510100 -0.368192
V3    V     V_3+5 0.329740 0.009100 0.498130 1.422532
O18   O     O_R   0.936120 0.934420 0.444240 -0.543885
C47   C     C_R   0.104108 0.923070 0.421929 0.721370
O19   O     O_R   0.940610 0.906370 0.587310 -0.537503
C48   C     C_R   0.109988 0.883239 0.614655 0.687997
V4    V     V_3+5 0.829110 0.990690 0.501470 1.424880
O20   O     O_3   0.106080 0.049010 0.489880 -0.367020
C49   C     C_3   0.816758 0.232388 0.719055 0.240018
C50   C     C_3   0.461255 0.268985 0.687327 0.609827
C51   C     C_3   0.491659 0.326270 0.729724 0.586088
H21   H     H_    0.892632 0.336418 0.743914 0.183337
H22   H     H_    0.853900 0.274504 0.664971 0.154763
C52   C     C_1   0.637985 0.372216 0.880998 -0.160276
C53   C     C_3   0.611442 0.199844 0.715341 0.046663
C54   C     C_3   0.826781 0.277552 0.771345 -0.408410
C55   C     C_3   0.622777 0.285309 0.797650 0.058964
C56   C     C_3   0.551218 0.199676 0.839879 -0.421531
C57   C     C_3   0.553603 0.148444 0.792994 -0.410763
C58   C     C_1   0.630568 0.332382 0.844347 -0.018473
C59   C     C_1   0.615005 0.153726 0.667645 0.026676
C60   C     C_1   0.618836 0.119006 0.626666 -0.177716
H23   H     H_    0.653271 0.098244 0.816523 0.167731
H24   H     H_    0.410210 0.120938 0.794139 0.186816
H25   H     H_    0.645751 0.171763 0.887257 0.168308
H26   H     H_    0.921699 0.247148 0.818036 0.162768
H27   H     H_    0.404300 0.199690 0.860450 0.167811
O21   O     O_3   0.866450 0.723250 0.357333 -0.633462
H28   H     H_    0.794124 0.764628 0.367108 0.281695
O22   O     O_3   0.796580 0.697808 0.205444 -0.685137
H29   H     H_    0.778324 0.752984 0.172873 0.258322
O23   O     O_3   0.364095 0.882784 0.207846 -0.622320
H30   H     H_    0.366986 0.930933 0.164018 0.314828
O24   O     O_3   0.887048 0.642015 0.566474 -0.664847
H31   H     H_    0.855746 0.585915 0.577156 0.287770
O25   O     O_3   0.973562 0.615648 0.304853 -0.535513
C61   C     C_3   0.805224 0.568209 0.323600 0.177887
H32   H     H_    0.852996 0.506295 0.339541 0.127034
H33   H     H_    0.700902 0.577058 0.279388 0.128336
C62   C     C_3   0.708567 0.577415 0.387663 -0.275139
H34   H     H_    0.820335 0.580958 0.426248 0.256989
H35   H     H_    0.621755 0.631571 0.368469 0.226790
C63   C     C_3   0.573657 0.510957 0.427348 -0.887715
H36   H     H_    0.447544 0.510001 0.393755 0.242626
H37   H     H_    0.521203 0.522387 0.474260 0.247373
H38   H     H_    0.649614 0.453778 0.445777 0.244320
O26   O     O_3   0.618399 0.266605 0.057803 -0.596248
C64   C     C_3   0.416408 0.258223 0.052362 0.073938
H39   H     H_    0.358880 0.315281 0.016237 0.177918
H40   H     H_    0.339918 0.245110 0.103801 0.104632
C65   C     C_3   0.367391 0.195870 0.020827 -0.348588
H41   H     H_    0.470659 0.200315 0.978224 0.208268
H42   H     H_    0.380112 0.136431 0.062991 0.189412
C66   C     C_3   0.163986 0.206227 0.989691 -0.824682
H43   H     H_    0.058677 0.205098 0.030850 0.244671
H44   H     H_    0.129688 0.157845 0.970710 0.221051
H45   H     H_    0.151752 0.262960 0.943807 0.233214
O27   O     O_3   0.276065 0.236020 0.700661 -0.652735
H46   H     H_    0.264413 0.197867 0.676372 0.306371
O28   O     O_3   0.484231 0.309561 0.612423 -0.584795
C67   C     C_3   0.324234 0.358007 0.579865 0.161208
H47   H     H_    0.381788 0.412778 0.540800 0.146954
H48   H     H_    0.237691 0.376117 0.617173 0.169209
C68   C     C_3   0.193044 0.318881 0.540682 -0.359736
H49   H     H_    0.280671 0.288906 0.512876 0.201327
H50   H     H_    0.101171 0.273726 0.579116 0.212776
C69   C     C_3   0.060902 0.378749 0.487148 -0.823894
H51   H     H_    0.970256 0.408045 0.514850 0.243776
H52   H     H_    0.965636 0.348514 0.460736 0.238660
H53   H     H_    0.146066 0.423909 0.445610 0.238831
O29   O     O_3   0.584056 0.395090 0.684376 -0.657838
H54   H     H_    0.580412 0.434431 0.707509 0.295779
O30   O     O_3   0.313060 0.348777 0.748775 -0.655972
H55   H     H_    0.254208 0.302904 0.786146 0.290170
O31   O     O_3   0.950659 0.170617 0.737708 -0.632994
H56   H     H_    0.950159 0.141939 0.790019 0.300105
O32   O     O_3   0.248916 0.668327 0.383333 -0.541895
C70   C     C_3   0.256448 0.687610 0.445418 0.151648
H57   H     H_    0.231112 0.631745 0.491090 0.161318
H58   H     H_    0.134938 0.725244 0.447127 0.173146
C71   C     C_3   0.449564 0.720850 0.459771 -0.439330
H59   H     H_    0.567382 0.680686 0.459362 0.236592
H60   H     H_    0.476747 0.779939 0.418939 0.189996
C72   C     C_3   0.450199 0.729743 0.532074 -0.707134
H61   H     H_    0.335921 0.771049 0.533459 0.209629
H62   H     H_    0.590652 0.753895 0.541017 0.248591
H63   H     H_    0.427120 0.671944 0.575619 0.229796
O33   O     O_3   0.327103 0.814945 0.116836 -0.616310
H64   H     H_    0.287220 0.806654 0.072710 0.287901

loop_
_geom_bond_atom_site_label_1
_geom_bond_atom_site_label_2
_ccdc_geom_bond_type
C25   C30   A    
C65   C66   S    
C53   C57   S    
O18   C47   A    
C54   H26   S    
C71   H59   S    
C2    C52   S    
O18   V4    S    
C6    H2    S    
C68   C69   S    
C4    C16   S    
C1    O6    A    
C67   H47   S    
O17   V4    S    
C31   C36   A    
C56   C57   S    
C20   H11   S    
O17   V3    S    
C12   H5    S    
C42   H19   S    
C11   C12   S    
C55   C56   S    
C6    C9    S    
C8    C14   T    
C17   C18   A    
C68   H50   S    
O5    C3    A    
C15   C16   T    
C18   H9    S    
O12   C45   A    
C32   H15   S    
C19   H10   S    
O11   C46   A    
V2    O10   S    
C45   C60   S    
C34   H17   S    
O23   H30   S    
C49   O31   S    
C6    C7    S    
C7    O32   S    
C69   H53   S    
C35   C37   A    
C7    C11   S    
O24   H31   S    
O13   C48   A    
C10   O21   S    
O14   C46   A    
O8    V2    S    
C13   O33   S    
C72   H63   S    
O11   V4    S    
C28   C29   A    
C42   C43   A    
C61   C62   S    
C69   H51   S    
C57   H24   S    
O1    V2    S    
O16   V4    S    
O19   V4    S    
O7    V1    S    
C49   C53   S    
C51   O29   S    
O14   V3    S    
C5    O25   S    
C45   O16   A    
C10   H6    S    
C12   O23   S    
O12   V3    S    
C72   H62   S    
C33   C34   A    
C71   H60   S    
O1    C2    A    
O9    C4    A    
O30   H55   S    
C56   H27   S    
C35   C36   A    
H7    C29   S    
O21   H28   S    
C67   H48   S    
C5    O22   S    
O32   C70   S    
C70   H58   S    
C28   O24   S    
C53   C59   S    
C5    C9    S    
C36   C40   A    
C41   C42   A    
C50   O27   S    
C38   C41   A    
C65   H41   S    
C7    H3    S    
C68   H49   S    
C20   C21   A    
O4    C2    A    
C3    C26   S    
C10   C11   S    
O15   V3    S    
C37   C38   A    
C37   C46   S    
C34   C35   A    
C23   C48   S    
O2    C1    A    
C24   C25   A    
C63   H37   S    
C18   C19   A    
C70   C71   S    
O31   H56   S    
C13   H4    S    
C27   H12   S    
C50   C51   S    
C41   H18   S    
C49   C54   S    
C61   H32   S    
O3    C4    A    
C66   H44   S    
C62   C63   S    
C72   H61   S    
H14   C43   S    
O6    V2    S    
C8    C47   S    
O9    V2    S    
C44   H20   S    
C23   C24   A    
O26   C64   S    
O2    V1    S    
C49   H22   S    
V4    O20   S    
C67   C68   S    
C17   H8    S    
O25   C61   S    
C62   H35   S    
C70   H57   S    
C65   H42   S    
C27   C28   A    
C29   C30   A    
C51   O30   S    
C31   O26   S    
C25   C26   A    
C9    C13   S    
O28   C67   S    
C66   H45   S    
O5    V1    S    
C57   H23   S    
O8    C3    A    
O22   H29   S    
C63   H36   S    
C71   C72   S    
C59   C60   T    
C33   H16   S    
C50   O28   S    
C38   C39   A    
C32   C33   A    
C63   H38   S    
C5    C10   S    
O4    V1    S    
O3    V1    S    
C30   H13   S    
C1    C40   S    
C31   C32   A    
C19   C20   A    
V1    O10   S    
C50   C53   S    
C64   C65   S    
O15   C47   A    
H21   C54   S    
C21   C23   A    
C54   C55   S    
C64   H39   S    
C6    H1    S    
C69   H52   S    
O7    V2    S    
C43   C44   A    
C24   C27   A    
C9    C15   S    
C61   H33   S    
C66   H43   S    
V3    O20   S    
O33   H64   S    
C51   C55   S    
C11   C14   S    
C64   H40   S    
C39   C40   A    
C17   C22   A    
O29   H54   S    
C22   C26   A    
O27   H46   S    
C56   H25   S    
C21   C22   A    
C55   C58   S    
O19   C48   A    
C52   C58   T    
O13   V3    S    
C39   C44   A    
C62   H34   S    
C12   C13   S    
