data_mof_unit_61235.cif
_audit_creation_date              2012-12-10T18:11:23-0500
_audit_creation_method            fapswitch 2.2
_symmetry_space_group_name_H-M    P1
_symmetry_Int_Tables_number       1
_space_group_crystal_system       triclinic
_cell_length_a                    18.354619
_cell_length_b                    18.354618
_cell_length_c                    34.396979
_cell_angle_alpha                 90.000016
_cell_angle_beta                  90.000016
_cell_angle_gamma                 90.0
_cell_volume                      11588.0677469

loop_
_atom_site_label
_atom_site_type_symbol
_atom_type_description
_atom_site_fract_x
_atom_site_fract_y
_atom_site_fract_z
_atom_type_partial_charge
Br1   Br    Br    0.427853 0.858380 0.108232 -0.451411
Br2   Br    Br    0.072111 0.358361 0.391767 -0.451414
Br3   Br    Br    0.358380 0.927852 0.608232 -0.451410
Br4   Br    Br    0.358371 0.072129 0.391767 -0.451412
Br5   Br    Br    0.072189 0.641602 0.608231 -0.451406
Br6   Br    Br    0.927889 0.641638 0.391767 -0.451414
Br7   Br    Br    0.641620 0.072147 0.608232 -0.451410
Br8   Br    Br    0.641629 0.927871 0.391767 -0.451412
Br9   Br    Br    0.572147 0.858380 0.891768 -0.451410
Br10  Br    Br    0.858385 0.427841 0.108232 -0.451410
Br11  Br    Br    0.858370 0.572127 0.891767 -0.451412
Br12  Br    Br    0.572147 0.141620 0.108232 -0.451411
Br13  Br    Br    0.427853 0.141620 0.891768 -0.451410
Br14  Br    Br    0.141615 0.572159 0.108232 -0.451410
Br15  Br    Br    0.141630 0.427873 0.891767 -0.451412
Br16  Br    Br    0.927811 0.358398 0.608231 -0.451406
C1    C     C_R   0.469988 0.941151 0.041612 -0.082565
C2    C     C_R   0.029997 0.441143 0.458388 -0.082564
C3    C     C_R   0.696199 0.803617 0.750079 0.045117
C4    C     C_R   0.803617 0.303801 0.249921 0.045117
C5    C     C_R   0.196199 0.696383 0.749921 0.045117
C6    C     C_R   0.696383 0.803801 0.250079 0.045118
C7    C     C_R   0.303801 0.196383 0.750079 0.045117
C8    C     C_R   0.196383 0.303801 0.750079 0.045116
C9    C     C_R   0.803801 0.696383 0.250079 0.045118
C10   C     C_R   0.303617 0.803801 0.749921 0.045116
C11   C     C_R   0.696199 0.196383 0.249921 0.045117
C12   C     C_R   0.803617 0.696199 0.750079 0.045116
C13   C     C_R   0.441151 0.969987 0.541612 -0.082565
C14   C     C_R   0.196199 0.303617 0.250079 0.045118
C15   C     C_R   0.696383 0.196199 0.749921 0.045116
C16   C     C_R   0.303801 0.803617 0.249921 0.045117
C17   C     C_R   0.500000 0.000000 0.102550 0.061608
C18   C     C_R   0.500000 1.000000 0.897450 0.061608
C19   C     C_R   0.000000 0.500000 0.102550 0.061607
C20   C     C_R   0.000000 0.500000 0.897450 0.061611
C21   C     C_R   1.000000 0.500000 0.602550 0.061601
C22   C     C_R   0.000000 0.500000 0.397450 0.061612
C23   C     C_R   0.500000 1.000000 0.602550 0.061608
C24   C     C_R   0.441147 0.030005 0.458388 -0.082564
C25   C     C_R   0.500000 0.000000 0.397450 0.061611
C26   C     C_R   0.030031 0.558841 0.541611 -0.082566
C27   C     C_R   0.970003 0.558857 0.458388 -0.082564
C28   C     C_R   0.558849 0.030013 0.541612 -0.082565
C29   C     C_R   0.558853 0.969995 0.458388 -0.082564
C30   C     C_R   0.469234 0.941100 0.082108 0.130141
C31   C     C_R   0.530766 0.941100 0.917891 0.130140
C32   C     C_R   0.941102 0.469229 0.082108 0.130141
C33   C     C_R   0.530012 0.941151 0.958388 -0.082565
C34   C     C_R   0.941095 0.530757 0.917891 0.130139
C35   C     C_R   0.530766 0.058900 0.082108 0.130140
C36   C     C_R   0.469234 0.058900 0.917891 0.130140
C37   C     C_R   0.058898 0.530771 0.082108 0.130141
C38   C     C_R   0.058905 0.469243 0.917891 0.130139
C39   C     C_R   0.969216 0.441108 0.582108 0.130144
C40   C     C_R   0.030751 0.441091 0.417891 0.130137
C41   C     C_R   0.441100 0.969233 0.582108 0.130141
C42   C     C_R   0.441096 0.030759 0.417891 0.130139
C43   C     C_R   0.030784 0.558892 0.582108 0.130144
C44   C     C_R   0.941153 0.469983 0.041612 -0.082565
C45   C     C_R   0.969249 0.558909 0.417891 0.130137
C46   C     C_R   0.558900 0.030767 0.582108 0.130141
C47   C     C_R   0.558904 0.969241 0.417891 0.130139
C48   C     C_R   0.500000 0.000000 0.021282 -0.035820
C49   C     C_R   0.500000 0.000000 0.978717 -0.035820
C50   C     C_R   0.000000 0.500000 0.021282 -0.035818
C51   C     C_R   0.000000 0.500000 0.978717 -0.035818
C52   C     C_R   0.000000 0.500000 0.521282 -0.035820
C53   C     C_R   0.000000 0.500000 0.478717 -0.035819
C54   C     C_R   0.500000 0.000000 0.521282 -0.035818
C55   C     C_R   0.941146 0.530003 0.958388 -0.082564
C56   C     C_R   0.500000 0.000000 0.478717 -0.035817
C57   C     C_R   0.500000 0.000000 0.355115 0.573862
C58   C     C_R   0.500000 0.000000 0.644885 0.573857
C59   C     C_R   0.000000 0.500000 0.355115 0.573866
C60   C     C_R   0.000000 0.500000 0.644885 0.573846
C61   C     C_R   0.000000 0.500000 0.855115 0.573863
C62   C     C_R   0.000000 0.500000 0.144885 0.573854
C63   C     C_R   0.500000 0.000000 0.855115 0.573858
C64   C     C_R   0.500000 0.000000 0.144885 0.573857
C65   C     C_R   0.359798 0.140148 0.250023 0.522866
C66   C     C_R   0.530012 0.058849 0.041612 -0.082564
C67   C     C_R   0.640148 0.859798 0.750023 0.522866
C68   C     C_R   0.859798 0.359852 0.249977 0.522868
C69   C     C_R   0.140148 0.640202 0.749977 0.522867
C70   C     C_R   0.640202 0.859852 0.250023 0.522866
C71   C     C_R   0.359852 0.140202 0.750023 0.522866
C72   C     C_R   0.140202 0.640148 0.249977 0.522868
C73   C     C_R   0.859852 0.359798 0.749977 0.522867
C74   C     C_R   0.359798 0.859852 0.749977 0.522866
C75   C     C_R   0.640148 0.140202 0.249977 0.522867
C76   C     C_R   0.859798 0.640148 0.750023 0.522864
C77   C     C_R   0.469988 0.058849 0.958388 -0.082565
C78   C     C_R   0.140148 0.359798 0.250023 0.522866
C79   C     C_R   0.640202 0.140148 0.749977 0.522866
C80   C     C_R   0.359852 0.859798 0.249977 0.522867
C81   C     C_R   0.140202 0.359852 0.750023 0.522864
C82   C     C_R   0.859852 0.640202 0.250023 0.522866
C83   C     C_R   0.244301 0.809126 0.224537 -0.108701
C84   C     C_R   0.755948 0.190628 0.775255 -0.120159
C85   C     C_R   0.190628 0.244052 0.224745 -0.120158
C86   C     C_R   0.809127 0.755699 0.775463 -0.108705
C87   C     C_R   0.755699 0.190874 0.224537 -0.108702
C88   C     C_R   0.058847 0.530017 0.041612 -0.082565
C89   C     C_R   0.244052 0.809372 0.775255 -0.120159
C90   C     C_R   0.809372 0.755948 0.224745 -0.120158
C91   C     C_R   0.190873 0.244301 0.775463 -0.108704
C92   C     C_R   0.244301 0.190873 0.775463 -0.108703
C93   C     C_R   0.755948 0.809372 0.224745 -0.120158
C94   C     C_R   0.190628 0.755948 0.775255 -0.120159
C95   C     C_R   0.809126 0.244301 0.224537 -0.108701
C96   C     C_R   0.755699 0.809127 0.775463 -0.108703
C97   C     C_R   0.244052 0.190628 0.224745 -0.120158
C98   C     C_R   0.809372 0.244052 0.775255 -0.120159
C99   C     C_R   0.058854 0.469997 0.958388 -0.082564
C100  C     C_R   0.190874 0.755699 0.224537 -0.108701
C101  C     C_R   0.744301 0.309126 0.724537 -0.108700
C102  C     C_R   0.255948 0.690628 0.275255 -0.120158
C103  C     C_R   0.690628 0.744052 0.724745 -0.120159
C104  C     C_R   0.309127 0.255699 0.275463 -0.108704
C105  C     C_R   0.255699 0.690874 0.724537 -0.108700
C106  C     C_R   0.744052 0.309372 0.275255 -0.120158
C107  C     C_R   0.309372 0.255948 0.724745 -0.120159
C108  C     C_R   0.690873 0.744301 0.275463 -0.108704
C109  C     C_R   0.744301 0.690873 0.275463 -0.108705
C110  C     C_R   0.969969 0.441159 0.541611 -0.082566
C111  C     C_R   0.255948 0.309372 0.724745 -0.120159
C112  C     C_R   0.690628 0.255948 0.275255 -0.120158
C113  C     C_R   0.309126 0.744301 0.724537 -0.108702
C114  C     C_R   0.255699 0.309127 0.275463 -0.108705
C115  C     C_R   0.744052 0.690628 0.724745 -0.120159
C116  C     C_R   0.309372 0.744052 0.275255 -0.120158
C117  C     C_R   0.690874 0.255699 0.724537 -0.108702
C118  C     C_R   0.196383 0.696199 0.249921 0.045117
C119  C     C_R   0.803801 0.303617 0.749921 0.045117
C120  C     C_R   0.303617 0.196199 0.250079 0.045118
H1    H     H_    0.446524 0.895622 0.025950 0.166514
H2    H     H_    0.053449 0.395608 0.474049 0.166515
H3    H     H_    0.395623 0.946523 0.525950 0.166513
H4    H     H_    0.395615 0.053463 0.474049 0.166512
H5    H     H_    0.053508 0.604362 0.525950 0.166514
H6    H     H_    0.946551 0.604392 0.474049 0.166515
H7    H     H_    0.604377 0.053477 0.525950 0.166513
H8    H     H_    0.604385 0.946537 0.474049 0.166512
H9    H     H_    0.238963 0.854621 0.204684 0.158022
H10   H     H_    0.761304 0.145123 0.795099 0.150468
H11   H     H_    0.145122 0.238695 0.204901 0.150469
H12   H     H_    0.553476 0.895623 0.974050 0.166514
H13   H     H_    0.854621 0.761038 0.795315 0.158019
H14   H     H_    0.761037 0.145379 0.204684 0.158022
H15   H     H_    0.238696 0.854877 0.795099 0.150468
H16   H     H_    0.854878 0.761305 0.204901 0.150469
H17   H     H_    0.145379 0.238962 0.795315 0.158019
H18   H     H_    0.238962 0.145379 0.795315 0.158021
H19   H     H_    0.761305 0.854878 0.204901 0.150469
H20   H     H_    0.145123 0.761304 0.795099 0.150468
H21   H     H_    0.854621 0.238963 0.204684 0.158023
H22   H     H_    0.761038 0.854621 0.795315 0.158021
H23   H     H_    0.895626 0.446516 0.025950 0.166513
H24   H     H_    0.238695 0.145122 0.204901 0.150468
H25   H     H_    0.854877 0.238696 0.795099 0.150468
H26   H     H_    0.145379 0.761037 0.204684 0.158023
H27   H     H_    0.738963 0.354620 0.704684 0.158026
H28   H     H_    0.261304 0.645123 0.295099 0.150468
H29   H     H_    0.645122 0.738695 0.704901 0.150469
H30   H     H_    0.354621 0.261038 0.295316 0.158018
H31   H     H_    0.261037 0.645379 0.704684 0.158026
H32   H     H_    0.738696 0.354877 0.295099 0.150468
H33   H     H_    0.354878 0.261305 0.704901 0.150469
H34   H     H_    0.895614 0.553460 0.974049 0.166513
H35   H     H_    0.645379 0.738962 0.295316 0.158018
H36   H     H_    0.738962 0.645379 0.295316 0.158017
H37   H     H_    0.261305 0.354878 0.704901 0.150469
H38   H     H_    0.645123 0.261304 0.295099 0.150468
H39   H     H_    0.354620 0.738963 0.704684 0.158023
H40   H     H_    0.261038 0.354621 0.295316 0.158017
H41   H     H_    0.738695 0.645122 0.704901 0.150469
H42   H     H_    0.354877 0.738696 0.295099 0.150468
H43   H     H_    0.645379 0.261037 0.704684 0.158023
H44   H     H_    0.553476 0.104377 0.025950 0.166514
H45   H     H_    0.446524 0.104377 0.974050 0.166514
H46   H     H_    0.104373 0.553484 0.025950 0.166513
H47   H     H_    0.104386 0.446540 0.974049 0.166513
H48   H     H_    0.946492 0.395638 0.525950 0.166514
O1    O     O_3   0.500000 0.000000 0.250000 -0.464836
O2    O     O_R   0.500000 0.939280 0.663170 -0.508267
O3    O     O_R   0.939280 0.500000 0.336830 -0.508270
O4    O     O_R   0.060720 0.500000 0.663170 -0.508264
O5    O     O_R   0.000000 0.439280 0.836830 -0.508268
O6    O     O_R   0.000000 0.560720 0.163170 -0.508266
O7    O     O_R   0.560720 0.000000 0.836830 -0.508267
O8    O     O_R   0.439280 0.000000 0.163170 -0.508267
O9    O     O_R   0.000000 0.560720 0.836830 -0.508269
O10   O     O_R   0.000000 0.439280 0.163170 -0.508266
O11   O     O_R   0.439280 0.000000 0.836830 -0.508266
O12   O     O_3   0.500000 0.000000 0.750000 -0.464836
O13   O     O_R   0.560720 0.000000 0.163170 -0.508267
O14   O     O_R   0.414510 0.146140 0.272820 -0.533170
O15   O     O_R   0.585490 0.853860 0.727180 -0.546254
O16   O     O_R   0.853860 0.414510 0.272820 -0.546254
O17   O     O_R   0.146140 0.585490 0.727180 -0.533163
O18   O     O_R   0.585490 0.853860 0.272820 -0.533170
O19   O     O_R   0.414510 0.146140 0.727180 -0.546254
O20   O     O_R   0.146140 0.585490 0.272820 -0.546254
O21   O     O_R   0.853860 0.414510 0.727180 -0.533163
O22   O     O_R   0.414510 0.853860 0.727180 -0.533168
O23   O     O_3   0.000000 0.500000 0.250000 -0.464836
O24   O     O_R   0.585490 0.146140 0.272820 -0.546254
O25   O     O_R   0.853860 0.585490 0.727180 -0.546254
O26   O     O_R   0.146140 0.414510 0.272820 -0.533173
O27   O     O_R   0.585490 0.146140 0.727180 -0.533168
O28   O     O_R   0.414510 0.853860 0.272820 -0.546254
O29   O     O_R   0.146140 0.414510 0.727180 -0.546254
O30   O     O_R   0.853860 0.585490 0.272820 -0.533172
O31   O     O_R   0.914510 0.646140 0.772820 -0.533171
O32   O     O_R   0.085490 0.353860 0.227180 -0.546253
O33   O     O_R   0.353860 0.914510 0.772820 -0.546254
O34   O     O_3   0.000000 0.500000 0.750000 -0.464836
O35   O     O_R   0.646140 0.085490 0.227180 -0.533167
O36   O     O_R   0.085490 0.353860 0.772820 -0.533171
O37   O     O_R   0.914510 0.646140 0.227180 -0.546253
O38   O     O_R   0.646140 0.085490 0.772820 -0.546254
O39   O     O_R   0.353860 0.914510 0.227180 -0.533168
O40   O     O_R   0.914510 0.353860 0.227180 -0.533166
O41   O     O_R   0.085490 0.646140 0.772820 -0.546255
O42   O     O_R   0.353860 0.085490 0.227180 -0.546254
O43   O     O_R   0.646140 0.914510 0.772820 -0.533168
O44   O     O_R   0.085490 0.646140 0.227180 -0.533166
O45   O     O_R   0.500000 0.939280 0.336830 -0.508269
O46   O     O_R   0.914510 0.353860 0.772820 -0.546255
O47   O     O_R   0.646140 0.914510 0.227180 -0.546254
O48   O     O_R   0.353860 0.085490 0.772820 -0.533168
O49   O     O_R   0.500000 0.060720 0.663170 -0.508267
O50   O     O_R   0.060720 0.500000 0.336830 -0.508270
O51   O     O_R   0.939280 0.500000 0.663170 -0.508263
O52   O     O_R   0.500000 0.060720 0.336830 -0.508269
Zn1   Zn    Zn3+2 0.413200 0.000000 0.217600 0.993785
Zn2   Zn    Zn3+2 0.086800 0.500000 0.282400 0.993784
Zn3   Zn    Zn3+2 0.500000 0.913200 0.717600 0.993784
Zn4   Zn    Zn3+2 0.500000 0.086800 0.282400 0.993784
Zn5   Zn    Zn3+2 0.086800 0.500000 0.717600 0.993785
Zn6   Zn    Zn3+2 0.913200 0.500000 0.282400 0.993784
Zn7   Zn    Zn3+2 0.500000 0.086800 0.717600 0.993784
Zn8   Zn    Zn3+2 0.500000 0.913200 0.282400 0.993784
Zn9   Zn    Zn3+2 0.586800 0.000000 0.782400 0.993784
Zn10  Zn    Zn3+2 0.000000 0.413200 0.217600 0.993786
Zn11  Zn    Zn3+2 0.000000 0.586800 0.782400 0.993782
Zn12  Zn    Zn3+2 0.586800 0.000000 0.217600 0.993785
Zn13  Zn    Zn3+2 0.413200 0.000000 0.782400 0.993784
Zn14  Zn    Zn3+2 0.000000 0.586800 0.217600 0.993786
Zn15  Zn    Zn3+2 0.000000 0.413200 0.782400 0.993782
Zn16  Zn    Zn3+2 0.913200 0.500000 0.717600 0.993785

loop_
_geom_bond_atom_site_label_1
_geom_bond_atom_site_label_2
_ccdc_geom_bond_type
O41   Zn11  S    
C88   H46   S    
C89   C94   A    
C111  H37   S    
C73   C119  S    
O16   Zn6   S    
O12   Zn9   S    
C19   C37   A    
C85   C97   A    
O34   Zn15  S    
C86   C96   A    
O47   Zn12  S    
C62   O6    A    
C44   H23   S    
C16   C116  A    
C15   C117  A    
C101  C117  A    
O24   Zn4   S    
O13   Zn12  S    
C57   O45   A    
C75   O24   A    
C115  H41   S    
C104  H30   S    
C31   C33   A    
C67   O43   A    
C3    C96   A    
C68   O16   A    
O31   Zn11  S    
C102  H28   S    
C107  H33   S    
C96   H22   S    
C76   O31   A    
C104  C114  A    
C70   O47   A    
O26   Zn2   S    
Br6   C45   S    
C100  H26   S    
C1    H1    S    
C25   C42   A    
C20   C61   S    
C1    C48   A    
O50   Zn2   S    
O38   Zn9   S    
Br1   C30   S    
O34   Zn5   S    
O1    Zn4   S    
C100  C118  A    
C7    C92   A    
C37   C88   A    
O32   Zn10  S    
C71   O48   A    
C23   C41   A    
C82   O37   A    
O11   Zn13  S    
O6    Zn14  S    
O17   Zn5   S    
C14   C85   A    
C59   O50   A    
C87   C95   A    
C62   O10   A    
C23   C58   S    
C11   C87   A    
C2    H2    S    
C109  H36   S    
C9    C109  A    
C74   O33   A    
C51   C99   A    
O23   Zn2   S    
O8    Zn1   S    
C74   O22   A    
C77   H45   S    
O49   Zn7   S    
O1    Zn1   S    
C84   H10   S    
C52   C53   S    
C57   O52   A    
C97   C120  A    
O12   Zn13  S    
C29   H8    S    
C103  C115  A    
C91   C92   A    
C44   C50   A    
C28   C54   A    
O22   Zn3   S    
C73   O46   A    
O19   Zn7   S    
C103  H29   S    
C4    C106  A    
C60   O4    A    
C69   O17   A    
C22   C45   A    
C6    C93   A    
C2    C53   A    
C49   C77   A    
C50   C51   S    
C82   O30   A    
C3    C103  A    
C27   C53   A    
O42   Zn1   S    
C7    C71   S    
C29   C56   A    
C26   C52   A    
C17   C30   A    
C64   O8    A    
C76   O25   A    
O33   Zn13  S    
O51   Zn16  S    
O3    Zn6   S    
C3    C67   S    
C19   C32   A    
C83   H9    S    
C10   C89   A    
C71   O19   A    
C87   H14   S    
C9    C90   A    
C32   C44   A    
O1    Zn8   S    
O44   Zn14  S    
C22   C59   S    
C13   H3    S    
C5    C69   S    
C99   H47   S    
C55   H34   S    
C79   O38   A    
C24   C42   A    
C65   O42   A    
Br5   C43   S    
O12   Zn7   S    
C8    C81   S    
Br15  C38   S    
C50   C88   A    
C81   O29   A    
C106  H32   S    
C1    C30   A    
O20   Zn2   S    
O39   Zn1   S    
O23   Zn6   S    
C83   C100  A    
O45   Zn8   S    
C117  H43   S    
C98   H25   S    
C7    C107  A    
O25   Zn16  S    
C28   C46   A    
C14   C114  A    
C29   C47   A    
C101  H27   S    
C17   C35   A    
O52   Zn4   S    
C33   H12   S    
O15   Zn3   S    
C104  C120  A    
C21   C39   A    
C34   C55   A    
Br7   C46   S    
C33   C49   A    
O27   Zn7   S    
C18   C63   S    
O43   Zn9   S    
C4    C95   A    
C11   C112  A    
C107  C111  A    
C39   C110  A    
C98   C119  A    
C80   O39   A    
O18   Zn8   S    
C38   C99   A    
Br14  C37   S    
C26   H5    S    
O9    Zn11  S    
C81   O36   A    
C84   C98   A    
C36   C77   A    
C12   C76   S    
C8    C91   A    
C91   H17   S    
C15   C84   A    
C72   O20   A    
C58   O49   A    
C11   C75   S    
C35   C66   A    
C48   C66   A    
C21   C43   A    
C10   C113  A    
O14   Zn4   S    
O1    Zn12  S    
C72   C118  S    
Br3   C41   S    
C105  H31   S    
O40   Zn10  S    
C16   C80   S    
C21   C60   S    
C13   C41   A    
C5    C105  A    
C78   O26   A    
C63   O11   A    
C4    C68   S    
C68   O40   A    
O7    Zn9   S    
O34   Zn16  S    
C90   H16   S    
C69   O41   A    
C25   C47   A    
Br4   C42   S    
O46   Zn15  S    
C101  C119  A    
O23   Zn10  S    
C52   C110  A    
C65   O14   A    
Br12  C35   S    
C20   C34   A    
C27   C45   A    
C65   C120  S    
C13   C54   A    
C23   C46   A    
C70   O18   A    
C85   H11   S    
C113  H39   S    
O2    Zn3   S    
C24   C56   A    
C61   O9    A    
C112  H38   S    
C94   H20   S    
C59   O3    A    
C105  C113  A    
C78   O32   A    
C27   H6    S    
C102  C118  A    
C26   C43   A    
C54   C56   S    
C17   C64   S    
Br9   C31   S    
O48   Zn13  S    
C80   O28   A    
C2    C40   A    
C79   O27   A    
C10   C74   S    
C22   C40   A    
C19   C62   S    
C18   C36   A    
C16   C83   A    
O30   Zn6   S    
O5    Zn15  S    
C12   C115  A    
C114  H40   S    
C6    C108  A    
O29   Zn5   S    
C95   H21   S    
Br16  C39   S    
C61   O5    A    
O28   Zn8   S    
Br11  C34   S    
Br2   C40   S    
O34   Zn11  S    
Br10  C32   S    
C110  H48   S    
C72   O44   A    
C108  H35   S    
Br13  C36   S    
C28   H7    S    
C15   C79   S    
C64   O13   A    
C24   H4    S    
C48   C49   S    
C73   O21   A    
C8    C111  A    
C60   O51   A    
C51   C55   A    
C6    C70   S    
C97   H24   S    
C75   O35   A    
C93   H19   S    
O23   Zn14  S    
C20   C38   A    
Br8   C47   S    
C25   C57   S    
C106  C112  A    
C102  C116  A    
C12   C86   A    
C9    C82   S    
C89   H15   S    
C92   H18   S    
O37   Zn14  S    
C14   C78   S    
O10   Zn10  S    
O36   Zn15  S    
C66   H44   S    
O21   Zn16  S    
O35   Zn12  S    
C86   H13   S    
C5    C94   A    
C63   O7    A    
C18   C31   A    
O4    Zn5   S    
C67   O15   A    
C90   C93   A    
C116  H42   S    
C108  C109  A    
C58   O2    A    
O12   Zn3   S    
