data_mof_unit_19766.cif
_audit_creation_date              2012-12-11T17:02:31-0500
_audit_creation_method            fapswitch 2.2
_symmetry_space_group_name_H-M    P1
_symmetry_Int_Tables_number       1
_space_group_crystal_system       triclinic
_cell_length_a                    8.529107
_cell_length_b                    15.04231
_cell_length_c                    16.525539
_cell_angle_alpha                 99.042578
_cell_angle_beta                  94.007932
_cell_angle_gamma                 97.623699
_cell_volume                      2066.38936347

loop_
_atom_site_label
_atom_site_type_symbol
_atom_type_description
_atom_site_fract_x
_atom_site_fract_y
_atom_site_fract_z
_atom_type_partial_charge
Ba1   Ba    Ba6+2 0.163630 0.544320 0.462600 1.630956
Ba2   Ba    Ba6+2 0.646550 0.455670 0.537340 1.661867
C1    C     C_3   0.436261 0.855623 0.186730 -0.343636
C2    C     C_R   0.883690 0.796299 0.529556 0.081503
C3    C     C_R   0.090218 0.229066 0.503193 -0.278719
C4    C     C_3   0.006806 0.788029 0.298973 0.358131
C5    C     C_R   0.170368 0.173006 0.547649 -0.000582
C6    C     C_R   0.092153 0.088704 0.560450 0.325110
C7    C     C_R   0.939230 0.051911 0.518617 -0.021048
C8    C     C_R   0.855194 0.111742 0.477273 -0.071904
C9    C     C_R   0.869329 0.956733 0.512976 0.010936
C10   C     C_R   0.706040 0.929439 0.481854 -0.028053
C11   C     C_R   0.620625 0.995507 0.456695 0.420367
C12   C     C_3   0.451873 0.791226 0.249977 0.401186
C13   C     C_R   0.704250 0.073834 0.435642 0.063824
C14   C     C_R   0.957129 0.886753 0.532868 -0.131644
C15   C     C_R   0.723821 0.773607 0.501443 -0.277090
C16   C     C_3   0.039213 0.886751 0.281219 0.245486
C17   C     C_R   0.926322 0.205289 0.477438 0.119769
C18   C     C_R   0.615626 0.543282 0.273634 -0.282977
C19   C     C_R   0.462883 0.495511 0.246230 0.079724
C20   C     C_R   0.412180 0.478047 0.161693 -0.173212
C21   C     C_R   0.514765 0.502567 0.103126 0.155663
C22   C     C_R   0.674282 0.541924 0.130478 0.288118
C23   C     C_3   0.548912 0.738446 0.676235 0.650922
C24   C     C_R   0.723413 0.562405 0.215375 0.030062
C25   C     C_R   0.380913 0.530230 0.860066 -0.043894
C26   C     C_R   0.339764 0.512716 0.773618 0.008272
C27   C     C_R   0.281151 0.485428 0.912034 0.316462
C28   C     C_3   0.777431 0.285832 0.256544 0.341218
C29   C     C_R   0.195303 0.459089 0.741515 0.146743
C30   C     C_R   0.084844 0.428731 0.793405 -0.069841
C31   C     C_R   0.129852 0.439734 0.878265 -0.212526
C32   C     C_3   0.750853 0.208525 0.181407 -0.352221
C33   C     C_3   0.049003 0.656307 0.711472 0.301848
C34   C     C_3   0.554248 0.842295 0.702385 0.225840
C35   C     C_3   0.078665 0.681426 0.804709 -0.391991
C36   C     C_3   0.243462 0.247018 0.296604 0.254179
C37   C     C_3   0.231798 0.156572 0.238744 -0.378148
C38   C     C_3   0.356279 0.698889 0.211141 -0.292023
C39   C     C_3   0.627255 0.783656 0.263488 -0.350517
C40   C     C_3   0.389615 0.872195 0.697095 -0.385385
C41   C     C_3   0.977020 0.898124 0.194430 -0.340050
C42   C     C_3   0.888243 0.075308 0.827825 -0.410043
C43   C     C_3   0.183198 0.313404 0.480931 -0.233567
C44   C     C_3   0.656706 0.088231 0.349923 -0.387500
C45   C     C_3   0.865229 0.222793 0.774082 0.781354
C46   C     C_3   0.519531 0.602893 0.895849 -0.350841
C47   C     C_3   0.669988 0.571155 0.364024 -0.230165
C48   C     C_3   0.623804 0.316353 0.272946 -0.226105
C49   C     C_3   0.888914 0.364208 0.235311 -0.256248
C50   C     C_3   0.785091 0.148933 0.818020 -0.128093
C51   C     C_3   0.355110 0.237291 0.753934 0.833139
C52   C     C_3   0.330517 0.179834 0.821666 0.299546
C53   C     C_R   0.636490 0.835868 0.472118 0.014090
H1    H     H_    0.662649 0.151277 0.192139 0.098307
H2    H     H_    0.321365 0.241700 0.350971 -0.008988
H3    H     H_    0.311638 0.867380 0.175961 0.097551
H4    H     H_    0.151246 0.156197 0.182872 0.118557
H5    H     H_    0.184497 0.100574 0.270500 0.053139
H6    H     H_    0.350477 0.144349 0.219792 0.109608
H7    H     H_    0.474714 0.826322 0.126531 0.082895
H8    H     H_    0.483164 0.717776 0.614161 -0.002333
H9    H     H_    0.624786 0.876805 0.659117 0.080642
H10   H     H_    0.510870 0.922295 0.207602 0.102619
H11   H     H_    0.987510 0.246431 0.805015 -0.137411
H12   H     H_    0.706530 0.232734 0.125038 0.084259
H13   H     H_    0.670259 0.116851 0.782877 0.155662
H14   H     H_    0.759610 0.180558 0.880280 0.055493
H15   H     H_    0.236313 0.250765 0.730505 -0.181148
H16   H     H_    0.255714 0.212343 0.866818 -0.018453
H17   H     H_    0.447652 0.176610 0.854451 0.030497
H18   H     H_    0.110938 0.774895 0.336491 0.085411
H19   H     H_    0.665888 0.705621 0.502289 0.066645
H20   H     H_    0.083337 0.899914 0.549348 0.150887
H21   H     H_    0.295115 0.440603 0.141082 0.139438
H22   H     H_    0.906769 0.781801 0.337936 0.003252
H23   H     H_    0.863806 0.181634 0.169672 0.108446
H24   H     H_    0.046053 0.414145 0.918414 0.099077
H25   H     H_    0.169649 0.908256 0.287443 0.096790
H26   H     H_    0.341079 0.652247 0.255901 0.143977
H27   H     H_    0.237671 0.707618 0.185143 0.154739
H28   H     H_    0.416034 0.666667 0.159113 0.061170
H29   H     H_    0.692458 0.850293 0.294627 0.137369
H30   H     H_    0.643374 0.732206 0.301934 0.034970
H31   H     H_    0.675853 0.761661 0.204176 0.103360
H32   H     H_    0.752061 0.727777 0.729992 0.326168
H33   H     H_    0.564102 0.846392 0.821457 0.316781
H34   H     H_    0.155655 0.631989 0.686878 -0.007001
H35   H     H_    0.337488 0.859121 0.632392 0.139448
H36   H     H_    0.309276 0.835800 0.734977 0.129752
H37   H     H_    0.400421 0.946438 0.719742 0.193238
H38   H     H_    0.024470 0.851219 0.146539 0.124305
H39   H     H_    0.845711 0.886297 0.185893 0.129573
H40   H     H_    0.016586 0.968677 0.184713 0.084716
H41   H     H_    0.959210 0.221756 0.670558 0.257777
H42   H     H_    0.823286 0.022804 0.858240 0.168819
H43   H     H_    0.917359 0.042307 0.766909 0.186672
H44   H     H_    0.998841 0.105251 0.867426 0.121035
H45   H     H_    0.944209 0.602249 0.696734 0.071526
H46   H     H_    0.471866 0.355256 0.746115 0.321125
H47   H     H_    0.258302 0.055987 0.833608 0.287503
H48   H     H_    0.415951 0.034364 0.429934 0.303366
H49   H     H_    0.305937 0.304645 0.469664 0.110024
H50   H     H_    0.139167 0.331771 0.423574 0.069376
H51   H     H_    0.182257 0.372939 0.528010 0.205842
H52   H     H_    0.080321 0.020012 0.648885 0.319069
H53   H     H_    0.577355 0.028452 0.314961 0.101153
H54   H     H_    0.586911 0.144453 0.350614 0.127460
H55   H     H_    0.762412 0.094186 0.314844 0.148873
H56   H     H_    0.189832 0.730291 0.822010 0.118539
H57   H     H_    0.506814 0.666986 0.873022 0.111958
H58   H     H_    0.525185 0.622884 0.963395 0.135852
H59   H     H_    0.633078 0.580295 0.878863 0.151579
H60   H     H_    0.740973 0.537851 0.019188 0.319181
H61   H     H_    0.725831 0.642273 0.375758 0.038871
H62   H     H_    0.581496 0.579048 0.406691 0.162359
H63   H     H_    0.747370 0.523926 0.384931 0.129437
H64   H     H_    0.080598 0.480809 0.645563 0.283683
H65   H     H_    0.027508 0.007078 0.342014 0.296309
H66   H     H_    0.548203 0.259640 0.291165 0.103920
H67   H     H_    0.089901 0.619888 0.832350 0.054004
H68   H     H_    0.642354 0.374849 0.323779 0.051124
H69   H     H_    0.571324 0.335354 0.215841 0.058353
H70   H     H_    0.836782 0.390055 0.181623 0.044930
H71   H     H_    0.907475 0.420327 0.288691 0.127140
H72   H     H_    0.001047 0.340425 0.217555 0.137768
H73   H     H_    0.977894 0.712692 0.830199 0.128927
H74   H     H_    0.121132 0.255884 0.308106 0.068655
N1    N     N_2   0.464065 0.485785 0.016934 -0.228558
N2    N     N_2   0.321790 0.493019 0.998842 -0.219755
O1    O     O_2   0.162570 0.722330 0.548140 -0.477856
O2    O     O_2   0.780984 0.465274 0.787204 -0.477907
O3    O     O_3   0.773165 0.294064 0.781271 -0.561844
O4    O     O_3   0.890730 0.608900 0.545420 -0.490852
O5    O     O_3   0.431610 0.453580 0.401830 -0.516121
O6    O     O_2   0.628250 0.544210 0.698290 -0.427331
O7    O     O_3   0.474079 0.691562 0.733445 -0.695797
O8    O     O_2   0.497843 0.176784 0.539343 -0.460338
O9    O     O_3   0.434253 0.190001 0.692144 -0.540779
O10   O     O_3   0.394120 0.666550 0.400060 -0.518414
O11   O     O_2   0.312634 0.820752 0.469219 -0.429842
O12   O     O_3   0.310453 0.315814 0.256780 -0.640857
O13   O     O_3   0.020367 0.733769 0.679318 -0.598492
O14   O     O_3   0.389457 0.829335 0.323201 -0.576338
O15   O     O_2   0.182040 0.455740 0.301680 -0.471982
O16   O     O_3   0.971530 0.620720 0.357690 -0.521196
O17   O     O_2   0.051767 0.557171 0.209161 -0.454160
O18   O     O_3   0.704169 0.719571 0.672313 -0.745026
O19   O     O_3   0.631842 0.872147 0.781834 -0.735378
O20   O     O_3   0.868645 0.185916 0.690811 -0.727148
O21   O     O_3   0.449375 0.319380 0.790205 -0.760587
O22   O     O_3   0.256691 0.091833 0.788070 -0.735625
O23   O     O_3   0.977377 0.723009 0.226147 -0.628959
O24   O     O_3   0.456875 0.979396 0.443810 -0.688461
O25   O     O_3   0.164819 0.047337 0.618249 -0.698738
O26   O     O_3   0.784988 0.562605 0.076449 -0.710308
O27   O     O_3   0.158685 0.440891 0.658412 -0.752543
O28   O     O_3   0.971882 0.944400 0.339918 -0.769617
O29   O     O_2   0.647720 0.277620 0.451840 -0.479542
O30   O     O_3   0.919570 0.391090 0.454510 -0.503362
O31   O     O_3   0.416180 0.333440 0.599870 -0.485468
O32   O     O_3   0.843281 0.250349 0.322802 -0.659840
O33   O     O_3   0.378690 0.546410 0.598100 -0.441043
O34   O     O_3   0.838770 0.379270 0.642240 -0.439653
P1    P     P_3+3 0.987060 0.708150 0.571770 1.031357
P2    P     P_3+3 0.349540 0.428350 0.313090 0.951053
P3    P     P_3+3 0.932043 0.613806 0.251321 0.982798
P4    P     P_3+3 0.823240 0.291840 0.428170 0.975183
P5    P     P_3+3 0.874678 0.390171 0.750363 1.004574
P6    P     P_3+3 0.438590 0.786171 0.414596 0.988432
P7    P     P_3+3 0.456045 0.573009 0.701927 1.001791
P8    P     P_3+3 0.377291 0.215878 0.595237 1.070618

loop_
_geom_bond_atom_site_label_1
_geom_bond_atom_site_label_2
_ccdc_geom_bond_type
C25   C46   S    
O32   P4    S    
O15   P2    D    
O14   P6    S    
C32   H1    S    
C25   C27   A    
C14   H20   S    
C36   O12   S    
C34   C40   S    
C20   H21   S    
C28   C49   S    
Ba1   O1    S    
Ba2   O31   S    
C52   O22   S    
C5    C6    A    
O31   P8    S    
C51   C52   S    
C39   H31   S    
C12   O14   S    
C24   P3    S    
H60   O26   S    
C33   C35   S    
O1    P1    D    
C40   H36   S    
C8    C13   A    
C36   C37   S    
C42   H44   S    
Ba1   P2    S    
C51   O9    S    
C27   C31   A    
O10   P6    S    
C41   H39   S    
C23   O18   S    
Ba1   Ba2   S    
C23   H8    S    
Ba1   O16   S    
C11   O24   S    
O6    P7    D    
C16   O28   S    
C42   H43   S    
C26   P7    S    
C47   H62   S    
C52   H16   S    
C29   C30   A    
Ba1   O33   S    
C6    C7    A    
C44   H53   S    
C51   O21   S    
C41   H40   S    
O29   P4    D    
C50   H14   S    
Ba1   O5    S    
C7    C8    A    
C15   C53   A    
C45   H11   S    
H52   O25   S    
C50   H13   S    
C33   O13   S    
C35   H73   S    
O30   P4    S    
C42   C50   S    
C28   C48   S    
Ba1   O30   S    
C19   C20   A    
Ba2   O6    S    
C38   H28   S    
O23   P3    S    
Ba1   O15   S    
C1    H10   S    
C48   H66   S    
C28   O32   S    
C4    C16   S    
C51   H15   S    
Ba2   O30   S    
C53   P6    S    
C43   H50   S    
C29   O27   S    
Ba2   O29   S    
C37   H6    S    
C28   C32   S    
O7    P7    S    
C49   H70   S    
C36   H74   S    
C38   H27   S    
C48   H69   S    
Ba2   O33   S    
C3    C5    A    
C22   O26   S    
C31   H24   S    
C4    H22   S    
Ba2   P4    S    
H41   O20   S    
C3    C43   S    
Ba2   O5    S    
C21   N1    S    
O13   P1    S    
C40   H35   S    
C2    C14   A    
O2    P5    D    
C18   C47   S    
C43   H49   S    
H65   O28   S    
C36   H2    S    
C42   H42   S    
C47   H63   S    
H47   O22   S    
C8    C17   A    
C21   C22   A    
C37   H4    S    
C10   C11   A    
C7    C9    A    
Ba2   O34   S    
O12   P2    S    
C4    O23   S    
C1    C12   S    
C12   C39   S    
C2    C15   A    
C33   H34   S    
H48   O24   S    
C46   H57   S    
C45   O20   S    
C44   H55   S    
C45   O3    S    
O3    P5    S    
C15   H19   S    
O17   P3    D    
O8    P8    D    
C33   H45   S    
C43   H51   S    
C4    H18   S    
C46   H59   S    
C1    H7    S    
O34   P5    S    
O33   P7    S    
C30   P5    S    
O9    P8    S    
C49   H71   S    
H33   O19   S    
C38   H26   S    
C26   C29   A    
C48   H68   S    
C17   P4    S    
C22   C24   A    
C32   H12   S    
C9    C10   A    
C45   C50   S    
C3    C17   A    
O5    P2    S    
C39   H30   S    
H46   O21   S    
Ba2   O4    S    
C19   P2    S    
C49   H72   S    
C30   C31   A    
C11   C13   A    
N1    N2    D    
Ba1   O4    S    
C16   C41   S    
C32   H23   S    
C39   H29   S    
C34   O19   S    
C27   N2    S    
C18   C24   A    
Ba1   P1    S    
H64   O27   S    
C37   H5    S    
C5    P8    S    
C41   H38   S    
O4    P1    S    
C2    P1    S    
C23   O7    S    
C40   H37   S    
C6    O25   S    
C35   H56   S    
C9    C14   A    
Ba1   O10   S    
O16   P3    S    
C23   C34   S    
C12   C38   S    
C35   H67   S    
C1    H3    S    
C10   C53   A    
C47   H61   S    
C52   H17   S    
C18   C19   A    
C16   H25   S    
H32   O18   S    
C44   H54   S    
C25   C26   A    
C20   C21   A    
O11   P6    D    
C13   C44   S    
C34   H9    S    
C46   H58   S    
