data_mof_unit_66897.cif
_audit_creation_date              2013-03-05T15:57:25-0500
_audit_creation_method            fapswitch 2.2
_symmetry_space_group_name_H-M    P1
_symmetry_Int_Tables_number       1
_space_group_crystal_system       triclinic
_cell_length_a                    17.621094
_cell_length_b                    18.952258
_cell_length_c                    8.65524
_cell_angle_alpha                 90.105718
_cell_angle_beta                  102.901097
_cell_angle_gamma                 89.878689
_cell_volume                      2817.52556696

loop_
_atom_site_label
_atom_site_type_symbol
_atom_site_description
_atom_site_fract_x
_atom_site_fract_y
_atom_site_fract_z
_atom_type_partial_charge
P1    P     P_3+3 0.834140 0.419320 0.003900 0.992517
P2    P     P_3+3 0.834140 0.580680 0.503900 0.989891
P3    P     P_3+3 0.334140 0.919320 0.003900 0.992455
P4    P     P_3+3 0.334140 0.080680 0.503900 0.989810
O1    O     O_2   0.841960 0.394640 0.833410 -0.451437
O2    O     O_2   0.841960 0.605360 0.333410 -0.454394
O3    O     O_2   0.341960 0.894640 0.833410 -0.451515
O4    O     O_2   0.341960 0.105360 0.333410 -0.454254
O5    O     O_3   0.907950 0.463080 0.102990 -0.522104
O6    O     O_3   0.907950 0.536920 0.602990 -0.519452
O7    O     O_3   0.407950 0.963080 0.102990 -0.522095
O8    O     O_3   0.407950 0.036920 0.602990 -0.519399
O9    O     O_3   0.972780 0.329600 0.629720 -0.477723
O10   O     O_3   0.972780 0.670400 0.129720 -0.465741
O11   O     O_3   0.472780 0.829600 0.629720 -0.477825
O12   O     O_3   0.472780 0.170400 0.129720 -0.465989
O13   O     O_2   0.829259 0.293293 0.658398 -0.463324
O14   O     O_2   0.829326 0.700728 0.148090 -0.454393
O15   O     O_2   0.329267 0.793245 0.658324 -0.463523
O16   O     O_2   0.329250 0.200695 0.148093 -0.454280
O17   O     O_3   0.754338 0.473633 0.951815 -0.578981
O18   O     O_3   0.754459 0.525938 0.450916 -0.582046
O19   O     O_3   0.254362 0.973647 0.951772 -0.578830
O20   O     O_3   0.254445 0.025947 0.450887 -0.582154
O21   O     O_3   0.916247 0.188917 0.634087 -0.578398
O22   O     O_3   0.915491 0.807636 0.174614 -0.560628
O23   O     O_3   0.416246 0.688899 0.633576 -0.578682
O24   O     O_3   0.415351 0.307640 0.174145 -0.560870
C1    C     C_3   0.977659 0.083789 0.576049 -0.366445
C2    C     C_3   0.974358 0.920850 0.192946 -0.360071
C3    C     C_3   0.477508 0.583796 0.574959 -0.366807
C4    C     C_3   0.473893 0.420949 0.191174 -0.359502
H1    H     H_    0.532097 0.562718 0.549388 0.134051
H2    H     H_    0.509363 0.455661 0.133047 0.128774
H3    H     H_    0.032212 0.062722 0.550284 0.133917
H4    H     H_    0.010005 0.955627 0.135381 0.129202
H5    H     H_    0.972139 0.065398 0.694902 0.157088
H6    H     H_    0.005776 0.911895 0.317458 0.184066
H7    H     H_    0.471823 0.565289 0.693623 0.157117
H8    H     H_    0.505277 0.412491 0.315920 0.183139
P5    P     P_3+3 0.165830 0.418670 0.685610 0.971011
P6    P     P_3+3 0.165830 0.581330 0.185610 0.974256
P7    P     P_3+3 0.665830 0.918670 0.685610 0.971182
P8    P     P_3+3 0.665830 0.081330 0.185610 0.974026
P9    P     P_3+3 0.097168 0.262757 0.115873 1.049194
P10   P     P_3+3 0.097528 0.737110 0.611451 1.054841
P11   P     P_3+3 0.597256 0.762820 0.115806 1.048719
P12   P     P_3+3 0.597555 0.237089 0.611559 1.054980
O25   O     O_2   0.157990 0.394030 0.856030 -0.433306
O26   O     O_2   0.157990 0.605970 0.356030 -0.434256
O27   O     O_2   0.657990 0.894030 0.856030 -0.433651
O28   O     O_2   0.657990 0.105970 0.356030 -0.434303
O29   O     O_3   0.027110 0.329490 0.059550 -0.481154
O30   O     O_3   0.027110 0.670510 0.559550 -0.483747
O31   O     O_3   0.527110 0.829490 0.059550 -0.481684
O32   O     O_3   0.527110 0.170510 0.559550 -0.483677
O33   O     O_2   0.155045 0.269349 0.006395 -0.402490
O34   O     O_2   0.151180 0.732040 0.492512 -0.407124
O35   O     O_2   0.655081 0.769442 0.006224 -0.402610
O36   O     O_2   0.651333 0.231945 0.492877 -0.407163
O37   O     O_3   0.248667 0.470902 0.718963 -0.648499
O38   O     O_3   0.249114 0.528361 0.224309 -0.643965
O39   O     O_3   0.748650 0.970835 0.718257 -0.648709
O40   O     O_3   0.749098 0.028365 0.223922 -0.644027
O41   O     O_3   0.049550 0.183556 0.058756 -0.538882
O42   O     O_3   0.049785 0.817550 0.565223 -0.547704
O43   O     O_3   0.549726 0.683562 0.058839 -0.539058
O44   O     O_3   0.549839 0.317526 0.565122 -0.547425
C5    C     C_3   0.980853 0.180127 0.115596 0.377804
C6    C     C_3   0.987335 0.823641 0.641334 0.373700
C7    C     C_3   0.480840 0.680259 0.115019 0.377395
C8    C     C_3   0.487351 0.323630 0.641138 0.373912
H9    H     H_    0.976604 0.219831 0.207052 -0.046633
H10   H     H_    0.991183 0.788084 0.744421 -0.037401
H11   H     H_    0.476546 0.719917 0.206535 -0.046316
H12   H     H_    0.491165 0.288087 0.744255 -0.038072
C9    C     C_3   0.975773 0.107689 0.187266 -0.373955
C10   C     C_3   0.983980 0.898942 0.703571 -0.366834
C11   C     C_3   0.475384 0.607799 0.186289 -0.374000
C12   C     C_3   0.483976 0.398937 0.703330 -0.366783
H13   H     H_    0.421450 0.603563 0.231271 0.071799
H14   H     H_    0.429447 0.408289 0.743901 0.075753
H15   H     H_    0.921972 0.103346 0.232671 0.071423
H16   H     H_    0.929483 0.908265 0.744280 0.075583
H17   H     H_    0.974567 0.066919 0.095546 0.144914
H18   H     H_    0.985113 0.937352 0.607954 0.146568
H19   H     H_    0.474232 0.567079 0.094496 0.144841
H20   H     H_    0.485175 0.437338 0.607730 0.146697
C13   C     C_3   0.243922 0.471600 0.323929 0.425721
C14   C     C_3   0.246687 0.526984 0.821440 0.424123
C15   C     C_3   0.743938 0.971614 0.323562 0.426508
C16   C     C_3   0.747468 0.026389 0.822455 0.423495
H21   H     H_    0.190375 0.470400 0.371437 0.029421
H22   H     H_    0.194063 0.529479 0.872009 0.026319
H23   H     H_    0.690338 0.970305 0.370895 0.029113
H24   H     H_    0.695300 0.028657 0.874564 0.028177
C17   C     C_3   0.316110 0.470677 0.455674 -0.352524
C18   C     C_3   0.319745 0.522075 0.949411 -0.361250
C19   C     C_3   0.816035 0.970830 0.455481 -0.352231
C20   C     C_3   0.821171 0.020710 0.948743 -0.362045
H25   H     H_    0.320412 0.519477 0.524754 0.169166
H26   H     H_    0.319322 0.471299 0.008963 0.154277
H27   H     H_    0.820099 0.019662 0.524466 0.169295
H28   H     H_    0.821482 0.969109 0.005733 0.152475
H29   H     H_    0.314923 0.424747 0.533050 0.099943
H30   H     H_    0.322071 0.566202 0.033518 0.102523
H31   H     H_    0.814953 0.924850 0.532767 0.100208
H32   H     H_    0.823853 0.063958 0.035259 0.104922
H33   H     H_    0.368604 0.466287 0.406611 0.101930
H34   H     H_    0.371989 0.522931 0.897481 0.114905
H35   H     H_    0.868586 0.966555 0.406656 0.101637
H36   H     H_    0.872948 0.022659 0.895324 0.114852
Ba1   Ba    Ba6+2 1.000000 0.447380 0.844850 1.666945
Ba2   Ba    Ba6+2 0.000000 0.552620 0.344850 1.672907
Ba3   Ba    Ba6+2 0.500000 0.947380 0.844850 1.666838
Ba4   Ba    Ba6+2 0.500000 0.052620 0.344850 1.672960
C21   C     C_3   0.777786 0.543364 0.943855 0.328909
C22   C     C_3   0.777958 0.456648 0.432389 0.334155
C23   C     C_3   0.277848 0.043353 0.943546 0.329033
C24   C     C_3   0.277924 0.956665 0.432189 0.334272
H37   H     H_    0.801939 0.550517 0.837319 -0.045068
H38   H     H_    0.798209 0.452459 0.320598 -0.037252
H39   H     H_    0.302002 0.050398 0.836977 -0.044914
H40   H     H_    0.298148 0.952522 0.320361 -0.037010
H41   H     H_    0.820089 0.560403 0.052271 0.075830
H42   H     H_    0.823496 0.438108 0.534559 0.059889
H43   H     H_    0.320161 0.060446 0.051909 0.075576
H44   H     H_    0.323482 0.938091 0.534292 0.059706
C25   C     C_3   0.705577 0.587157 0.930569 0.010403
C26   C     C_3   0.707181 0.410913 0.424142 -0.007054
C27   C     C_3   0.205668 0.087193 0.930115 0.010382
C28   C     C_3   0.207143 0.910919 0.423912 -0.007469
H45   H     H_    0.667723 0.577574 0.812284 0.130396
H46   H     H_    0.665820 0.419819 0.309682 0.135605
H47   H     H_    0.167821 0.077602 0.811821 0.130152
H48   H     H_    0.165760 0.919828 0.309469 0.135441
H49   H     H_    0.719917 0.643877 0.946955 0.099050
H50   H     H_    0.722937 0.354325 0.436928 0.089613
H51   H     H_    0.220048 0.143907 0.946424 0.098881
H52   H     H_    0.222908 0.854332 0.436642 0.089641
O45   O     O_3   0.092100 0.536880 0.086720 -0.512052
O46   O     O_3   0.092100 0.463120 0.586720 -0.511797
O47   O     O_3   0.592100 0.036880 0.086720 -0.512131
O48   O     O_3   0.592100 0.963120 0.586720 -0.511313
P13   P     P_3+3 0.893267 0.728843 0.069541 0.983318
P14   P     P_3+3 0.891079 0.273806 0.564931 0.970410
P15   P     P_3+3 0.393188 0.228757 0.069471 0.983242
P16   P     P_3+3 0.391075 0.773831 0.564763 0.969849
C29   C     C_3   0.975878 0.163367 0.566655 0.504300
C30   C     C_3   0.960866 0.851633 0.102354 0.456084
C31   C     C_3   0.475861 0.663393 0.566049 0.504274
C32   C     C_3   0.460863 0.351431 0.101773 0.456902
H53   H     H_    0.969349 0.179975 0.442646 -0.080082
H54   H     H_    0.931292 0.862049 0.977921 -0.036533
H55   H     H_    0.469391 0.680133 0.442134 -0.079907
H56   H     H_    0.431607 0.361406 0.976966 -0.037029
H57   H     H_    0.429185 0.564094 0.483014 0.089061
H58   H     H_    0.418600 0.447243 0.193209 0.110310
H59   H     H_    0.929295 0.063975 0.484415 0.088786
H60   H     H_    0.919272 0.947388 0.195638 0.110265
H61   H     H_    0.526595 0.598638 0.284799 0.149427
H62   H     H_    0.534016 0.408662 0.804361 0.168848
H63   H     H_    0.027131 0.098709 0.285575 0.149386
H64   H     H_    0.034064 0.908685 0.804493 0.169238
C33   C     C_R   0.134569 0.679874 0.923715 -0.157727
C34   C     C_R   0.131267 0.318033 0.428768 -0.164288
C35   C     C_R   0.634487 0.179938 0.923881 -0.157395
C36   C     C_R   0.631305 0.818067 0.428717 -0.164601
C37   C     C_R   0.853944 0.326647 0.258761 -0.279957
C38   C     C_R   0.855468 0.675280 0.761155 -0.263817
C39   C     C_R   0.353919 0.826679 0.258670 -0.280210
C40   C     C_R   0.355457 0.175253 0.761101 -0.264095
C41   C     C_R   0.788354 0.217091 0.292698 -0.090029
C42   C     C_R   0.788342 0.784300 0.795454 -0.089727
C43   C     C_R   0.288367 0.717106 0.292570 -0.089980
C44   C     C_R   0.288347 0.284279 0.795418 -0.089758
C45   C     C_R   0.841792 0.270951 0.353451 -0.006560
C46   C     C_R   0.844536 0.732404 0.855616 -0.020106
C47   C     C_R   0.341772 0.770988 0.353335 -0.006161
C48   C     C_R   0.344505 0.232353 0.855571 -0.020149
C49   C     C_R   0.812730 0.333664 0.102995 0.047554
C50   C     C_R   0.812317 0.666290 0.606309 0.036972
C51   C     C_R   0.312710 0.833679 0.102918 0.047741
C52   C     C_R   0.312312 0.166280 0.606268 0.036962
C53   C     C_R   0.754967 0.279970 0.039698 -0.027992
C54   C     C_R   0.753072 0.718927 0.544261 -0.032198
C55   C     C_R   0.254965 0.779974 0.039589 -0.027884
C56   C     C_R   0.253055 0.218907 0.544245 -0.032111
C57   C     C_R   0.242455 0.720188 0.136585 -0.029249
C58   C     C_R   0.240885 0.279362 0.640256 -0.022432
C59   C     C_R   0.742441 0.220189 0.136697 -0.029032
C60   C     C_R   0.740871 0.779366 0.640290 -0.022339
C61   C     C_R   0.182398 0.667677 0.076667 0.072055
C62   C     C_R   0.180585 0.331543 0.579379 0.076001
C63   C     C_R   0.682363 0.167696 0.076759 0.072370
C64   C     C_R   0.680566 0.831542 0.579390 0.076431
C65   C     C_R   0.152234 0.733457 0.823914 0.047531
C66   C     C_R   0.148573 0.263912 0.330112 0.034971
C67   C     C_R   0.652142 0.233530 0.824107 0.047437
C68   C     C_R   0.648672 0.763991 0.330027 0.035146
C69   C     C_R   0.210600 0.783160 0.882922 -0.062137
C70   C     C_R   0.207331 0.214384 0.388790 -0.077769
C71   C     C_R   0.710545 0.283201 0.883084 -0.062267
C72   C     C_R   0.707405 0.714442 0.388743 -0.077730
H65   H     H_    0.281644 0.674207 0.369943 0.133318
H66   H     H_    0.281341 0.327435 0.872195 0.123907
H67   H     H_    0.781595 0.174214 0.370124 0.133079
H68   H     H_    0.781339 0.827465 0.872200 0.123455
H69   H     H_    0.720095 0.324845 0.805655 0.147096
H70   H     H_    0.717221 0.672708 0.310894 0.142722
H71   H     H_    0.220134 0.824813 0.805507 0.147197
H72   H     H_    0.217136 0.172641 0.310953 0.142750
H73   H     H_    0.893333 0.368049 0.311413 0.023606
H74   H     H_    0.895568 0.634265 0.813348 0.030092
H75   H     H_    0.393312 0.868079 0.311325 0.023582
H76   H     H_    0.395551 0.134234 0.813292 0.029992
I1    I     I_    0.082606 0.198698 0.695555 -0.434460
I2    I     I_    0.073860 0.811019 0.123725 -0.506749
I3    I     I_    0.582592 0.698559 0.695372 -0.434798
I4    I     I_    0.574007 0.310890 0.125072 -0.505454
I5    I     I_    0.644999 0.550355 0.101858 -0.446655
I6    I     I_    0.652526 0.444717 0.606910 -0.452518
I7    I     I_    0.145077 0.050505 0.101476 -0.446647
I8    I     I_    0.152541 0.944660 0.606820 -0.452937
C73   C     C_3   0.059944 0.640309 0.866226 -0.271601
H77   H     H_    0.031830 0.623258 0.956801 0.156438
H78   H     H_    0.014097 0.677386 0.811110 0.043237
H79   H     H_    0.067696 0.595101 0.789470 0.131016
C74   C     C_3   0.057870 0.359285 0.368082 -0.269498
H80   H     H_    0.028932 0.378514 0.455812 0.157694
H81   H     H_    0.067640 0.403465 0.290859 0.129141
H82   H     H_    0.011704 0.322884 0.311596 0.037013
C75   C     C_3   0.559937 0.140286 0.866259 -0.271387
H83   H     H_    0.531770 0.123214 0.956742 0.156374
H84   H     H_    0.514064 0.177318 0.811027 0.043107
H85   H     H_    0.567837 0.095079 0.789608 0.131163
C76   C     C_3   0.557873 0.859275 0.368062 -0.269473
H86   H     H_    0.528948 0.878504 0.455813 0.157628
H87   H     H_    0.567598 0.903456 0.290801 0.129177
H88   H     H_    0.511724 0.822843 0.311635 0.037057
C77   C     C_3   0.912597 0.190092 0.977334 -0.235533
H89   H     H_    0.913840 0.243413 0.925784 0.166289
H90   H     H_    0.915760 0.148907 0.888749 0.173096
H91   H     H_    0.857711 0.182990 0.015559 0.030062
C78   C     C_3   0.913406 0.808565 0.519660 -0.254349
H92   H     H_    0.913373 0.754616 0.470128 0.156968
H93   H     H_    0.864105 0.815067 0.574644 0.022121
H94   H     H_    0.906771 0.847880 0.424505 0.165086
C79   C     C_3   0.412835 0.690468 0.976375 -0.234144
H95   H     H_    0.414604 0.743663 0.924566 0.167181
H96   H     H_    0.415742 0.649057 0.888139 0.172704
H97   H     H_    0.357825 0.683945 0.014312 0.029473
C80   C     C_3   0.413452 0.308526 0.519392 -0.254082
H98   H     H_    0.413450 0.254572 0.469904 0.156955
H99   H     H_    0.364114 0.315008 0.574290 0.022179
H100  H     H_    0.406861 0.347821 0.424199 0.165184
I9    I     I_    0.255611 0.380350 0.197042 -0.485157
I10   I     I_    0.259302 0.618737 0.695262 -0.488478
I11   I     I_    0.755818 0.880454 0.196675 -0.485285
I12   I     I_    0.759284 0.118582 0.696972 -0.489371

loop_
_geom_bond_atom_site_label_1
_geom_bond_atom_site_label_2
_geom_bond_distance
_ccdc_geom_bond_type
C9    H63   1.108143 S    
C42   H68   1.076989 S    
P1    O17   1.718344 S    
C18   H34   1.111147 S    
C6    C10   1.530149 S    
C5    C9    1.518564 S    
P3    O7    1.618277 S    
P5    O37   1.735176 S    
C8    C80   1.508546 S    
C8    H12   1.109094 S    
O14   P13   1.536727 D    
C5    C77   1.507143 S    
C7    C11   1.518510 S    
C78   H94   1.098207 S    
P7    O39   1.734355 S    
C1    H59   1.093060 S    
P2    O2    1.583945 D    
P8    O40   1.745910 S    
C10   H64   1.109875 S    
O10   P13   1.769438 S    
P9    O33   1.544692 D    
C79   H95   1.107463 S    
P5    C62   1.933647 S    
C12   H62   1.109915 S    
C38   C46   1.394199 A    
O12   P15   1.769509 S    
P1    O1    1.582163 D    
O5    Ba2   2.893992 S    
Ba2   O46   2.894451 S    
C56   C58   1.457501 A    
P10   O42   1.743140 S    
C74   H82   1.095564 S    
P3    O3    1.582163 D    
C23   H43   1.108233 S    
C22   H38   1.106169 S    
C80   H98   1.107911 S    
P4    O20   1.724910 S    
C53   C59   1.457595 A    
C2    C30   1.518709 S    
C9    H15   1.107624 S    
O3    Ba3   2.941514 S    
Ba3   Ba4   4.768471 S    
O38   C13   1.395747 S    
O30   Ba2   2.875104 S    
C16   H24   1.111404 S    
C73   H79   1.109955 S    
C3    C31   1.510540 S    
Ba1   O46   3.055803 S    
C2    H6    1.109302 S    
O21   C29   1.396378 S    
C77   H89   1.107657 S    
C50   C54   1.456248 A    
O25   Ba1   2.941132 S    
C44   H66   1.077044 S    
C21   H37   1.107131 S    
O2    Ba2   2.937628 S    
O17   C21   1.391890 S    
P7    Ba3   3.538823 S    
Ba4   O48   2.894451 S    
P3    O19   1.718221 S    
P15   C48   1.859869 S    
P5    O25   1.583246 D    
C20   H28   1.095578 S    
C32   H56   1.104571 S    
Ba1   O45   2.893951 S    
O23   P16   1.739263 S    
P8    C63   1.944723 S    
P13   C46   1.860238 S    
C6    H10   1.108985 S    
C23   C27   1.500483 S    
C3    H1    1.107683 S    
C65   C69   1.404872 A    
O21   P14   1.739343 S    
C31   H55   1.100192 S    
P4    O8    1.617076 S    
C21   C25   1.500536 S    
C75   H83   1.067511 S    
C42   C46   1.409441 A    
P12   O32   1.758048 S    
C57   C61   1.461781 A    
P4    O4    1.583945 D    
P6    O38   1.746187 S    
O8    Ba3   2.894494 S    
C39   H75   1.079306 S    
C40   C48   1.393992 A    
P11   O31   1.757382 S    
P9    O29   1.757321 S    
C15   I11   2.080631 S    
C28   I8    2.124776 S    
C76   H86   1.067937 S    
C38   C50   1.395730 A    
C67   C71   1.404863 A    
C39   C47   1.383338 A    
P7    O48   1.622247 S    
C26   H46   1.103992 S    
P12   O36   1.548100 D    
P1    Ba1   3.539143 S    
O9    P14   1.774539 S    
C11   H61   1.108039 S    
O12   Ba4   2.879553 S    
C37   C45   1.383583 A    
C16   I12   2.094124 S    
C8    C12   1.530145 S    
O29   Ba1   2.878859 S    
C14   H22   1.111142 S    
C4    H58   1.097051 S    
O28   Ba4   2.945058 S    
O32   Ba4   2.875104 S    
Ba3   O47   2.893951 S    
C20   H32   1.103127 S    
P6    Ba2   3.541507 S    
O20   C24   1.395811 S    
Ba2   O45   3.054327 S    
P2    C50   1.926216 S    
O22   C30   1.397789 S    
P1    O5    1.618277 S    
O44   C8    1.407625 S    
C25   I5    2.130136 S    
C19   H27   1.094214 S    
O10   Ba2   2.879553 S    
P5    Ba1   3.538823 S    
C11   H13   1.107646 S    
C78   H92   1.107920 S    
C49   C53   1.457740 A    
O1    Ba1   2.941514 S    
P10   C65   1.877307 S    
C43   C47   1.409294 A    
P12   C67   1.877258 S    
C36   C64   1.419026 A    
P9    C66   1.873300 S    
C18   H26   1.093335 S    
C15   H23   1.110594 S    
C41   C59   1.411881 A    
C13   H21   1.110525 S    
O27   Ba3   2.941132 S    
C52   C56   1.456212 A    
P14   C45   1.843248 S    
C13   C17   1.506957 S    
P7    C64   1.933531 S    
O26   Ba2   2.945058 S    
C4    H2    1.104518 S    
O39   C16   1.388200 S    
P6    C61   1.944996 S    
C2    H60   1.097140 S    
C34   C66   1.409221 A    
P2    O18   1.724808 S    
C74   H80   1.067935 S    
C22   C26   1.508789 S    
C33   C65   1.413855 A    
C68   C72   1.404980 A    
Ba4   O47   3.054327 S    
C17   H33   1.103543 S    
C40   C52   1.395557 A    
C17   H25   1.093921 S    
C44   C58   1.417751 A    
C4    C32   1.518389 S    
C26   I6    2.124695 S    
C28   H48   1.104076 S    
C19   H35   1.103144 S    
P10   O30   1.757932 S    
P6    O45   1.623464 S    
C33   C73   1.499872 S    
C73   H77   1.067453 S    
C30   I2    2.102536 S    
O16   P15   1.536709 D    
C54   C72   1.408121 A    
P11   O43   1.737555 S    
C29   I1    2.072577 S    
C3    H57   1.093377 S    
P4    C52   1.925912 S    
O11   Ba3   2.875798 S    
C5    H9    1.105651 S    
O7    Ba4   2.893992 S    
C75   H84   1.095818 S    
C37   C49   1.387723 A    
C11   H19   1.103536 S    
O6    Ba1   2.894494 S    
P6    O26   1.581467 D    
C25   H45   1.104957 S    
C66   C70   1.404957 A    
C12   H14   1.108022 S    
C20   H36   1.111797 S    
C79   H96   1.103135 S    
C78   H93   1.086416 S    
C26   H50   1.106780 S    
P9    O41   1.737507 S    
C31   I3    2.072848 S    
P11   C68   1.873223 S    
C76   H88   1.095599 S    
C28   H52   1.106790 S    
C43   H65   1.077678 S    
C1    H5    1.111455 S    
C55   C57   1.457560 A    
P2    O6    1.617076 S    
C60   C64   1.460218 A    
C19   H31   1.102321 S    
O37   C14   1.388457 S    
C16   C20   1.502991 S    
C80   H99   1.086514 S    
Ba1   Ba2   4.768471 S    
C39   C51   1.387565 A    
C35   C75   1.499789 S    
C13   I9    2.081304 S    
O18   C22   1.395792 S    
Ba3   O48   3.055803 S    
O24   P15   1.745801 S    
P1    C49   1.914558 S    
C36   C68   1.409180 A    
O23   C31   1.396342 S    
C24   C28   1.508912 S    
C35   C63   1.420644 A    
P4    Ba4   3.536519 S    
C34   C74   1.501250 S    
C34   C62   1.419130 A    
O22   P13   1.746079 S    
C70   H72   1.076578 S    
P12   O44   1.743107 S    
C33   C61   1.420705 A    
P8    O28   1.581467 D    
C43   C57   1.411740 A    
C80   H100  1.098231 S    
C24   H44   1.110186 S    
O24   C32   1.397643 S    
C36   C76   1.501250 S    
C38   H74   1.078915 S    
C23   H39   1.107133 S    
P16   C47   1.842922 S    
C37   H73   1.079283 S    
C1    H3    1.107680 S    
O4    Ba4   2.937628 S    
C27   H47   1.104994 S    
O15   P16   1.538957 D    
C18   H30   1.102547 S    
C2    H4    1.104506 S    
P3    C51   1.914094 S    
C77   H91   1.098438 S    
C15   C19   1.506702 S    
C53   C71   1.407206 A    
C76   H87   1.109740 S    
O13   P14   1.538893 D    
C17   H29   1.102339 S    
P5    O46   1.622247 S    
C74   H81   1.109747 S    
P3    Ba3   3.539143 S    
C7    H11   1.105617 S    
P2    Ba2   3.536519 S    
P7    O27   1.583246 D    
C55   C69   1.407212 A    
O11   P16   1.774493 S    
O31   Ba3   2.878859 S    
C9    H17   1.103614 S    
P8    O47   1.623464 S    
O41   C5    1.406403 S    
C29   H53   1.100131 S    
C32   I4    2.102496 S    
C56   C70   1.408073 A    
C7    C79   1.507037 S    
C73   H78   1.095797 S    
C14   C18   1.501974 S    
O43   C7    1.406328 S    
C4    H8    1.109466 S    
C54   C60   1.457512 A    
C75   H85   1.110050 S    
C59   C63   1.461816 A    
C79   H97   1.097963 S    
C1    C29   1.510415 S    
C27   H51   1.106391 S    
C58   C62   1.460180 A    
C6    C78   1.508505 S    
P11   O35   1.544689 D    
C41   H67   1.077812 S    
C10   H16   1.108013 S    
C44   C48   1.409423 A    
C25   H49   1.106409 S    
O42   C6    1.407537 S    
P8    Ba4   3.541507 S    
C12   H20   1.106740 S    
C10   H18   1.106747 S    
C30   H54   1.104622 S    
P10   O34   1.548100 D    
C72   H70   1.076598 S    
C3    H7    1.111457 S    
C35   C67   1.413759 A    
C71   H69   1.073870 S    
O19   C23   1.391904 S    
C27   I7    2.130085 S    
C22   H42   1.110162 S    
O40   C15   1.395586 S    
C77   H90   1.103135 S    
C41   C45   1.409295 A    
C40   H76   1.078908 S    
C21   H41   1.108169 S    
C69   H71   1.073852 S    
O9    Ba1   2.875798 S    
C51   C55   1.457755 A    
C24   H40   1.106169 S    
C42   C60   1.417847 A    
C14   I10   2.093567 S    
