data_mof_unit_59945.cif
_audit_creation_date              2012-12-11T15:41:24-0500
_audit_creation_method            fapswitch 2.2
_symmetry_space_group_name_H-M    P1
_symmetry_Int_Tables_number       1
_space_group_crystal_system       triclinic
_cell_length_a                    14.860489
_cell_length_b                    14.846588
_cell_length_c                    15.021241
_cell_angle_alpha                 109.253647
_cell_angle_beta                  110.069908
_cell_angle_gamma                 109.237286
_cell_volume                      2546.41857852

loop_
_atom_site_label
_atom_site_type_symbol
_atom_type_description
_atom_site_fract_x
_atom_site_fract_y
_atom_site_fract_z
_atom_type_partial_charge
C1    C     C_R   0.251503 0.066647 0.973854 -0.129006
C2    C     C_R   0.897696 0.755671 0.032072 -0.126195
C3    C     C_R   0.225924 0.201239 0.676975 -0.156685
C4    C     C_R   0.801973 0.680019 0.020184 -0.173935
C5    C     C_R   0.277002 0.287002 0.784433 0.111195
C6    C     C_R   0.696997 0.646411 0.937017 0.111720
C7    C     C_R   0.217937 0.287710 0.840148 -0.179858
C8    C     C_R   0.690089 0.691291 0.867289 -0.144282
C9    C     C_R   0.110282 0.201360 0.790057 -0.125212
C10   C     C_R   0.785987 0.766984 0.879702 -0.097174
C11   C     C_R   0.060544 0.115032 0.683781 -0.092302
C12   C     C_R   0.805232 0.004431 0.095559 -0.124512
C13   C     C_R   0.889641 0.798210 0.961217 -0.084747
C14   C     C_R   0.395766 0.473390 0.834871 -0.232211
C15   C     C_R   0.589511 0.466869 0.921685 -0.240183
C16   C     C_R   0.747344 0.223043 0.313679 -0.154379
C17   C     C_R   0.193884 0.792145 0.701688 -0.125462
C18   C     C_R   0.497567 0.569735 0.892053 0.048798
C19   C     C_R   0.489446 0.379935 0.892450 0.061516
C20   C     C_R   0.594334 0.561783 0.919200 0.034977
C21   C     C_R   0.389741 0.378903 0.836285 0.027030
C22   C     C_R   0.870840 0.529985 0.428813 -0.169442
C23   C     C_R   0.773271 0.326287 0.324570 0.048138
C24   C     C_R   0.960262 0.523226 0.621432 -0.164657
C25   C     C_R   0.961907 0.623665 0.523038 -0.173589
C26   C     C_R   0.868948 0.429616 0.527177 -0.167169
C27   C     C_R   0.013781 0.617350 0.616634 0.141266
C28   C     C_R   0.832059 0.429715 0.427788 0.140185
C29   C     C_R   0.544960 0.043441 0.577154 -0.176374
C30   C     C_R   0.460809 0.838603 0.397586 -0.183403
C31   C     C_R   0.541635 0.038255 0.483463 -0.183312
C32   C     C_R   0.463330 0.843731 0.492195 -0.210110
C33   C     C_R   0.501210 0.936401 0.395095 0.169744
C34   C     C_R   0.129762 0.698793 0.699081 0.032493
C35   C     C_R   0.506180 0.946465 0.581186 0.165574
C36   C     C_R   0.133489 0.063696 0.160401 -0.191704
C37   C     C_R   0.035878 0.159518 0.058034 -0.179207
C38   C     C_R   0.041426 0.065175 0.162402 -0.168958
C39   C     C_R   0.127728 0.158008 0.056118 -0.171648
C40   C     C_R   0.408951 0.906540 0.209350 -0.206533
C41   C     C_R   0.593810 0.028735 0.779604 -0.169585
C42   C     C_R   0.985386 0.102398 0.100898 0.142661
C43   C     C_R   0.168258 0.098238 0.095812 0.145146
C44   C     C_R   0.588114 0.299918 0.993737 -0.135455
C45   C     C_R   0.501258 0.936213 0.300945 0.014601
C46   C     C_R   0.408089 0.686323 0.930605 -0.121394
C47   C     C_R   0.593153 0.996254 0.299495 0.162864
C48   C     C_R   0.409411 0.938602 0.685415 0.214412
C49   C     C_R   0.405512 0.206139 0.903562 -0.157104
C50   C     C_R   0.592532 0.777533 0.024431 -0.131495
C51   C     C_R   0.748073 0.314991 0.221984 -0.119323
C52   C     C_R   0.194753 0.700101 0.791368 -0.138876
C53   C     C_R   0.251360 0.974331 0.065337 -0.128022
C54   C     C_R   0.804194 0.095465 0.004230 -0.139411
C55   C     C_R   0.226104 0.052409 0.050910 0.032816
C56   C     C_R   0.502495 0.955296 0.676609 -0.067594
C57   C     C_R   0.869147 0.066870 0.066658 0.047738
C58   C     C_3   0.756899 0.051652 0.466849 -0.957590
C59   C     C_3   0.265430 0.972776 0.597451 -0.979900
C60   C     C_R   0.493936 0.300240 0.930430 0.070010
C61   C     C_R   0.500336 0.674893 0.943173 0.056003
C62   C     C_R   0.117997 0.115338 0.627034 -0.121224
H1    H     H_    0.241317 0.119987 0.941866 0.104756
H2    H     H_    0.779941 0.800669 0.825412 0.113436
H3    H     H_    0.319217 0.473370 0.797944 0.128193
H4    H     H_    0.664471 0.462382 0.948728 0.118939
H5    H     H_    0.839406 0.534667 0.355038 0.107772
H6    H     H_    0.994219 0.517356 0.694114 0.108158
H7    H     H_    0.997008 0.696773 0.517853 0.109795
H8    H     H_    0.835817 0.355301 0.531067 0.107167
H9    H     H_    0.575243 0.122495 0.645630 0.124678
H10   H     H_    0.428336 0.760014 0.327440 0.123255
H11   H     H_    0.570708 0.113366 0.479577 0.123183
H12   H     H_    0.833641 0.980739 0.155816 0.085569
H13   H     H_    0.431499 0.768995 0.496057 0.122800
H14   H     H_    0.168341 0.024149 0.199000 0.111000
H15   H     H_    0.999272 0.195775 0.015973 0.104791
H16   H     H_    0.756190 0.201466 0.376570 0.112807
H17   H     H_    0.163537 0.826929 0.654056 0.128484
H18   H     H_    0.008589 0.026598 0.202290 0.112791
H19   H     H_    0.158085 0.193131 0.012865 0.107900
H20   H     H_    0.324069 0.851722 0.182028 0.111515
H21   H     H_    0.679407 0.066448 0.800858 0.117646
H22   H     H_    0.672254 0.352990 0.017957 0.083729
H23   H     H_    0.078939 0.048908 0.544401 0.112872
H24   H     H_    0.322209 0.624355 0.876146 0.095407
H25   H     H_    0.320570 0.166706 0.842439 0.122251
H26   H     H_    0.678327 0.799858 0.058749 0.117862
H27   H     H_    0.757878 0.378080 0.199600 0.090484
H28   H     H_    0.167134 0.648858 0.824036 0.087221
H29   H     H_    0.240607 0.941713 0.117539 0.092979
H30   H     H_    0.831114 0.156361 0.980972 0.084284
H31   H     H_    0.977302 0.048160 0.645237 0.107130
H32   H     H_    0.963677 0.855339 0.969320 0.120467
H33   H     H_    0.746295 0.025100 0.317347 0.163180
H34   H     H_    0.978221 0.780940 0.095912 0.105439
H35   H     H_    0.841437 0.063173 0.494686 0.248147
H36   H     H_    0.715669 0.996965 0.492683 0.272741
H37   H     H_    0.764126 0.133430 0.506569 0.243487
H38   H     H_    0.286667 0.842825 0.522079 0.171547
H39   H     H_    0.179800 0.930214 0.527868 0.245072
H40   H     H_    0.320579 0.036652 0.588537 0.259354
H41   H     H_    0.265417 0.012343 0.674293 0.260151
H42   H     H_    0.269812 0.200789 0.632414 0.121530
H43   H     H_    0.809930 0.648171 0.076047 0.106886
H44   H     H_    0.255787 0.354321 0.922475 0.117283
H45   H     H_    0.610438 0.666552 0.802298 0.115103
H46   H     H_    0.065355 0.201397 0.833531 0.106828
N1    N     N_R   0.293810 0.002730 0.945950 -0.040023
N2    N     N_R   0.443210 0.997250 0.791090 -0.054258
N3    N     N_R   0.443180 0.152110 0.945950 -0.040688
N4    N     N_R   0.556820 0.847890 0.054050 -0.047627
N5    N     N_R   0.706170 0.208950 0.152090 -0.037725
N6    N     N_R   0.293830 0.791050 0.847910 -0.039910
N7    N     N_R   0.293800 0.945910 0.002760 -0.036080
N8    N     N_R   0.706200 0.054090 0.997240 -0.035706
N9    N     N_2   0.697068 0.001761 0.349074 -0.111890
N10   N     N_2   0.301517 0.893578 0.597759 -0.120727
N11   N     N_R   0.706190 0.997270 0.054050 -0.042030
N12   N     N_R   0.706160 0.152130 0.208910 -0.045013
N13   N     N_R   0.293840 0.847870 0.791090 -0.041931
N14   N     N_R   0.443140 0.945920 0.152090 -0.044575
N15   N     N_R   0.556860 0.054080 0.847910 -0.050634
N16   N     N_R   0.556830 0.208940 0.002760 -0.037663
N17   N     N_R   0.443170 0.791060 0.997240 -0.040230
N18   N     N_R   0.556790 0.002750 0.208910 -0.074486
Ni1   Ni    Ni4+2 0.369690 0.999990 0.869700 0.212518
Ni2   Ni    Ni4+2 0.630310 0.000010 0.130300 0.202523
Ni3   Ni    Ni4+2 0.369670 0.869670 0.000000 0.205809
Ni4   Ni    Ni4+2 0.630330 0.130330 0.000000 0.204613

loop_
_geom_bond_atom_site_label_1
_geom_bond_atom_site_label_2
_ccdc_geom_bond_type
C3    H42   S    
C48   N2    A    
C12   H12   S    
C33   C45   S    
C49   H25   S    
C46   N17   A    
C52   H28   S    
C58   H36   S    
C24   C27   A    
C11   C62   A    
C32   H13   S    
H33   N9    S    
C9    H46   S    
C15   C19   A    
C51   N5    A    
C49   C60   A    
C14   C21   A    
C19   C21   A    
C24   C26   A    
N13   Ni1   S    
C16   N12   A    
C31   H11   S    
C41   H21   S    
C17   H17   S    
C48   C56   A    
C37   C42   A    
C2    C13   A    
C14   C18   A    
C36   H14   S    
C1    N1    A    
N6    N13   A    
N1    Ni1   S    
C22   C25   A    
C54   N8    A    
C53   H29   S    
C31   C33   A    
N14   Ni3   S    
C16   H16   S    
C50   H26   S    
N2    Ni1   S    
C49   N3    A    
N11   Ni2   S    
C11   H31   S    
C53   C55   A    
C35   C56   S    
C16   C23   A    
C22   C28   A    
C15   C20   A    
C58   H35   S    
C1    H1    S    
C42   C57   S    
C45   C47   A    
C27   C34   S    
C39   C43   A    
C40   C45   A    
C62   H23   S    
N5    Ni4   S    
C46   C61   A    
C59   H39   S    
C32   C35   A    
C40   H20   S    
C39   H19   S    
C4    C6    A    
C5    C7    A    
C24   H6    S    
C48   N10   S    
C44   H22   S    
C15   H4    S    
C37   H15   S    
C44   N16   A    
C58   N9    S    
N8    Ni4   S    
N14   N18   A    
C2    C4    A    
C41   C56   A    
C54   H30   S    
N2    N15   A    
C12   N11   A    
C23   C51   A    
C50   N4    A    
C7    H44   S    
N16   Ni4   S    
C23   C28   S    
C9    C11   A    
N4    N17   A    
C12   C57   A    
C17   N13   A    
C59   N10   S    
N15   Ni4   S    
N3    Ni1   S    
C26   H8    S    
N6    Ni3   S    
C25   H7    S    
H38   N10   S    
C17   C34   A    
C8    H45   S    
C40   N14   A    
C47   N18   A    
N7    Ni3   S    
C3    C62   A    
C43   C55   S    
C7    C9    A    
N18   Ni2   S    
C30   C33   A    
N3    N16   A    
C59   H40   S    
C34   C52   A    
C8    C10   A    
C10   H2    S    
C58   H37   S    
C30   H10   S    
C3    C5    A    
C10   C13   A    
C6    C8    A    
N12   Ni2   S    
C18   C61   S    
C38   C42   A    
C52   N6    A    
C19   C60   S    
C25   C27   A    
C6    C20   S    
C4    H43   S    
C29   C35   A    
C26   C28   A    
N8    N11   A    
C13   H32   S    
C59   H41   S    
C41   N15   A    
C2    H34   S    
C1    C55   A    
C29   C31   A    
C51   H27   S    
C30   C32   A    
N5    N12   A    
C38   H18   S    
C44   C60   A    
C36   C38   A    
C14   H3    S    
C18   C20   A    
C22   H5    S    
N4    Ni2   S    
N1    N7    A    
N17   Ni3   S    
C47   N9    S    
C5    C21   S    
C37   C39   A    
C50   C61   A    
C36   C43   A    
C29   H9    S    
C53   N7    A    
C46   H24   S    
C54   C57   A    
