data_mof_unit_57259.cif
_audit_creation_date              2013-03-05T16:33:55-0500
_audit_creation_method            fapswitch 2.2
_symmetry_space_group_name_H-M    P1
_symmetry_Int_Tables_number       1
_space_group_crystal_system       triclinic
_cell_length_a                    17.72018
_cell_length_b                    10.815156
_cell_length_c                    9.531715
_cell_angle_alpha                 89.936237
_cell_angle_beta                  90.027358
_cell_angle_gamma                 90.200627
_cell_volume                      1826.70738913

loop_
_atom_site_label
_atom_site_type_symbol
_atom_site_description
_atom_site_fract_x
_atom_site_fract_y
_atom_site_fract_z
_atom_type_partial_charge
O1    O     O_R   0.500000 0.319640 0.618810 -0.582744
O2    O     O_R   0.500010 0.319680 0.381230 -0.541234
C1    C     C_R   0.504392 0.262414 0.499845 0.842286
O3    O     O_R   0.391250 0.499990 0.618840 -0.587882
O4    O     O_R   0.391260 0.500020 0.381250 -0.590469
C2    C     C_R   0.355494 0.499688 0.500016 0.778013
Cu1   Cu    Cu3+1 0.500000 0.499980 0.640670 0.948496
Cu2   Cu    Cu3+1 0.500000 0.500020 0.359330 0.980020
O5    O     O_R   0.499990 0.680320 0.618770 -0.579922
O6    O     O_R   0.500000 0.680360 0.381190 -0.587344
O7    O     O_R   0.608740 0.499980 0.618750 -0.585826
O8    O     O_R   0.608750 0.500010 0.381160 -0.563906
C3    C     C_R   0.501564 0.737728 0.499988 0.825303
C4    C     C_R   0.644550 0.499110 0.499973 0.802584
C5    C     C_R   0.846488 0.495074 0.626969 -0.150234
H1    H     H_    0.876727 0.495129 0.725816 0.132230
C6    C     C_R   0.767832 0.496193 0.627172 -0.185501
H2    H     H_    0.738723 0.496358 0.726821 0.147588
C7    C     C_R   0.727637 0.496790 0.499949 -0.035362
C8    C     C_R   0.767688 0.494502 0.372658 -0.159528
H3    H     H_    0.738454 0.493308 0.273071 0.153775
C9    C     C_R   0.846347 0.493374 0.372723 -0.153104
H4    H     H_    0.876476 0.492100 0.273829 0.132349
C10   C     C_R   0.885644 0.494038 0.499811 0.144686
C11   C     C_1   0.966252 0.494139 0.499760 -0.059045
C12   C     C_1   0.033925 0.494686 0.499775 -0.063225
C13   C     C_R   0.153759 0.496460 0.627039 -0.158554
H5    H     H_    0.123560 0.495939 0.725874 0.129907
C14   C     C_R   0.232425 0.497878 0.627278 -0.199024
H6    H     H_    0.261757 0.498313 0.726985 0.150514
C15   C     C_R   0.272476 0.498640 0.499952 -0.032691
C16   C     C_R   0.232415 0.497925 0.372568 -0.194536
H7    H     H_    0.261739 0.498398 0.272905 0.150151
C17   C     C_R   0.153749 0.496507 0.372688 -0.158114
H8    H     H_    0.123543 0.496023 0.273808 0.129892
C18   C     C_R   0.114533 0.495758 0.499833 0.151181
C19   C     C_R   0.506042 0.063467 0.624738 0.113081
C20   C     C_R   0.516280 0.129471 0.500068 -0.231199
C21   C     C_R   0.537914 0.063309 0.377785 0.328170
C22   C     C_R   0.532912 0.933886 0.378628 -0.278468
H9    H     H_    0.545527 0.883301 0.283675 0.188103
C23   C     C_R   0.510684 0.870617 0.500572 -0.167951
C24   C     C_R   0.503972 0.936554 0.625208 0.126727
C25   C     C_3   0.444145 0.931932 0.735341 -0.443706
C26   C     C_3   0.446437 0.072373 0.735137 -0.446934
H10   H     H_    0.389975 0.893022 0.695849 0.191377
H11   H     H_    0.465075 0.890605 0.834847 0.209920
H12   H     H_    0.393525 0.115340 0.695893 0.184266
H13   H     H_    0.468764 0.111492 0.834699 0.228697
C27   C     C_R   0.527380 0.599481 0.073503 0.248641
N1    N     N_R   0.500470 0.500930 0.147930 -0.185157
C28   C     C_R   0.465438 0.408325 0.074547 -0.016574
H14   H     H_    0.438591 0.332999 0.130318 0.151616
C29   C     C_R   0.465319 0.408463 0.925595 -0.065273
H15   H     H_    0.438075 0.333658 0.869916 0.136223
N2    N     N_R   0.500480 0.500890 0.852020 -0.187014
C30   C     C_R   0.527240 0.599532 0.926101 0.248404
C31   C     C_3   0.605089 0.651488 0.919483 -0.483156
C32   C     C_3   0.605558 0.650733 0.078713 -0.486236
H16   H     H_    0.646271 0.586078 0.873439 0.211221
H17   H     H_    0.606037 0.746115 0.873816 0.203875
H18   H     H_    0.646786 0.584484 0.123383 0.213663
H19   H     H_    0.607579 0.744962 0.124638 0.200281
N3    N     N_R   0.564298 0.124518 0.253167 0.131670
O9    O     O_R   0.617909 0.206737 0.261866 -0.352240
O10   O     O_R   0.544983 0.082956 0.130127 -0.402757

loop_
_geom_bond_atom_site_label_1
_geom_bond_atom_site_label_2
_geom_bond_distance
_ccdc_geom_bond_type
C19   C24   1.372942 A    
O4    Cu2   1.938286 S    
C24   C25   1.492983 S    
C29   N2    1.368847 A    
C5    C6    1.393894 A    
C19   C20   1.397137 A    
C13   C18   1.397322 A    
C13   C14   1.394018 A    
C29   H15   1.080372 S    
C32   H19   1.110048 S    
C7    C8    1.406205 A    
C16   C17   1.394014 A    
C25   H11   1.112107 S    
C26   H13   1.111524 S    
Cu2   O8    1.938172 S    
N3    O9    1.301630 A    
C8    H3    1.081244 S    
C31   H17   1.111757 S    
C22   C23   1.403986 A    
O2    C1    1.290964 A    
C11   C12   1.199163 T    
C28   C29   1.419766 A    
Cu1   Cu2   2.681651 S    
C14   C15   1.406210 A    
C28   H14   1.081272 S    
C10   C11   1.428383 S    
Cu1   O7    1.938284 S    
C21   N3    1.436778 S    
Cu2   N1    2.015039 S    
C30   C31   1.489055 S    
C14   H6    1.083012 S    
Cu1   N2    2.014577 S    
O3    Cu1   1.938174 S    
C27   C32   1.491127 S    
C12   C18   1.428400 S    
C22   H9    1.081928 S    
C6    C7    1.406089 A    
C8    C9    1.393935 A    
C3    C23   1.445727 S    
C6    H2    1.081066 S    
C17   C18   1.397297 A    
O4    C2    1.297642 A    
O7    C4    1.298180 A    
C9    C10   1.396982 A    
O3    C2    1.297515 A    
C23   C24   1.391628 A    
C19   C26   1.494722 S    
N1    C28   1.369116 A    
C21   C22   1.402243 A    
C20   C21   1.421877 A    
N2    C30   1.363600 A    
C1    C20   1.453872 S    
Cu2   O6    1.961734 S    
C17   H8    1.083671 S    
C26   H12   1.112342 S    
C13   H5    1.083670 S    
Cu1   O5    1.961313 S    
O5    C3    1.290924 A    
C9    H4    1.083677 S    
C5    C10   1.396950 A    
C32   H18   1.109536 S    
C2    C15   1.471094 S    
C25   H10   1.112367 S    
C27   N1    1.364470 A    
C31   C32   1.517769 S    
O1    Cu1   1.961734 S    
C27   C30   1.404993 A    
C31   H16   1.109152 S    
C4    C7    1.472622 S    
C15   C16   1.406207 A    
O2    Cu2   1.961313 S    
C25   C26   1.519293 S    
C5    H1    1.083685 S    
C16   H7    1.083003 S    
O8    C4    1.297841 A    
O1    C1    1.294954 A    
O6    C3    1.292030 A    
N3    O10   1.301661 A    
