data_mof_unit_33511.cif
_audit_creation_date              2013-03-05T16:40:14-0500
_audit_creation_method            fapswitch 2.2
_symmetry_space_group_name_H-M    P1
_symmetry_Int_Tables_number       1
_space_group_crystal_system       triclinic
_cell_length_a                    19.225913
_cell_length_b                    18.485845
_cell_length_c                    8.907403
_cell_angle_alpha                 90.108363
_cell_angle_beta                  90.690669
_cell_angle_gamma                 89.879737
_cell_volume                      3165.51309456

loop_
_atom_site_label
_atom_site_type_symbol
_atom_site_description
_atom_site_fract_x
_atom_site_fract_y
_atom_site_fract_z
_atom_type_partial_charge
O1    O     O_R   0.398180 0.560840 0.499960 -0.573539
O2    O     O_R   0.601820 0.439160 0.500040 -0.616521
O3    O     O_R   0.601820 0.560840 0.500040 -0.578395
O4    O     O_R   0.398180 0.439160 0.499960 -0.622093
C1    C     C_R   0.365673 0.500104 0.497337 0.855311
C2    C     C_R   0.634526 0.500100 0.496909 0.857350
O5    O     O_R   0.500000 0.560800 0.285330 -0.622827
O6    O     O_R   0.500000 0.439200 0.714670 -0.548534
O7    O     O_R   0.500000 0.560800 0.714670 -0.618152
O8    O     O_R   0.500000 0.439200 0.285330 -0.548605
C3    C     C_R   0.499857 0.499965 0.218459 0.929388
C4    C     C_R   0.500131 0.500050 0.781539 0.936502
Zn1   Zn    Zn3+2 0.500000 0.581210 0.500000 1.008825
Zn2   Zn    Zn3+2 0.500000 0.418790 0.500000 1.032447
C5    C     C_1   0.499940 0.499975 0.065344 -0.185217
C6    C     C_1   0.500043 0.500099 0.934660 -0.187573
C7    C     C_R   0.742934 0.566818 0.446551 -0.184673
C8    C     C_R   0.258775 0.557675 0.401356 -0.186379
C9    C     C_R   0.251182 0.443233 0.534376 -0.236311
C10   C     C_R   0.748313 0.437020 0.486921 -0.235022
H1    H     H_    0.714060 0.617022 0.437181 0.191093
H2    H     H_    0.288976 0.601703 0.355899 0.208496
H3    H     H_    0.275440 0.398977 0.595084 0.155522
H4    H     H_    0.723666 0.385800 0.508613 0.152850
C11   C     C_R   0.814079 0.568164 0.424335 -0.108877
C12   C     C_R   0.187366 0.557641 0.379313 -0.113394
C13   C     C_R   0.179515 0.443916 0.514513 -0.114317
C14   C     C_R   0.819732 0.438643 0.467657 -0.117726
H5    H     H_    0.839267 0.619063 0.399440 0.164176
H6    H     H_    0.162846 0.601811 0.318902 0.135473
H7    H     H_    0.148691 0.400899 0.562055 0.124977
H8    H     H_    0.849466 0.389059 0.479015 0.155778
C15   C     C_R   0.852688 0.504284 0.437059 0.245352
C16   C     C_R   0.147816 0.501200 0.437274 0.303500
C17   C     C_R   0.709662 0.501226 0.478966 -0.047442
C18   C     C_R   0.290795 0.500606 0.479384 -0.044610
C19   C     C_R   0.965352 0.552127 0.527950 0.366346
C20   C     C_R   0.036040 0.457873 0.332674 0.373618
C21   C     C_R   0.037934 0.554334 0.521486 0.366805
C22   C     C_R   0.963210 0.461649 0.327040 0.367444
C23   C     C_R   0.072614 0.505100 0.428357 -0.296597
C24   C     C_R   0.928214 0.506788 0.428674 -0.297071
C25   C     C_R   0.548141 0.726035 0.584716 0.455922
C26   C     C_R   0.465679 0.274133 0.387806 0.468122
C27   C     C_R   0.451919 0.725936 0.414850 0.469607
C28   C     C_R   0.532977 0.273671 0.613251 0.471757
C29   C     C_R   0.551650 0.802804 0.579625 0.094837
C30   C     C_R   0.467444 0.197297 0.380881 0.099400
C31   C     C_R   0.448261 0.802708 0.419612 0.097600
C32   C     C_R   0.530737 0.196823 0.618742 0.101284
C33   C     C_R   0.499906 0.841876 0.499546 -0.279718
C34   C     C_R   0.499275 0.157959 0.499254 -0.276135
N1    N     N_R   0.500000 0.689440 0.500000 -0.199043
N2    N     N_R   0.500000 0.310560 0.500000 -0.202275
C35   C     C_R   0.455192 0.961932 0.594220 -0.079824
C36   C     C_R   0.543481 0.037818 0.403327 -0.074227
C37   C     C_R   0.544059 0.961725 0.404321 -0.079696
C38   C     C_R   0.455322 0.038018 0.594770 -0.073932
H9    H     H_    0.420634 0.933304 0.668501 0.154295
H10   H     H_    0.577863 0.066430 0.328639 0.161037
H11   H     H_    0.578774 0.932930 0.330186 0.154146
H12   H     H_    0.420827 0.066788 0.669426 0.160974
C39   C     C_R   0.499291 0.076785 0.498946 0.260640
C40   C     C_R   0.499752 0.922994 0.499418 0.265813
O9    O     O_3   0.930510 0.595097 0.629933 -0.585348
C41   C     C_3   0.927200 0.557822 0.767477 -0.259143
H13   H     H_    0.980027 0.548840 0.816359 0.184835
H14   H     H_    0.899263 0.505425 0.754767 0.139261
H15   H     H_    0.897643 0.591402 0.848058 0.188432
O10   O     O_3   0.072446 0.412877 0.236765 -0.587784
C42   C     C_3   0.063932 0.340202 0.281311 -0.222434
H16   H     H_    0.013765 0.318281 0.238601 0.212930
H17   H     H_    0.067834 0.332986 0.405291 0.122689
H18   H     H_    0.106054 0.307480 0.230748 0.179909
O11   O     O_3   0.075889 0.598052 0.618741 -0.586423
C43   C     C_3   0.070231 0.670673 0.571372 -0.193352
H19   H     H_    0.019085 0.694024 0.602057 0.208468
H20   H     H_    0.078780 0.676870 0.448605 0.128327
H21   H     H_    0.110934 0.702726 0.630348 0.191517
O12   O     O_3   0.925966 0.418546 0.227915 -0.591786
C44   C     C_3   0.919454 0.455571 0.090416 -0.279515
H22   H     H_    0.971171 0.464348 0.038852 0.182697
H23   H     H_    0.891647 0.508025 0.104310 0.146637
H24   H     H_    0.888226 0.421895 0.011627 0.184105
O13   O     O_3   0.594669 0.686832 0.671825 -0.542455
C45   C     C_3   0.576323 0.693682 0.824373 -0.188531
H25   H     H_    0.519407 0.687044 0.842407 0.124332
H26   H     H_    0.593777 0.746376 0.871165 0.189574
H27   H     H_    0.603282 0.650526 0.889150 0.171119
O14   O     O_3   0.430094 0.313482 0.279713 -0.533447
C46   C     C_3   0.357935 0.308625 0.306109 -0.171516
H28   H     H_    0.344889 0.312973 0.427378 0.124027
H29   H     H_    0.336439 0.257542 0.259432 0.187543
H30   H     H_    0.331481 0.354017 0.247257 0.178613
O15   O     O_3   0.405571 0.686623 0.327661 -0.556962
C47   C     C_3   0.423794 0.693272 0.175075 -0.215070
H31   H     H_    0.480751 0.686829 0.156903 0.129649
H32   H     H_    0.405890 0.745794 0.128294 0.195556
H33   H     H_    0.397126 0.649884 0.110404 0.172209
O16   O     O_3   0.566551 0.312729 0.724900 -0.535470
C48   C     C_3   0.639252 0.303176 0.713867 -0.174168
H34   H     H_    0.657050 0.292065 0.597359 0.107078
H35   H     H_    0.657043 0.258891 0.788965 0.204947
H36   H     H_    0.665128 0.353493 0.753008 0.161927
N3    N     N_R   0.607837 0.839942 0.654828 0.226895
O17   O     O_R   0.595966 0.897018 0.736380 -0.354753
O18   O     O_R   0.670851 0.814363 0.648724 -0.338243
N4    N     N_R   0.436348 0.160266 0.254677 0.228756
O19   O     O_R   0.397405 0.103686 0.274627 -0.361511
O20   O     O_R   0.442953 0.185941 0.119723 -0.287551
N5    N     N_R   0.391985 0.839757 0.344293 0.226965
O21   O     O_R   0.403745 0.896495 0.262254 -0.356078
O22   O     O_R   0.329015 0.814362 0.350673 -0.346641
N6    N     N_R   0.560199 0.159177 0.745616 0.225453
O23   O     O_R   0.601289 0.103999 0.726334 -0.360085
O24   O     O_R   0.548683 0.182157 0.881206 -0.294143

loop_
_geom_bond_atom_site_label_1
_geom_bond_atom_site_label_2
_geom_bond_distance
_ccdc_geom_bond_type
C38   H12   1.082915 S    
C41   H14   1.113454 S    
C20   O10   1.385976 S    
C48   H34   1.115228 S    
C35   H9    1.082906 S    
N4    O19   1.301271 A    
O15   C47   1.413300 S    
C8    C12   1.384512 A    
C43   H21   1.109182 S    
O3    C2    1.286176 A    
C1    C18   1.446545 S    
N6    O23   1.301238 A    
C21   C23   1.403204 A    
O13   C45   1.413335 S    
C36   C37   1.406713 A    
O5    C3    1.271582 A    
N3    O18   1.301293 A    
O1    C1    1.286169 A    
C15   C24   1.455705 S    
C43   H20   1.113932 S    
C30   C34   1.414417 A    
C9    C18   1.399699 A    
C45   H26   1.109801 S    
C41   H15   1.109104 S    
C5    C6    1.164086 T    
C47   H33   1.109459 S    
C2    C17   1.455494 S    
C19   C24   1.406676 A    
O7    Zn1   1.949720 S    
C10   C17   1.400455 A    
C3    C5    1.363883 S    
C25   N1    1.366589 A    
C10   H4    1.078502 S    
C31   C33   1.414618 A    
C47   H32   1.109714 S    
C32   C34   1.413588 A    
C22   O12   1.382634 S    
O10   C42   1.411954 S    
C21   O11   1.385867 S    
C9    C13   1.387088 A    
O3    Zn1   1.992690 S    
C31   N5    1.439068 S    
C22   C24   1.406412 A    
C41   H13   1.112477 S    
C27   N1    1.366517 A    
C48   H35   1.109055 S    
C47   H31   1.114970 S    
O2    C2    1.291801 A    
C16   C23   1.448697 S    
C44   H23   1.113695 S    
C12   C16   1.395766 A    
C44   H22   1.112612 S    
Zn1   N1    2.000721 S    
C13   C16   1.398582 A    
C11   H5    1.083650 S    
C13   H7    1.082681 S    
C25   O13   1.382063 S    
C4    C6    1.363931 S    
C14   H8    1.083497 S    
C43   H19   1.110065 S    
C20   C23   1.402972 A    
O8    Zn2   1.949721 S    
C46   H28   1.114581 S    
C42   H17   1.114226 S    
C45   H25   1.114963 S    
O12   C44   1.408294 S    
C29   C33   1.414910 A    
C10   C14   1.386221 A    
C29   N3    1.439056 S    
C45   H27   1.109426 S    
C7    H1    1.083254 S    
C36   H10   1.082910 S    
C19   O9    1.383682 S    
C32   N6    1.438120 S    
C9    H3    1.083162 S    
O11   C43   1.411547 S    
C46   H29   1.109685 S    
C27   C31   1.421357 A    
O6    C4    1.271831 A    
C35   C40   1.406304 A    
C28   N2    1.367478 A    
C36   C39   1.406652 A    
N5    O22   1.301325 A    
Zn2   N2    2.000721 S    
C14   C15   1.398848 A    
C12   H6    1.082801 S    
C48   H36   1.109398 S    
O1    Zn1   1.994242 S    
C27   O15   1.381747 S    
C44   H24   1.109182 S    
C26   O14   1.381622 S    
C37   C40   1.406426 A    
C38   C39   1.406762 A    
C28   O16   1.382295 S    
O6    Zn2   1.948320 S    
N5    O21   1.301189 A    
C8    H2    1.082786 S    
C33   C40   1.499534 S    
O4    C1    1.287306 A    
C34   C39   1.500563 S    
C42   H18   1.109189 S    
N6    O24   1.300873 A    
C37   H11   1.082892 S    
N3    O17   1.301181 A    
C28   C32   1.422308 A    
C7    C11   1.384716 A    
C42   H16   1.109683 S    
C19   C21   1.398034 A    
C46   H30   1.109510 S    
C20   C22   1.402118 A    
O14   C46   1.412983 S    
C30   N4    1.439561 S    
C8    C18   1.401698 A    
O16   C48   1.413060 S    
N4    O20   1.300962 A    
O4    Zn2   1.992690 S    
O2    Zn2   1.994242 S    
O7    C4    1.272164 A    
O8    C3    1.272427 A    
C26   N2    1.367843 A    
O5    Zn1   1.948321 S    
O9    C41   1.408953 S    
C35   C38   1.406524 A    
C7    C17   1.404203 A    
C25   C29   1.421726 A    
C26   C30   1.421963 A    
C11   C15   1.397545 A    
