data_mof_unit_23660.cif
_audit_creation_date              2012-12-10T20:49:08-0500
_audit_creation_method            fapswitch 2.2
_symmetry_space_group_name_H-M    P1
_symmetry_Int_Tables_number       1
_space_group_crystal_system       triclinic
_cell_length_a                    8.954111
_cell_length_b                    8.170619
_cell_length_c                    10.61054
_cell_angle_alpha                 88.010734
_cell_angle_beta                  90.069006
_cell_angle_gamma                 89.222412
_cell_volume                      775.733427091

loop_
_atom_site_label
_atom_site_type_symbol
_atom_type_description
_atom_site_fract_x
_atom_site_fract_y
_atom_site_fract_z
_atom_type_partial_charge
C1    C     C_R   0.218214 0.500759 0.498586 0.924004
C2    C     C_3   0.628940 0.558091 0.041668 0.013135
C3    C     C_3   0.504188 0.496597 0.877839 -0.208062
C4    C     C_3   0.495807 0.503406 0.122158 -0.208086
C5    C     C_1   0.065186 0.501037 0.499332 -0.167124
C6    C     C_1   0.934814 0.498960 0.500695 -0.167200
C7    C     C_3   0.228223 0.368145 0.906298 -0.326036
C8    C     C_3   0.136321 0.491987 0.826477 -0.785858
C9    C     C_3   0.771759 0.631853 0.093725 -0.326024
C10   C     C_3   0.863633 0.507986 0.173558 -0.785660
C11   C     C_R   0.781785 0.499240 0.501422 0.923974
C12   C     C_R   0.495600 0.502000 0.256962 0.935859
C13   C     C_R   0.504401 0.498001 0.743037 0.935857
C14   C     C_3   0.385254 0.597419 0.035420 0.147060
C15   C     C_3   0.614742 0.402585 0.964579 0.147100
C16   C     C_3   0.519316 0.653129 0.953416 0.151683
C17   C     C_3   0.480679 0.346877 0.046582 0.151659
C18   C     C_3   0.371054 0.441915 0.958329 0.013144
H1    H     H_    0.067574 0.570301 0.887490 0.278664
H2    H     H_    0.740109 0.736949 0.152269 0.242297
H3    H     H_    0.208208 0.571266 0.766221 0.254826
H4    H     H_    0.059759 0.425773 0.764547 0.257198
H5    H     H_    0.259834 0.263013 0.847769 0.242337
H6    H     H_    0.158982 0.320986 0.985978 0.239542
H7    H     H_    0.791702 0.428555 0.233711 0.254800
H8    H     H_    0.932576 0.429799 0.112573 0.278634
H9    H     H_    0.939963 0.574202 0.235642 0.257113
H10   H     H_    0.841023 0.679050 0.014072 0.239552
I1    I     I_    0.202531 0.741230 0.102132 -0.338275
I2    I     I_    0.797480 0.258771 0.897909 -0.338309
I3    I     I_    0.565600 0.889133 0.869442 -0.238693
I4    I     I_    0.434399 0.110870 0.130553 -0.238711
N1    N     N_1   0.500000 0.073640 0.500000 0.004546
N2    N     N_1   0.500000 0.926360 0.500000 0.004547
O1    O     O_R   0.285350 0.636850 0.500000 -0.609285
O2    O     O_R   0.714650 0.363150 0.500000 -0.609286
O3    O     O_R   0.714650 0.636850 0.500000 -0.610483
O4    O     O_R   0.285350 0.363150 0.500000 -0.610471
O5    O     O_R   0.499970 0.636850 0.313950 -0.600337
O6    O     O_R   0.500030 0.363150 0.686050 -0.600340
O7    O     O_R   0.500030 0.636850 0.686050 -0.607606
O8    O     O_R   0.499970 0.363150 0.313950 -0.607615
Zn1   Zn    Zn3+2 0.500000 0.682780 0.500000 1.042967
Zn2   Zn    Zn3+2 0.500000 0.317220 0.500000 1.042965

loop_
_geom_bond_atom_site_label_1
_geom_bond_atom_site_label_2
_ccdc_geom_bond_type
C10   H9    S    
O3    Zn1   S    
C8    H4    S    
O4    Zn2   S    
C4    C12   S    
C2    C16   S    
C9    C10   S    
C14   C18   S    
C9    H2    S    
C2    C4    S    
C3    C13   S    
C7    C18   S    
O1    Zn1   S    
C10   H8    S    
C12   O5    A    
C13   O7    A    
C17   C18   S    
C7    C8    S    
C16   I3    S    
C2    C15   S    
O7    Zn1   S    
C7    H5    S    
O8    Zn2   S    
C1    O4    A    
C15   I2    S    
C1    C5    S    
C4    C17   S    
C10   H7    S    
C11   O2    A    
N1    N2    T    
C4    C14   S    
C5    C6    T    
C14   C16   S    
O2    Zn2   S    
C8    H1    S    
N2    Zn1   S    
C14   I1    S    
C7    H6    S    
O6    Zn2   S    
C3    C15   S    
C1    O1    A    
C3    C18   S    
C15   C17   S    
C6    C11   S    
C11   O3    A    
C17   I4    S    
C13   O6    A    
C12   O8    A    
O5    Zn1   S    
C2    C9    S    
C3    C16   S    
C9    H10   S    
N1    Zn2   S    
C8    H3    S    
