data_mof_unit_46386.cif
_audit_creation_date              2013-03-05T16:06:41-0500
_audit_creation_method            fapswitch 2.2
_symmetry_space_group_name_H-M    P1
_symmetry_Int_Tables_number       1
_space_group_crystal_system       triclinic
_cell_length_a                    10.779345
_cell_length_b                    9.646905
_cell_length_c                    15.131696
_cell_angle_alpha                 89.8627
_cell_angle_beta                  92.927514
_cell_angle_gamma                 89.781338
_cell_volume                      1571.43423086

loop_
_atom_site_label
_atom_site_type_symbol
_atom_site_description
_atom_site_fract_x
_atom_site_fract_y
_atom_site_fract_z
_atom_type_partial_charge
O1    O     O_R   0.319640 0.618740 0.499990 -0.619183
O2    O     O_R   0.680360 0.381260 0.500010 -0.616193
O3    O     O_R   0.680360 0.618740 0.500010 -0.571489
O4    O     O_R   0.319640 0.381260 0.499990 -0.545217
N1    N     N_R   0.500000 0.852070 0.500000 -0.256503
N2    N     N_R   0.500000 0.147930 0.500000 -0.262269
C1    C     C_R   0.262955 0.500058 0.499126 0.835366
C2    C     C_R   0.737071 0.499915 0.500926 0.827801
O5    O     O_R   0.499990 0.618780 0.371460 -0.599881
O6    O     O_R   0.500010 0.381220 0.628540 -0.595674
O7    O     O_R   0.500010 0.618780 0.628540 -0.613897
O8    O     O_R   0.499990 0.381220 0.371460 -0.613644
C3    C     C_R   0.500382 0.500003 0.330183 0.815356
C4    C     C_R   0.500516 0.499798 0.669735 0.811509
Cu1   Cu    Cu3+1 0.500000 0.640660 0.500000 0.963241
Cu2   Cu    Cu3+1 0.500000 0.359340 0.500000 0.972896
C5    C     C_R   0.421517 0.075609 0.443086 0.036138
C6    C     C_R   0.581268 0.925293 0.555183 0.052964
C7    C     C_R   0.575759 0.073455 0.558926 0.074344
C8    C     C_R   0.423458 0.927033 0.441033 0.079540
C9    C     C_R   0.071758 0.459423 0.577173 -0.070106
C10   C     C_R   0.928342 0.540274 0.422822 -0.078543
C11   C     C_R   0.941492 0.461874 0.578431 -0.003557
C12   C     C_R   0.058598 0.537299 0.421433 0.001120
C13   C     C_R   0.474449 0.620015 0.093573 -0.140615
C14   C     C_R   0.459578 0.382377 0.903079 -0.132220
C15   C     C_R   0.547389 0.613606 0.905962 -0.144319
C16   C     C_R   0.532570 0.376908 0.096904 -0.132528
H1    H     H_    0.449712 0.714411 0.057934 0.143516
H2    H     H_    0.423355 0.292753 0.936236 0.146359
H3    H     H_    0.584361 0.702883 0.941473 0.145686
H4    H     H_    0.557794 0.282159 0.063943 0.142672
C17   C     C_R   0.474984 0.620928 0.185365 -0.119880
C18   C     C_R   0.459421 0.382608 0.811191 -0.129082
C19   C     C_R   0.544987 0.614813 0.814095 -0.115188
C20   C     C_R   0.530842 0.377317 0.188731 -0.173105
H5    H     H_    0.452929 0.716338 0.218349 0.193870
H6    H     H_    0.424394 0.292689 0.775306 0.186371
H7    H     H_    0.578795 0.705461 0.780736 0.156139
H8    H     H_    0.553455 0.282453 0.224562 0.155999
C21   C     C_R   0.502057 0.499480 0.233571 -0.022123
C22   C     C_R   0.501512 0.499143 0.766225 -0.032883
C23   C     C_R   0.503694 0.498139 0.048502 0.097159
C24   C     C_R   0.503888 0.497792 0.951274 0.084257
C25   C     C_R   0.871397 0.500396 0.500793 -0.116916
C26   C     C_R   0.128670 0.499410 0.499211 -0.107727
C27   C     C_2   0.326451 0.151617 0.388331 0.576240
H9    H     H_    0.351469 0.209541 0.330678 0.097629
O9    O     O_2   0.217165 0.143600 0.405236 -0.510330
C28   C     C_2   0.684755 0.852825 0.604812 0.489215
H10   H     H_    0.670970 0.758525 0.640696 0.132183
O10   O     O_2   0.790148 0.898915 0.604951 -0.526062
C29   C     C_2   0.645330 0.145160 0.632292 0.471309
H11   H     H_    0.697234 0.237747 0.621422 0.112011
O11   O     O_2   0.644230 0.100118 0.707755 -0.563473
C30   C     C_2   0.348295 0.855582 0.369736 0.387092
H12   H     H_    0.307306 0.756386 0.379430 0.135222
O12   O     O_2   0.332600 0.907632 0.296343 -0.590216
C31   C     C_2   0.150925 0.424364 0.657921 0.387186
H13   H     H_    0.233666 0.484536 0.674280 0.046729
O13   O     O_2   0.128147 0.324917 0.704284 -0.539747
C32   C     C_2   0.849226 0.575687 0.342161 0.392854
H14   H     H_    0.767071 0.514854 0.325254 0.050035
O14   O     O_2   0.871342 0.676226 0.296575 -0.534031
C33   C     C_2   0.878969 0.433715 0.662121 0.354328
H15   H     H_    0.905807 0.345586 0.703332 0.157437
O15   O     O_2   0.797185 0.510501 0.686394 -0.576306
C34   C     C_2   0.121061 0.563891 0.337453 0.348133
H16   H     H_    0.092961 0.649960 0.294888 0.155236
O16   O     O_2   0.204110 0.487824 0.314342 -0.562235

loop_
_geom_bond_atom_site_label_1
_geom_bond_atom_site_label_2
_geom_bond_distance
_ccdc_geom_bond_type
O4    Cu2   1.954819 S    
C28   O10   1.221458 D    
C23   C24   1.471347 S    
C9    C31   1.491602 S    
C32   H14   1.084267 S    
O1    Cu1   1.956423 S    
C10   C32   1.491031 S    
O2    Cu2   1.956422 S    
C16   C23   1.403878 A    
C19   H7    1.082319 S    
C27   H9    1.081139 S    
C18   C22   1.401571 A    
C8    C30   1.487945 S    
C4    C22   1.459548 S    
C16   C20   1.390598 A    
C12   C26   1.412196 A    
C13   C23   1.403497 A    
C3    C21   1.462952 S    
C28   H10   1.073023 S    
O5    Cu1   1.956945 S    
C17   C21   1.400516 A    
C31   H13   1.084337 S    
C27   O9    1.220880 D    
N1    C8    1.384557 A    
O6    Cu2   1.956945 S    
C29   H11   1.072550 S    
C30   H12   1.068473 S    
N2    C7    1.377018 A    
C7    C29   1.481864 S    
C20   C21   1.402871 A    
C14   C24   1.404280 A    
O4    C1    1.296413 A    
C11   C25   1.412170 A    
C15   H3    1.082717 S    
C30   O12   1.221314 D    
C17   H5    1.079551 S    
C14   H2    1.082686 S    
C33   H15   1.082824 S    
C9    C11   1.405385 A    
C13   H1    1.082719 S    
C11   C33   1.489516 S    
C34   H16   1.082388 S    
O7    C4    1.304694 A    
C10   C12   1.405480 A    
C31   O13   1.220233 D    
N1    Cu1   2.039452 S    
C12   C34   1.490348 S    
C29   O11   1.221428 D    
N2    Cu2   2.039453 S    
Cu1   Cu2   2.713867 S    
C9    C26   1.410808 A    
C1    C26   1.447616 S    
C5    C27   1.476097 S    
C16   H4    1.082722 S    
C5    C8    1.433809 A    
C10   C25   1.410819 A    
O8    C3    1.303867 A    
C6    C28   1.484265 S    
C34   O16   1.220807 D    
O3    C2    1.296764 A    
O6    C4    1.303939 A    
C19   C22   1.400940 A    
N2    C5    1.370075 A    
O5    C3    1.306416 A    
C2    C25   1.448074 S    
C6    C7    1.431681 A    
C20   H8    1.083178 S    
C32   O14   1.220108 D    
N1    C6    1.377118 A    
C15   C19   1.389048 A    
O1    C1    1.299590 A    
O7    Cu1   1.955939 S    
C15   C24   1.404061 A    
C14   C18   1.390329 A    
O2    C2    1.299491 A    
O8    Cu2   1.955939 S    
C13   C17   1.388732 A    
O3    Cu1   1.954818 S    
C33   O15   1.220723 D    
C18   H6    1.083365 S    
