data_mof_unit_5023.cif
_audit_creation_date              2013-03-05T15:50:43-0500
_audit_creation_method            fapswitch 2.2
_symmetry_space_group_name_H-M    P1
_symmetry_Int_Tables_number       1
_space_group_crystal_system       triclinic
_cell_length_a                    10.866716
_cell_length_b                    12.117103
_cell_length_c                    12.826854
_cell_angle_alpha                 91.620018
_cell_angle_beta                  91.262856
_cell_angle_gamma                 88.627679
_cell_volume                      1687.40685577

loop_
_atom_site_label
_atom_site_type_symbol
_atom_site_description
_atom_site_fract_x
_atom_site_fract_y
_atom_site_fract_z
_atom_type_partial_charge
O1    O     O_R   0.506240 0.421700 0.658830 -0.560585
O2    O     O_R   0.491240 0.609310 0.646410 -0.506371
C1    C     C_R   0.487838 0.519763 0.700648 0.932849
O3    O     O_R   0.692710 0.406190 0.506230 -0.665150
O4    O     O_R   0.677700 0.593810 0.493810 -0.556027
C2    C     C_R   0.741729 0.502172 0.498839 0.899710
Zn1   Zn    Zn3+2 0.510020 0.374730 0.508290 1.012058
Zn2   Zn    Zn3+2 0.489980 0.625270 0.491710 1.081590
O5    O     O_R   0.508760 0.390690 0.353590 -0.609244
O6    O     O_R   0.493760 0.578300 0.341170 -0.581684
O7    O     O_R   0.322300 0.406190 0.506190 -0.579588
O8    O     O_R   0.307290 0.593810 0.493770 -0.657615
C3    C     C_R   0.518759 0.481439 0.301581 0.995970
C4    C     C_R   0.257733 0.498123 0.501513 0.906268
C5    C     C_3   0.926211 0.430202 0.586190 -0.473843
H1    H     H_    0.880164 0.349097 0.583983 0.204155
H2    H     H_    0.896718 0.469499 0.661371 0.185149
C6    C     C_3   0.068245 0.410343 0.582934 0.307310
H3    H     H_    0.915903 0.362808 0.392900 0.200958
C7    C     C_3   0.927848 0.453392 0.390677 -0.124455
C8    C     C_3   0.928080 0.624385 0.519817 -0.030526
C9    C     C_3   0.877646 0.505061 0.495770 -0.027132
H4    H     H_    0.887446 0.653565 0.594034 0.246133
C10   C     C_3   0.120547 0.496401 0.503205 -0.073212
C11   C     C_3   0.066939 0.477756 0.387342 0.240530
C12   C     C_3   0.069697 0.616850 0.534983 -0.172265
H5    H     H_    0.109298 0.673181 0.479241 0.195529
H6    H     H_    0.073932 0.558330 0.348997 0.108643
C13   C     C_R   0.554734 0.475944 0.192949 -0.249493
C14   C     C_R   0.481541 0.529649 0.814474 -0.353981
C15   C     C_R   0.497718 0.646370 0.968883 -0.108715
C16   C     C_R   0.463815 0.635082 0.865032 0.404382
C17   C     C_R   0.513147 0.435058 0.875169 0.393178
C18   C     C_R   0.558109 0.452090 0.978057 -0.144706
C19   C     C_R   0.544150 0.557996 0.025486 -0.143418
C20   C     C_R   0.562107 0.571659 0.132928 0.370559
C21   C     C_R   0.588467 0.374034 0.147272 -0.288868
C22   C     C_R   0.606338 0.365764 0.040522 0.519496
H7    H     H_    0.609094 0.303424 0.195189 0.214843
H8    H     H_    0.477068 0.724145 0.008247 0.257334
N1    N     N_R   0.523380 0.207800 0.519350 -0.119327
N2    N     N_R   0.476620 0.792180 0.480650 -0.157309
C23   C     C_R   0.366083 0.956637 0.418493 0.094558
C24   C     C_R   0.384544 0.840012 0.419129 0.294984
C25   C     C_R   0.555970 0.860125 0.540507 0.490308
C26   C     C_R   0.547227 0.977691 0.531542 -0.068470
C27   C     C_R   0.450960 0.025271 0.471664 -0.019627
C28   C     C_R   0.441621 0.142215 0.467607 -0.023753
C29   C     C_R   0.618513 0.164314 0.574315 0.063247
C30   C     C_R   0.631007 0.051033 0.583136 -0.119147
H9    H     H_    0.371185 0.182746 0.422390 0.182966
H10   H     H_    0.684461 0.218255 0.612590 0.161033
H11   H     H_    0.707533 0.026017 0.631671 0.234640
C31   C     C_3   0.857686 0.487791 0.289854 -0.750949
H12   H     H_    0.850592 0.415969 0.234754 0.294672
H13   H     H_    0.762724 0.514157 0.305685 0.227417
H14   H     H_    0.902573 0.554065 0.247884 0.251583
S1    S     S_3+6 0.610019 0.703707 0.183247 0.024192
O9    O     O_2   0.500938 0.781138 0.192647 -0.274474
O10   O     O_2   0.674070 0.697673 0.287329 -0.339871
O11   O     O_3   0.707522 0.756845 0.098951 -0.484399
H15   H     H_    0.777419 0.702948 0.095463 0.352846
S2    S     S_3+6 0.716606 0.266075 0.996446 0.086952
O12   O     O_2   0.658397 0.155421 0.980660 -0.164885
O13   O     O_2   0.772047 0.301359 0.896678 -0.289110
O14   O     O_3   0.829104 0.254447 0.087886 -0.553903
H16   H     H_    0.889251 0.200359 0.057885 0.408724
S3    S     S_3+6 0.370244 0.749047 0.819790 0.050776
O15   O     O_2   0.412888 0.853720 0.873566 -0.209564
O16   O     O_2   0.367811 0.767578 0.704749 -0.294157
O17   O     O_3   0.225920 0.726897 0.857539 -0.577023
H17   H     H_    0.181021 0.798179 0.848209 0.392348
S4    S     S_3+6 0.463832 0.298590 0.837170 0.095712
O18   O     O_2   0.569203 0.233841 0.790360 -0.238014
O19   O     O_2   0.420428 0.240184 0.930989 -0.230292
O20   O     O_3   0.347732 0.299436 0.749240 -0.580902
H18   H     H_    0.340295 0.221588 0.724638 0.383964
C32   C     C_3   0.257054 0.009511 0.360477 -0.833982
H19   H     H_    0.186079 0.952317 0.330721 0.247431
H20   H     H_    0.207256 0.067905 0.413826 0.253549
H21   H     H_    0.291292 0.053112 0.292458 0.259062
C33   C     C_3   0.299402 0.771733 0.350087 -0.681798
H22   H     H_    0.204928 0.778764 0.379721 0.168192
H23   H     H_    0.296970 0.803050 0.269684 0.253200
H24   H     H_    0.323958 0.684836 0.341281 0.286880
S5    S     S_3+6 0.666746 0.813923 0.639936 0.044712
O21   O     O_2   0.791414 0.852773 0.611083 -0.392687
O22   O     O_2   0.631288 0.873997 0.739440 -0.219561
O23   O     O_3   0.689523 0.682054 0.671028 -0.556261
H25   H     H_    0.735007 0.683883 0.738849 0.362737
C34   C     C_3   0.122581 0.424636 0.695926 -0.694100
H26   H     H_    0.116636 0.347516 0.740197 0.275321
H27   H     H_    0.219737 0.449161 0.695305 0.244870
H28   H     H_    0.072635 0.486468 0.744731 0.224281
C35   C     C_3   0.094116 0.287118 0.550265 -0.753941
H29   H     H_    0.052930 0.264364 0.473764 0.260506
H30   H     H_    0.193248 0.264483 0.551126 0.275768
H31   H     H_    0.051711 0.231510 0.606137 0.217196
S6    S     S_3+6 0.150245 0.392847 0.293077 0.013405
O24   O     O_2   0.070612 0.371424 0.197793 -0.241219
O25   O     O_2   0.259425 0.455863 0.260364 -0.328188
O26   O     O_3   0.198987 0.271262 0.337880 -0.600452
H32   H     H_    0.245912 0.237735 0.279258 0.387879
C36   C     C_3   0.894060 0.715038 0.440489 -0.690333
H33   H     H_    0.921895 0.692656 0.360468 0.226839
H34   H     H_    0.795700 0.738453 0.440876 0.316480
H35   H     H_    0.942648 0.792112 0.462848 0.236855
C37   C     C_3   0.111553 0.667979 0.641160 -0.711949
H36   H     H_    0.202639 0.634634 0.665631 0.282862
H37   H     H_    0.118930 0.758875 0.634706 0.263526
H38   H     H_    0.045281 0.655540 0.703893 0.237405

loop_
_geom_bond_atom_site_label_1
_geom_bond_atom_site_label_2
_geom_bond_distance
_ccdc_geom_bond_type
C5    C6    1.557680 S    
C8    C12   1.547746 S    
S2    O13   1.503559 D    
S4    O18   1.499271 D    
C35   H29   1.100209 S    
C36   H34   1.099352 S    
C35   H31   1.112076 S    
C25   C26   1.433149 A    
C15   H8    1.077681 S    
C23   C32   1.523061 S    
Zn1   O7    2.065949 S    
C13   C20   1.414884 A    
C12   H5    1.103418 S    
C6    C10   1.603296 S    
C6    C34   1.559548 S    
C3    C13   1.454763 S    
Zn2   N2    2.032934 S    
C24   C33   1.511267 S    
O4    C2    1.298575 A    
Zn2   O6    1.998606 S    
O7    C4    1.304337 A    
C32   H20   1.110115 S    
C7    C11   1.548690 S    
S1    O10   1.494750 D    
C5    H1    1.112815 S    
C2    C9    1.479646 S    
C37   H36   1.102640 S    
Zn1   O5    1.998865 S    
C18   C19   1.410848 A    
C4    C10   1.492045 S    
O5    C3    1.310115 A    
O1    Zn1   1.998606 S    
C26   C27   1.406179 A    
C8    C36   1.551056 S    
C11   S6    1.809230 S    
C5    C9    1.567170 S    
C27   C28   1.420567 A    
S3    O15   1.504599 D    
C16   S3    1.797129 S    
S1    O11   1.681914 S    
O14   H16   0.990518 S    
S2    O14   1.681627 S    
C18   C22   1.418958 A    
C8    C9    1.578390 S    
C6    C35   1.560050 S    
S4    O19   1.503550 D    
O26   H32   0.990030 S    
N2    C24   1.386735 A    
O3    Zn1   2.031335 S    
N1    C29   1.343952 A    
C36   H33   1.101184 S    
C28   H9    1.068625 S    
C31   H13   1.094511 S    
C30   H11   1.070873 S    
O20   H18   0.990753 S    
C7    C31   1.548978 S    
C12   C37   1.544026 S    
C34   H26   1.111024 S    
C32   H19   1.103846 S    
S1    O9    1.498838 D    
O6    C3    1.290845 A    
C11   H6    1.110517 S    
N2    C25   1.407092 A    
C1    C14   1.464535 S    
C23   C24   1.422791 A    
C21   C22   1.387686 A    
C34   H27   1.103881 S    
S6    O24   1.502057 D    
Zn2   O8    2.031336 S    
C29   H10   1.081932 S    
C17   C18   1.408539 A    
C10   C11   1.596315 S    
C17   S4    1.801242 S    
S6    O25   1.500059 D    
C7    C9    1.573225 S    
C33   H22   1.103122 S    
C33   H23   1.108495 S    
C8    H4    1.103751 S    
S4    O20   1.673678 S    
C15   C19   1.389367 A    
O3    C2    1.297493 A    
C22   S2    1.771001 S    
C5    H2    1.113434 S    
C31   H12   1.108540 S    
C14   C17   1.434432 A    
S5    O21   1.502113 D    
C15   C16   1.378175 A    
O2    Zn2   1.998867 S    
C10   C12   1.593511 S    
O8    C4    1.297291 A    
S5    O23   1.669209 S    
O4    Zn2   2.065948 S    
C35   H30   1.105110 S    
C33   H24   1.083421 S    
C26   C30   1.426718 A    
C20   S1    1.792902 S    
C37   H38   1.107439 S    
H3    C7    1.109580 S    
C25   S5    1.824680 S    
O17   H17   0.990703 S    
C21   H7    1.083755 S    
C34   H28   1.103083 S    
C14   C16   1.427106 A    
C32   H21   1.108393 S    
S3    O17   1.681397 S    
N1    C28   1.356244 A    
C37   H37   1.111775 S    
O2    C1    1.307071 A    
S5    O22   1.504344 D    
Zn1   N1    2.033175 S    
O11   H15   0.990717 S    
S2    O12   1.502829 D    
S6    O26   1.666834 S    
S3    O16   1.498432 D    
C29   C30   1.383671 A    
C13   C21   1.396208 A    
C19   C20   1.393400 A    
O1    C1    1.302661 A    
O23   H25   0.990979 S    
C23   C27   1.408700 A    
C36   H35   1.111311 S    
C31   H14   1.107884 S    
