data_mof_unit_37038.cif
_audit_creation_date              2013-03-05T16:00:37-0500
_audit_creation_method            fapswitch 2.2
_symmetry_space_group_name_H-M    P1
_symmetry_Int_Tables_number       1
_space_group_crystal_system       triclinic
_cell_length_a                    10.761052
_cell_length_b                    14.743703
_cell_length_c                    15.015859
_cell_angle_alpha                 64.385387
_cell_angle_beta                  105.120194
_cell_angle_gamma                 103.42118
_cell_volume                      2054.29552534

loop_
_atom_site_label
_atom_site_type_symbol
_atom_site_description
_atom_site_fract_x
_atom_site_fract_y
_atom_site_fract_z
_atom_type_partial_charge
O1    O     O_R   0.455060 0.022100 0.338110 -0.574753
O2    O     O_R   0.512640 0.160150 0.379180 -0.542586
C1    C     C_R   0.476750 0.120545 0.312308 0.855566
O3    O     O_R   0.288900 0.930980 0.479450 -0.554001
O4    O     O_R   0.346480 0.069030 0.520520 -0.634451
C2    C     C_R   0.259796 0.000704 0.498499 0.797911
Cu1   Cu    Cu3+1 0.465900 0.918260 0.475680 1.034656
Cu2   Cu    Cu3+1 0.534100 0.081740 0.524320 1.046239
O5    O     O_R   0.487360 0.839850 0.620820 -0.574810
O6    O     O_R   0.544940 0.977900 0.661890 -0.559228
O7    O     O_R   0.653520 0.930970 0.479480 -0.598260
O8    O     O_R   0.711100 0.069020 0.520550 -0.537178
C3    C     C_R   0.519468 0.880128 0.687004 0.877857
C4    C     C_R   0.740017 0.000011 0.500400 0.882245
C5    C     C_3   0.039558 0.028866 0.388389 0.129687
H1    H     H_    0.078959 0.108116 0.342937 0.163827
C6    C     C_3   0.894137 0.025275 0.390130 0.065934
H2    H     H_    0.835361 0.962135 0.369142 0.173982
H3    H     H_    0.079044 0.832866 0.554460 0.223598
H4    H     H_    0.864805 0.839849 0.530664 0.135469
C7    C     C_3   0.065770 0.895739 0.571642 -0.369973
C8    C     C_3   0.110775 0.082188 0.533760 -0.453863
C9    C     C_3   0.121440 0.000704 0.497437 -0.080585
H5    H     H_    0.171231 0.068420 0.609808 0.215050
H6    H     H_    0.147361 0.159349 0.482191 0.197590
C10   C     C_3   0.877897 0.000622 0.499340 -0.165647
C11   C     C_3   0.919515 0.892753 0.567191 0.131485
C12   C     C_3   0.969676 0.080162 0.537555 -0.286144
H7    H     H_    0.941146 0.157357 0.493807 0.240738
H8    H     H_    0.964101 0.061533 0.615891 0.264287
H9    H     H_    0.121889 0.881948 0.648858 0.212779
C13   C     C_R   0.451760 0.190126 0.204864 -0.066219
C14   C     C_R   0.513817 0.813986 0.792396 -0.113413
C15   C     C_R   0.364436 0.219234 0.030481 -0.109391
C16   C     C_R   0.395361 0.152476 0.130293 -0.081283
C17   C     C_R   0.477145 0.295853 0.177354 -0.093936
C18   C     C_R   0.433765 0.364790 0.078653 0.108844
C19   C     C_R   0.383529 0.324618 0.004136 0.072167
C20   C     C_R   0.443050 0.472198 0.050732 -0.108694
C21   C     C_R   0.427242 0.537691 0.946902 -0.054088
C22   C     C_R   0.368610 0.494532 0.874417 0.343664
C23   C     C_R   0.349626 0.389349 0.904101 -0.222766
C24   C     C_R   0.463235 0.516775 0.121688 0.248576
C25   C     C_R   0.484897 0.622570 0.092264 0.281686
C26   C     C_R   0.482373 0.687487 0.990652 -0.124430
C27   C     C_R   0.465586 0.644251 0.919413 0.024275
C28   C     C_R   0.496205 0.794962 0.957238 0.382660
C29   C     C_R   0.511964 0.856246 0.858925 -0.185172
C30   C     C_R   0.493836 0.708598 0.823507 -0.080126
H10   H     H_    0.304469 0.357583 0.848393 0.187834
H11   H     H_    0.501209 0.677308 0.772226 0.188247
H12   H     H_    0.516774 0.937538 0.833447 0.213811
H13   H     H_    0.323233 0.188238 0.973812 0.166427
H14   H     H_    0.375196 0.071506 0.148955 0.191117
H15   H     H_    0.534480 0.322683 0.233689 0.214876
N1    N     N_R   0.585360 0.204570 0.560800 -0.275907
N2    N     N_R   0.414550 0.795430 0.439160 -0.218905
C31   C     C_R   0.720718 0.288508 0.665066 -0.240824
C32   C     C_R   0.678141 0.202189 0.643894 0.412367
C33   C     C_R   0.518441 0.286643 0.508271 0.516984
C34   C     C_R   0.546998 0.371696 0.536451 -0.080133
C35   C     C_R   0.658823 0.374790 0.609923 -0.020168
C36   C     C_R   0.470115 0.453404 0.494806 0.083993
C37   C     C_R   0.518998 0.543749 0.512932 0.059759
C38   C     C_R   0.639746 0.547127 0.577900 -0.247568
C39   C     C_R   0.706414 0.462615 0.629455 0.475331
C40   C     C_R   0.342465 0.444766 0.441654 -0.152177
C41   C     C_R   0.271218 0.526013 0.393184 0.378281
C42   C     C_R   0.321702 0.619196 0.403571 0.009433
C43   C     C_R   0.444466 0.627018 0.467249 -0.057479
C44   C     C_R   0.251036 0.703438 0.355559 0.386768
C45   C     C_R   0.302041 0.791283 0.374151 0.018560
C46   C     C_R   0.486101 0.717581 0.484748 0.083752
H16   H     H_    0.573014 0.728101 0.536069 0.147495
H17   H     H_    0.249478 0.855882 0.339372 0.187294
H18   H     H_    0.799612 0.285807 0.727764 0.241048
H19   H     H_    0.684018 0.613639 0.592677 0.143032
H20   H     H_    0.292336 0.373761 0.438706 0.181071
N3    N     N_R   0.052118 0.964349 0.340033 0.120741
O9    O     O_R   0.006573 0.868141 0.373056 -0.366488
O10   O     O_R   0.101340 0.005158 0.258547 -0.346352
N4    N     N_R   0.887965 0.851494 0.668265 0.143775
O11   O     O_R   0.798516 0.773531 0.693953 -0.373661
O12   O     O_R   0.953123 0.887255 0.735031 -0.296400
N5    N     N_R   0.519362 0.662777 0.168415 0.181057
O13   O     O_R   0.637597 0.705229 0.188219 -0.258571
O14   O     O_R   0.435873 0.650223 0.223044 -0.279225
N6    N     N_R   0.309945 0.554234 0.773718 0.112202
O15   O     O_R   0.234958 0.619249 0.758393 -0.328176
O16   O     O_R   0.315078 0.533061 0.699207 -0.370611
N7    N     N_R   0.443969 0.456842 0.222148 0.134485
O17   O     O_R   0.328511 0.410104 0.238307 -0.292273
O18   O     O_R   0.535339 0.462855 0.296490 -0.290187
N8    N     N_R   0.479763 0.843526 0.017294 0.150591
O19   O     O_R   0.560792 0.922554 0.022288 -0.264037
O20   O     O_R   0.369546 0.824033 0.046890 -0.278140
O21   O     O_3   0.820294 0.465072 0.698027 -0.686229
H21   H     H_    0.840592 0.531742 0.703628 0.357957
N9    N     N_R   0.146430 0.510744 0.334111 0.189926
O22   O     O_R   0.133981 0.546160 0.236896 -0.196354
O23   O     O_R   0.055865 0.442646 0.377414 -0.305948
N10   N     N_R   0.726329 0.110366 0.715863 0.145911
O24   O     O_R   0.813280 0.076532 0.697182 -0.331545
O25   O     O_R   0.713914 0.079199 0.808840 -0.325412
O26   O     O_3   0.433236 0.290907 0.422001 -0.641201
H22   H     H_    0.358427 0.239023 0.442125 0.324008
N11   N     N_R   0.843421 0.119342 0.315602 0.123234
O27   O     O_R   0.743952 0.114851 0.245708 -0.320713
O28   O     O_R   0.901598 0.207944 0.313436 -0.317529
O29   O     O_3   0.132196 0.698762 0.293076 -0.619040
H23   H     H_    0.097409 0.764058 0.266650 0.370109

loop_
_geom_bond_atom_site_label_1
_geom_bond_atom_site_label_2
_geom_bond_distance
_ccdc_geom_bond_type
C31   C35   1.393693 A    
C46   H16   1.073620 S    
Cu2   N1    2.029854 S    
O21   H21   0.991584 S    
C31   H18   1.083973 S    
Cu1   Cu2   2.702390 S    
N5    O13   1.301104 A    
C21   C27   1.426933 A    
C7    H9    1.112777 S    
C27   C30   1.406976 A    
C10   C11   1.568287 S    
C6    C10   1.567320 S    
C13   C17   1.406979 A    
C39   O21   1.384445 S    
C17   C18   1.415763 A    
H3    C7    1.110745 S    
C19   C23   1.391582 A    
C42   C43   1.427738 A    
C6    N11   1.471217 S    
O4    C2    1.298140 A    
O7    C4    1.298203 A    
C14   C30   1.395873 A    
C5    H1    1.114597 S    
C44   O29   1.381856 S    
C34   C36   1.438138 A    
C15   C16   1.393617 A    
C22   C23   1.395756 A    
N2    C46   1.354540 A    
C42   C44   1.420882 A    
O5    C3    1.302156 A    
O29   H23   0.991915 S    
O1    Cu1   1.961497 S    
C5    N3    1.469146 S    
N9    O22   1.301121 A    
C41   C42   1.414754 A    
C30   H11   1.080777 S    
C8    H6    1.112785 S    
N11   O27   1.301043 A    
C37   C43   1.436310 A    
C34   C35   1.411645 A    
N8    O20   1.301192 A    
N5    O14   1.300128 A    
C7    C11   1.548857 S    
C8    C12   1.527155 S    
C16   H14   1.083051 S    
N11   O28   1.301423 A    
N8    O19   1.301294 A    
C40   H20   1.074419 S    
O3    Cu1   1.974217 S    
C26   C28   1.423669 A    
C36   C40   1.405288 A    
C38   H19   1.074217 S    
C35   C39   1.402542 A    
N10   O24   1.295224 A    
C13   C16   1.398854 A    
O3    C2    1.298878 A    
N7    O17   1.301027 A    
N3    O10   1.301289 A    
C20   C24   1.425764 A    
C31   C32   1.390626 A    
C26   C27   1.420771 A    
C24   N7    1.423000 S    
N1    C33   1.374015 A    
C33   C34   1.434579 A    
O1    C1    1.309572 A    
Cu1   O7    1.971851 S    
C24   C25   1.404143 A    
C3    C14   1.465421 S    
C18   C19   1.415585 A    
N7    O18   1.301260 A    
C28   C29   1.389477 A    
Cu2   O8    1.974218 S    
C43   C46   1.420169 A    
C6    H2    1.114598 S    
C4    C10   1.485875 S    
C40   C41   1.390639 A    
N10   O25   1.300891 A    
C23   H10   1.084546 S    
C21   C22   1.428943 A    
N9    O23   1.300974 A    
N6    O16   1.301747 A    
C38   C39   1.399201 A    
N4    O12   1.301308 A    
C7    C9    1.556377 S    
C8    H5    1.114341 S    
C25   N5    1.435019 S    
C20   C21   1.424195 A    
C25   C26   1.404515 A    
C5    C6    1.560139 S    
C22   N6    1.438367 S    
C12   H7    1.109810 S    
C15   C19   1.405564 A    
C32   N10   1.427627 S    
C11   N4    1.470865 S    
O2    Cu2   1.955123 S    
O8    C4    1.298399 A    
C36   C37   1.427778 A    
O6    C3    1.302228 A    
O4    Cu2   1.971851 S    
H4    C11   1.115395 S    
O26   H22   0.982701 S    
C10   C12   1.558371 S    
N1    C32   1.372374 A    
C37   C38   1.411816 A    
C12   H8    1.101137 S    
O2    C1    1.303221 A    
C41   N9    1.432368 S    
C44   C45   1.399761 A    
C18   C20   1.438004 A    
C17   H15   1.075393 S    
C45   H17   1.079691 S    
C2    C9    1.484779 S    
C5    C9    1.568225 S    
C28   N8    1.434427 S    
N2    C45   1.350236 A    
C1    C13   1.482682 S    
N3    O9    1.301553 A    
Cu1   O5    1.955123 S    
C29   H12   1.081954 S    
N6    O15   1.301705 A    
C15   H13   1.083909 S    
Cu2   O6    1.961497 S    
N4    O11   1.301280 A    
C14   C29   1.393176 A    
C8    C9    1.554723 S    
Cu1   N2    2.030200 S    
C33   O26   1.363621 S    
