data_mof_unit_60165.cif
_audit_creation_date              2013-03-05T16:51:02-0500
_audit_creation_method            fapswitch 2.2
_symmetry_space_group_name_H-M    P1
_symmetry_Int_Tables_number       1
_space_group_crystal_system       triclinic
_cell_length_a                    13.650054
_cell_length_b                    15.082744
_cell_length_c                    15.824461
_cell_angle_alpha                 89.867681
_cell_angle_beta                  89.965439
_cell_angle_gamma                 83.109308
_cell_volume                      3234.40287029

loop_
_atom_site_label
_atom_site_type_symbol
_atom_site_description
_atom_site_fract_x
_atom_site_fract_y
_atom_site_fract_z
_atom_type_partial_charge
O1    O     O_R   0.500000 0.426350 0.621980 -0.583816
O2    O     O_R   0.500000 0.573650 0.378020 -0.584081
O3    O     O_R   0.499960 0.573690 0.621980 -0.616181
O4    O     O_R   0.500040 0.426310 0.378020 -0.616279
C1    C     C_R   0.499831 0.499910 0.661234 0.894857
C2    C     C_R   0.499869 0.500118 0.338765 0.895069
O5    O     O_R   0.640370 0.415730 0.499980 -0.606805
O6    O     O_R   0.359630 0.584270 0.500020 -0.604008
O7    O     O_R   0.640330 0.563060 0.499980 -0.605593
O8    O     O_R   0.359670 0.436940 0.500020 -0.602898
C3    C     C_R   0.686240 0.484231 0.499972 0.894052
C4    C     C_R   0.313761 0.515769 0.500029 0.900915
Zn1   Zn    Zn3+2 0.500030 0.401620 0.500000 1.009124
Zn2   Zn    Zn3+2 0.499970 0.598380 0.500000 1.009154
C5    C     C_1   0.210185 0.527834 0.500049 -0.156501
C6    C     C_1   0.789819 0.472166 0.499957 -0.160921
C7    C     C_2   0.018890 0.538480 0.500066 -0.149557
C8    C     C_2   0.981116 0.461520 0.499951 -0.149067
C9    C     C_1   0.877439 0.464226 0.499950 0.025147
C10   C     C_1   0.122566 0.535775 0.500062 0.028122
H1    H     H_    0.027223 0.397506 0.499858 0.167876
H2    H     H_    0.972784 0.602495 0.500159 0.167160
C11   C     C_R   0.470072 0.423880 0.046152 -0.290170
C12   C     C_R   0.466877 0.582276 0.953889 -0.289986
H3    H     H_    0.472170 0.362934 0.082960 0.203270
H4    H     H_    0.466507 0.643066 0.917084 0.203457
C13   C     C_R   0.469906 0.505683 0.087274 -0.034154
C14   C     C_R   0.470105 0.500192 0.912765 -0.034150
C15   C     C_R   0.465754 0.586444 0.041821 0.335568
C16   C     C_R   0.469197 0.419892 0.958220 0.335173
C17   C     C_1   0.481356 0.503617 0.175957 0.065611
C18   C     C_1   0.481510 0.500140 0.824072 0.065441
C19   C     C_1   0.491193 0.500309 0.749519 -0.125131
C20   C     C_1   0.491125 0.501548 0.250496 -0.125316
H5    H     H_    0.581331 0.909066 0.616841 0.147565
H6    H     H_    0.418638 0.090937 0.383162 0.148234
C21   C     C_R   0.545552 0.041752 0.565511 -0.133341
C22   C     C_R   0.454417 0.958250 0.434493 -0.133840
H7    H     H_    0.581279 0.072702 0.616869 0.154487
H8    H     H_    0.418690 0.927299 0.383134 0.158204
C23   C     C_R   0.499959 0.094966 0.500019 0.063135
C24   C     C_R   0.500012 0.905037 0.499984 0.061867
C25   C     C_R   0.454390 0.051971 0.434511 -0.148576
C26   C     C_R   0.545578 0.948032 0.565492 -0.148547
C27   C     C_1   0.499958 0.192850 0.500022 0.079158
C28   C     C_1   0.500027 0.807151 0.499978 0.078912
N1    N     N_1   0.500030 0.729450 0.499980 -0.077403
N2    N     N_1   0.499970 0.270550 0.500020 -0.077487
N3    N     N_R   0.469889 0.334649 0.916888 0.217254
O9    O     O_R   0.429890 0.328733 0.842801 -0.370455
O10   O     O_R   0.502194 0.261319 0.956685 -0.364998
N4    N     N_R   0.462906 0.671874 0.083167 0.217636
O11   O     O_R   0.422352 0.685203 0.157211 -0.372554
O12   O     O_R   0.492454 0.739514 0.043405 -0.364635

loop_
_geom_bond_atom_site_label_1
_geom_bond_atom_site_label_2
_geom_bond_distance
_ccdc_geom_bond_type
Zn1   N2    1.976993 S    
C22   H8    1.083106 S    
O7    Zn2   1.926043 S    
Zn2   N1    1.976993 S    
C11   C13   1.395993 A    
C13   C15   1.408454 A    
C8    H1    1.087437 S    
O7    C3    1.275756 A    
C3    C6    1.403698 S    
C7    H2    1.087436 S    
C4    C5    1.403661 S    
C14   C18   1.412026 S    
O6    C4    1.270718 A    
C18   C19   1.187093 T    
C21   C26   1.413514 A    
C14   C16   1.408535 A    
C7    C8    1.325476 D    
C17   C20   1.187048 T    
C22   C25   1.413524 A    
C21   H7    1.083101 S    
O5    C3    1.270727 A    
H5    C26   1.083177 S    
C23   C25   1.408091 A    
O2    C2    1.272617 A    
O3    Zn2   1.965020 S    
C24   C26   1.408082 A    
C6    C9    1.187612 T    
O1    C1    1.272559 A    
O8    C4    1.275749 A    
C16   N3    1.442867 S    
N4    O12   1.301857 A    
C22   C24   1.408065 A    
C11   H3    1.084582 S    
C21   C23   1.408060 A    
C5    C10   1.187598 T    
O2    Zn2   1.966812 S    
O1    Zn1   1.966812 S    
C13   C17   1.411981 S    
C11   C16   1.393041 A    
C12   C14   1.396010 A    
O5    Zn1   1.952646 S    
C7    C10   1.410865 S    
N4    O11   1.301292 A    
O4    C2    1.273317 A    
N3    O9    1.301347 A    
C24   C28   1.476362 S    
C27   N2    1.171940 T    
O4    Zn1   1.965020 S    
C23   C27   1.476364 S    
C28   N1    1.171938 T    
C8    C9    1.410878 S    
H6    C25   1.083177 S    
O6    Zn2   1.952645 S    
O3    C1    1.273369 A    
C12   C15   1.393031 A    
C15   N4    1.442815 S    
C2    C20   1.401882 S    
C12   H4    1.084581 S    
N3    O10   1.301698 A    
O8    Zn1   1.926043 S    
C1    C19   1.401913 S    
