data_mof_unit_39980.cif
_audit_creation_date              2012-12-10T17:24:13-0500
_audit_creation_method            fapswitch 2.2
_symmetry_space_group_name_H-M    P1
_symmetry_Int_Tables_number       1
_space_group_crystal_system       triclinic
_cell_length_a                    19.355987
_cell_length_b                    10.779522
_cell_length_c                    9.603762
_cell_angle_alpha                 90.030992
_cell_angle_beta                  90.030347
_cell_angle_gamma                 92.549052
_cell_volume                      2001.82515213

loop_
_atom_site_label
_atom_site_type_symbol
_atom_type_description
_atom_site_fract_x
_atom_site_fract_y
_atom_site_fract_z
_atom_type_partial_charge
C1    C     C_R   0.497574 0.262584 0.500004 0.795552
C2    C     C_R   0.291610 0.501603 0.500099 -0.028458
C3    C     C_R   0.930124 0.509281 0.500229 0.418352
C4    C     C_R   0.070270 0.507892 0.500263 0.410986
C5    C     C_R   0.817204 0.508076 0.626335 -0.145170
C6    C     C_R   0.745173 0.505728 0.626278 -0.181266
C7    C     C_R   0.708497 0.503751 0.500076 -0.036850
C8    C     C_R   0.745144 0.505094 0.373933 -0.152008
C9    C     C_R   0.817171 0.507408 0.373990 -0.133820
C10   C     C_R   0.853937 0.508564 0.500192 0.048130
C11   C     C_R   0.387750 0.120451 0.647014 -0.185191
C12   C     C_R   0.367557 0.499992 0.500027 0.759731
C13   C     C_R   0.336643 0.051439 0.718783 -0.134855
C14   C     C_R   0.336753 0.922429 0.718984 -0.127237
C15   C     C_R   0.387984 0.861608 0.647460 -0.168901
C16   C     C_R   0.441110 0.929652 0.575886 0.102320
C17   C     C_R   0.440992 0.060898 0.575710 0.099367
C18   C     C_R   0.492837 0.128394 0.499847 -0.110651
C19   C     C_R   0.541409 0.067339 0.420946 -0.176428
C20   C     C_R   0.541523 0.939370 0.421082 -0.191405
C21   C     C_R   0.493055 0.870498 0.500087 -0.104066
C22   C     C_R   0.592166 0.664670 0.144071 -0.260200
C23   C     C_R   0.497882 0.737094 0.500049 0.776541
C24   C     C_R   0.637368 0.744916 0.071999 0.600663
C25   C     C_R   0.637307 0.744950 0.928490 -0.276589
C26   C     C_R   0.592097 0.664798 0.856233 -0.256758
C27   C     C_R   0.545253 0.581002 0.925298 0.217606
C28   C     C_R   0.545269 0.580937 0.074834 0.138495
C29   C     C_R   0.456871 0.423064 0.073776 -0.046905
C30   C     C_R   0.456891 0.423081 0.925919 -0.055976
C31   C     C_R   0.632458 0.501020 0.500001 0.777977
C32   C     C_R   0.255152 0.505204 0.626273 -0.203319
C33   C     C_R   0.183231 0.507444 0.626350 -0.156060
C34   C     C_R   0.146390 0.506120 0.500243 0.059417
C35   C     C_R   0.182950 0.502575 0.374078 -0.155508
C36   C     C_R   0.254865 0.500335 0.374016 -0.180193
Cu1   Cu    Cu3+1 0.500000 0.499990 0.640660 0.933627
Cu2   Cu    Cu3+1 0.500000 0.500010 0.359340 0.942827
H1    H     H_    0.282112 0.506466 0.725152 0.149339
H2    H     H_    0.384053 0.220196 0.645915 0.137694
H3    H     H_    0.296223 0.098264 0.772874 0.137342
H4    H     H_    0.296415 0.869121 0.773218 0.140161
H5    H     H_    0.384466 0.761311 0.646883 0.152810
H6    H     H_    0.580708 0.893810 0.361722 0.183490
H7    H     H_    0.421502 0.359962 0.128824 0.132820
H8    H     H_    0.596364 0.672535 0.253792 0.213924
H9    H     H_    0.672532 0.807660 0.872266 0.186714
H10   H     H_    0.596326 0.672866 0.746498 0.225183
H11   H     H_    0.156608 0.510198 0.725357 0.153592
H12   H     H_    0.421535 0.359985 0.870681 0.129110
H13   H     H_    0.156106 0.501417 0.275110 0.153590
H14   H     H_    0.281592 0.497605 0.275083 0.150286
H15   H     H_    0.843991 0.509145 0.725364 0.159245
H16   H     H_    0.718308 0.505314 0.725198 0.161503
H17   H     H_    0.718260 0.504189 0.274967 0.160072
H18   H     H_    0.843929 0.508000 0.274997 0.159002
H19   H     H_    0.580500 0.119276 0.361459 0.168087
N1    N     N_R   0.034482 0.507057 0.378679 -0.235580
N2    N     N_R   0.965794 0.507731 0.378662 -0.232696
N3    N     N_R   0.965917 0.510356 0.621820 -0.234187
N4    N     N_R   0.034610 0.509700 0.621837 -0.236828
N5    N     N_R   0.500660 0.501210 0.147910 -0.181004
N6    N     N_R   0.500680 0.501290 0.852040 -0.185512
O1    O     O_R   0.499990 0.319640 0.618810 -0.573192
O2    O     O_R   0.500000 0.319660 0.381240 -0.572484
O3    O     O_R   0.400140 0.499970 0.618820 -0.596785
O4    O     O_R   0.400150 0.500000 0.381250 -0.578487
O5    O     O_R   0.500000 0.680340 0.618760 -0.597144
O6    O     O_R   0.500010 0.680360 0.381190 -0.586751
O7    O     O_R   0.599850 0.500000 0.618750 -0.593197
O8    O     O_R   0.599860 0.500030 0.381180 -0.596078
F1    F     F_    0.681565 0.823407 0.142489 -0.667818

loop_
_geom_bond_atom_site_label_1
_geom_bond_atom_site_label_2
_ccdc_geom_bond_type
C23   O5    A    
C26   C27   A    
C1    O2    A    
C24   C25   A    
Cu1   O5    S    
C16   C21   A    
Cu1   O7    S    
C3    N2    A    
C9    C10   A    
C25   H9    S    
C19   C20   A    
C36   H14   S    
Cu2   O2    S    
C26   H10   S    
C14   H4    S    
C2    C12   S    
C32   C33   A    
C31   O7    A    
C13   H3    S    
C17   C18   A    
C30   H12   S    
Cu2   O6    S    
C15   H5    S    
C7    C8    A    
C9    H18   S    
C22   C28   A    
C13   C14   A    
Cu2   O4    S    
C11   C13   A    
C1    C18   S    
C29   C30   A    
C27   N6    A    
C6    H16   S    
C5    C6    A    
C8    H17   S    
C31   O8    A    
Cu1   N6    S    
Cu1   Cu2   S    
C33   C34   A    
C6    C7    A    
C4    C34   S    
C21   C23   S    
Cu1   O3    S    
C35   H13   S    
C11   H2    S    
C12   O4    A    
C22   C24   A    
N1    N2    A    
C7    C31   S    
C4    N1    A    
C33   H11   S    
C15   C16   A    
C22   H8    S    
C1    O1    A    
C5    C10   A    
Cu1   O1    S    
C20   C21   A    
C24   F1    S    
C2    C32   A    
C34   C35   A    
C32   H1    S    
C2    C36   A    
C27   C28   A    
C3    C10   S    
C23   O6    A    
C29   N5    A    
C18   C19   A    
C5    H15   S    
C14   C15   A    
C20   H6    S    
C25   C26   A    
C30   N6    A    
C3    N3    A    
C12   O3    A    
C4    N4    A    
C19   H19   S    
N3    N4    A    
C11   C17   A    
Cu2   O8    S    
C16   C17   A    
C29   H7    S    
C8    C9    A    
Cu2   N5    S    
C35   C36   A    
C28   N5    A    
