data_mof_unit_30650.cif
_audit_creation_date              2012-12-11T15:22:17-0500
_audit_creation_method            fapswitch 2.2
_symmetry_space_group_name_H-M    P1
_symmetry_Int_Tables_number       1
_space_group_crystal_system       triclinic
_cell_length_a                    22.454179
_cell_length_b                    12.99322
_cell_length_c                    26.994218
_cell_angle_alpha                 89.999648
_cell_angle_beta                  90.611096
_cell_angle_gamma                 90.000011
_cell_volume                      7875.17151175

loop_
_atom_site_label
_atom_site_type_symbol
_atom_type_description
_atom_site_fract_x
_atom_site_fract_y
_atom_site_fract_z
_atom_type_partial_charge
C1    C     C_R   0.720608 0.345114 0.178196 0.542743
C2    C     C_R   0.279390 0.345118 0.821803 0.542732
C3    C     C_R   0.220608 0.845113 0.178195 0.542738
C4    C     C_R   0.779390 0.845115 0.821804 0.542729
C5    C     C_R   0.474050 0.162762 0.871963 -0.006751
C6    C     C_R   0.525948 0.162763 0.128038 -0.006764
C7    C     C_R   0.974051 0.662761 0.871963 -0.006754
C8    C     C_R   0.025949 0.662764 0.128037 -0.006755
C9    C     C_R   0.520362 0.257171 0.102905 -0.103640
C10   C     C_R   0.479644 0.257171 0.897093 -0.103504
C11   C     C_R   0.020363 0.757172 0.102905 -0.103570
C12   C     C_R   0.979644 0.757170 0.897093 -0.103516
C13   C     C_R   0.508796 0.258606 0.051763 0.021148
C14   C     C_R   0.491209 0.258606 0.948235 0.021198
C15   C     C_R   0.008798 0.758607 0.051762 0.021177
C16   C     C_R   0.991210 0.758606 0.948235 0.021187
C17   C     C_R   0.503674 0.164601 0.025853 0.058895
C18   C     C_R   0.496323 0.164600 0.974147 0.058885
C19   C     C_R   0.003675 0.664601 0.025853 0.058889
C20   C     C_R   0.996324 0.664601 0.974147 0.058884
C21   C     C_R   0.504677 0.351851 0.025674 -0.119009
C22   C     C_R   0.495336 0.351851 0.974322 -0.118979
C23   C     C_R   0.004680 0.851852 0.025673 -0.118998
C24   C     C_R   0.995339 0.851851 0.974321 -0.119001
C25   C     C_R   0.738426 0.956944 0.129636 -0.014888
C26   C     C_R   0.261584 0.956959 0.870364 -0.014868
C27   C     C_R   0.238420 0.456968 0.129631 -0.014890
C28   C     C_R   0.761590 0.456983 0.870370 -0.014873
C29   C     C_R   0.794691 0.940765 0.107709 0.010793
C30   C     C_R   0.205324 0.940627 0.892269 0.010808
C31   C     C_R   0.294683 0.440800 0.107698 0.010829
C32   C     C_R   0.705336 0.440658 0.892280 0.010808
C33   C     C_R   0.797195 0.924269 0.056308 -0.083804
C34   C     C_R   0.202809 0.924075 0.943665 -0.083794
C35   C     C_R   0.297184 0.424312 0.056298 -0.083797
C36   C     C_R   0.702824 0.424147 0.943679 -0.083804
C37   C     C_R   0.744953 0.922084 0.027206 0.002369
C38   C     C_R   0.255036 0.922013 0.972785 0.002335
C39   C     C_R   0.244941 0.422141 0.027197 0.002366
C40   C     C_R   0.755051 0.422101 0.972796 0.002325
C41   C     C_R   0.689596 0.930251 0.049876 -0.129690
C42   C     C_R   0.310395 0.930362 0.950137 -0.129723
C43   C     C_R   0.189585 0.430319 0.049869 -0.129697
C44   C     C_R   0.810405 0.430446 0.950146 -0.129730
C45   C     C_R   0.553754 0.157227 0.177474 0.546781
C46   C     C_R   0.446245 0.157226 0.822526 0.546770
C47   C     C_R   0.053755 0.657227 0.177474 0.546781
C48   C     C_R   0.946245 0.657226 0.822526 0.546769
C49   C     C_R   0.686364 0.947056 0.100435 -0.134023
C50   C     C_R   0.313637 0.947211 0.899583 -0.134032
C51   C     C_R   0.186357 0.447105 0.100429 -0.134029
C52   C     C_R   0.813642 0.447267 0.899589 -0.134039
C53   C     C_R   0.709886 0.845264 0.947408 -0.113779
C54   C     C_R   0.290125 0.845283 0.052596 -0.113782
C55   C     C_R   0.209869 0.345330 0.947399 -0.113777
C56   C     C_R   0.790133 0.345328 0.052599 -0.113783
C57   C     C_R   0.716438 0.830041 0.896702 -0.122883
C58   C     C_R   0.283577 0.830085 0.103304 -0.122882
C59   C     C_R   0.216427 0.330088 0.896695 -0.122892
C60   C     C_R   0.783580 0.330103 0.103304 -0.122886
C61   C     C_R   0.796947 0.954481 0.896063 -0.122909
C62   C     C_R   0.202998 0.954380 0.103911 -0.122910
C63   C     C_R   0.296946 0.454494 0.896057 -0.122912
C64   C     C_R   0.703015 0.454425 0.103926 -0.122904
C65   C     C_R   0.790357 0.969639 0.946718 -0.118449
C66   C     C_R   0.209581 0.969505 0.053254 -0.118460
C67   C     C_R   0.290352 0.469668 0.946710 -0.118455
C68   C     C_R   0.709604 0.469579 0.053270 -0.118455
C69   C     C_R   0.748204 0.912508 0.973024 0.033233
C70   C     C_R   0.251770 0.912437 0.026964 0.033213
C71   C     C_R   0.248191 0.412563 0.973015 0.033225
C72   C     C_R   0.751788 0.412509 0.026975 0.033212
C73   C     C_R   0.761615 0.881548 0.870994 0.021386
C74   C     C_R   0.238370 0.881533 0.128999 0.021378
C75   C     C_R   0.261612 0.381566 0.870990 0.021381
C76   C     C_R   0.738376 0.381551 0.129004 0.021385
C77   C     C_R   0.527902 0.168932 0.370972 0.022787
C78   C     C_R   0.472109 0.168934 0.629032 0.022792
C79   C     C_R   0.027900 0.668931 0.370972 0.022785
C80   C     C_R   0.972107 0.668934 0.629031 0.022789
C81   C     C_R   0.537150 0.259749 0.398267 -0.125977
C82   C     C_R   0.462864 0.259751 0.601735 -0.125983
C83   C     C_R   0.037145 0.759749 0.398266 -0.125981
C84   C     C_R   0.962859 0.759748 0.601734 -0.125980
C85   C     C_R   0.525727 0.262182 0.448812 -0.121241
C86   C     C_R   0.474296 0.262184 0.551192 -0.121244
C87   C     C_R   0.025720 0.762182 0.448811 -0.121241
C88   C     C_R   0.974289 0.762181 0.551191 -0.121241
C89   C     C_R   0.731357 0.001123 0.179524 0.519914
C90   C     C_R   0.268645 0.001129 0.820477 0.519888
C91   C     C_R   0.231356 0.501128 0.179522 0.519914
C92   C     C_R   0.768645 0.501129 0.820477 0.519876
C93   C     C_R   0.503918 0.174407 0.472876 0.036495
C94   C     C_R   0.496110 0.174409 0.527131 0.036498
C95   C     C_R   0.003912 0.674407 0.472875 0.036492
C96   C     C_R   0.996105 0.674409 0.527130 0.036497
C97   C     C_R   0.490658 0.085950 0.444869 -0.119097
C98   C     C_R   0.509368 0.085954 0.555141 -0.119081
C99   C     C_R   0.990656 0.585951 0.444868 -0.119094
C100  C     C_R   0.009365 0.585957 0.555140 -0.119087
C101  C     C_R   0.502901 0.083006 0.394377 -0.128115
C102  C     C_R   0.497116 0.083010 0.605631 -0.128085
C103  C     C_R   0.002901 0.583006 0.394376 -0.128106
C104  C     C_R   0.997115 0.583012 0.605630 -0.128099
C105  C     C_R   0.740212 0.955665 0.371682 0.024889
C106  C     C_R   0.259758 0.955618 0.628333 0.024890
C107  C     C_R   0.240219 0.455653 0.371679 0.024881
C108  C     C_R   0.759771 0.455627 0.628328 0.024892
C109  C     C_R   0.689941 0.920799 0.397211 -0.125682
C110  C     C_R   0.310004 0.920598 0.602817 -0.125694
C111  C     C_R   0.189954 0.420735 0.397202 -0.125685
C112  C     C_R   0.810032 0.420686 0.602805 -0.125684
C113  C     C_R   0.692982 0.905067 0.447821 -0.123033
C114  C     C_R   0.306952 0.904819 0.552209 -0.123024
C115  C     C_R   0.192994 0.404998 0.447813 -0.123032
C116  C     C_R   0.806984 0.404923 0.552197 -0.123025
C117  C     C_R   0.746768 0.920732 0.473450 0.037936
C118  C     C_R   0.253182 0.920606 0.526573 0.037941
C119  C     C_R   0.246773 0.420711 0.473446 0.037938
C120  C     C_R   0.753201 0.420633 0.526566 0.037943
C121  C     C_R   0.798435 0.946018 0.447219 -0.120241
C122  C     C_R   0.201534 0.946046 0.552794 -0.120247
C123  C     C_R   0.298438 0.446043 0.447220 -0.120257
C124  C     C_R   0.701540 0.445983 0.552794 -0.120233
C125  C     C_R   0.795082 0.964238 0.396538 -0.129843
C126  C     C_R   0.204896 0.964296 0.603470 -0.129816
C127  C     C_R   0.295086 0.464267 0.396540 -0.129862
C128  C     C_R   0.704900 0.464233 0.603472 -0.129819
C129  C     C_R   0.783950 0.979769 0.555883 -0.120019
C130  C     C_R   0.216091 0.979743 0.444127 -0.120012
C131  C     C_R   0.283931 0.479778 0.555884 -0.120015
C132  C     C_R   0.716051 0.479720 0.444129 -0.120017
C133  C     C_R   0.721203 0.347121 0.321745 0.542776
C134  C     C_R   0.278796 0.347125 0.678257 0.542782
C135  C     C_R   0.221202 0.847114 0.321746 0.542766
C136  C     C_R   0.778796 0.847126 0.678257 0.542784
C137  C     C_R   0.790168 0.964598 0.606629 -0.129493
C138  C     C_R   0.209886 0.964596 0.393378 -0.129521
C139  C     C_R   0.290150 0.464608 0.606631 -0.129498
C140  C     C_R   0.709842 0.464573 0.393381 -0.129505
C141  C     C_R   0.720322 0.822244 0.601688 -0.126012
C142  C     C_R   0.279563 0.822009 0.398350 -0.126007
C143  C     C_R   0.220338 0.322206 0.601683 -0.126008
C144  C     C_R   0.779636 0.322145 0.398327 -0.126002
C145  C     C_R   0.715264 0.835770 0.551017 -0.123309
C146  C     C_R   0.284605 0.835514 0.449022 -0.123333
C147  C     C_R   0.215282 0.335728 0.551012 -0.123314
C148  C     C_R   0.784682 0.335645 0.449000 -0.123311
C149  C     C_R   0.748466 0.912477 0.527517 0.037625
C150  C     C_R   0.251486 0.912337 0.472507 0.037602
C151  C     C_R   0.248466 0.412459 0.527515 0.037625
C152  C     C_R   0.751504 0.412382 0.472498 0.037619
C153  C     C_R   0.760132 0.883118 0.629404 0.024970
C154  C     C_R   0.239850 0.883029 0.370615 0.024977
C155  C     C_R   0.260131 0.383107 0.629403 0.024972
C156  C     C_R   0.739859 0.383075 0.370606 0.024971
C157  C     C_R   0.554458 0.158897 0.321675 0.543792
C158  C     C_R   0.445543 0.158898 0.678326 0.543810
C159  C     C_R   0.054458 0.658897 0.321675 0.543797
C160  C     C_R   0.945543 0.658898 0.678326 0.543804
C161  C     C_R   0.731705 0.001974 0.322943 0.541812
C162  C     C_R   0.268290 0.001967 0.677060 0.541820
C163  C     C_R   0.231706 0.501974 0.322943 0.541806
C164  C     C_R   0.768293 0.501970 0.677059 0.541821
C165  C     C_R   0.515737 0.070201 0.102455 -0.136883
C166  C     C_R   0.484252 0.070201 0.897548 -0.136919
C167  C     C_R   0.015738 0.570202 0.102455 -0.136891
C168  C     C_R   0.984253 0.570200 0.897548 -0.136923
C169  C     C_R   0.506590 0.070230 0.051520 0.010190
C170  C     C_R   0.493399 0.070230 0.948483 0.010171
C171  C     C_R   0.006591 0.570231 0.051520 0.010184
C172  C     C_R   0.993399 0.570229 0.948483 0.010169
C173  C     C_R   0.496981 0.976951 0.974345 -0.143166
C174  C     C_R   0.502998 0.976951 0.025660 -0.143164
C175  C     C_R   0.996982 0.476951 0.974345 -0.143176
C176  C     C_R   0.002999 0.476951 0.025660 -0.143173
Cr1   Cr    Cr6+3 0.756570 0.170940 0.251190 1.015737
Cr2   Cr    Cr6+3 0.243430 0.170940 0.748810 1.015737
Cr3   Cr    Cr6+3 0.256570 0.670940 0.251190 1.015745
Cr4   Cr    Cr6+3 0.743430 0.670940 0.748810 1.015745
Cr5   Cr    Cr6+3 0.623740 0.299110 0.249580 1.021195
Cr6   Cr    Cr6+3 0.376260 0.299110 0.750420 1.021201
Cr7   Cr    Cr6+3 0.123740 0.799110 0.249580 1.021202
Cr8   Cr    Cr6+3 0.876260 0.799110 0.750420 1.021202
Cr9   Cr    Cr6+3 0.625990 0.036240 0.250480 1.011846
Cr10  Cr    Cr6+3 0.374010 0.036240 0.749520 1.011848
Cr11  Cr    Cr6+3 0.125990 0.536240 0.250480 1.011841
Cr12  Cr    Cr6+3 0.874010 0.536240 0.749520 1.011846
H1    H     H_    0.831919 0.995722 0.877141 0.130446
H2    H     H_    0.168001 0.995574 0.122821 0.130466
H3    H     H_    0.331924 0.495715 0.877136 0.130455
H4    H     H_    0.668022 0.495623 0.122840 0.130469
H5    H     H_    0.648746 0.928669 0.028150 0.119563
H6    H     H_    0.351233 0.928894 0.971878 0.119607
H7    H     H_    0.148735 0.428757 0.028144 0.119574
H8    H     H_    0.851241 0.428988 0.971886 0.119628
H9    H     H_    0.642659 0.959213 0.116017 0.143111
H10   H     H_    0.357337 0.959513 0.884017 0.143128
H11   H     H_    0.142653 0.459266 0.116014 0.143116
H12   H     H_    0.857337 0.459563 0.884020 0.143142
H13   H     H_    0.557036 0.326951 0.381398 0.133605
H14   H     H_    0.442973 0.326952 0.618601 0.133599
H15   H     H_    0.057029 0.826951 0.381397 0.133615
H16   H     H_    0.942968 0.826946 0.618601 0.133599
H17   H     H_    0.527920 0.018163 0.537801 0.101220
H18   H     H_    0.472109 0.018159 0.462211 0.101240
H19   H     H_    0.027919 0.518168 0.537800 0.101227
H20   H     H_    0.972109 0.518159 0.462211 0.101228
H21   H     H_    0.504801 0.012159 0.625854 0.123582
H22   H     H_    0.495214 0.012154 0.374155 0.123585
H23   H     H_    0.004802 0.512163 0.625853 0.123581
H24   H     H_    0.995217 0.512154 0.374155 0.123583
H25   H     H_    0.536724 0.331251 0.469404 0.099221
H26   H     H_    0.463301 0.331252 0.530598 0.099222
H27   H     H_    0.036714 0.831252 0.469402 0.099233
H28   H     H_    0.963292 0.831247 0.530597 0.099219
H29   H     H_    0.494301 0.904039 0.954947 0.106351
H30   H     H_    0.505672 0.904039 0.045060 0.106344
H31   H     H_    0.994301 0.404039 0.954947 0.106354
H32   H     H_    0.005672 0.404040 0.045060 0.106344
H33   H     H_    0.687849 0.782434 0.530038 0.099101
H34   H     H_    0.311944 0.782086 0.470013 0.099135
H35   H     H_    0.187882 0.282371 0.530031 0.099093
H36   H     H_    0.812072 0.282271 0.469981 0.099111
H37   H     H_    0.696788 0.758351 0.618269 0.135291
H38   H     H_    0.303030 0.758033 0.381781 0.135373
H39   H     H_    0.196816 0.258297 0.618262 0.135297
H40   H     H_    0.803153 0.258232 0.381747 0.135323
H41   H     H_    0.834487 0.990252 0.377416 0.123223
H42   H     H_    0.165509 0.990430 0.622582 0.123248
H43   H     H_    0.334487 0.490322 0.377423 0.123228
H44   H     H_    0.665502 0.490303 0.622589 0.123231
H45   H     H_    0.471939 0.328884 0.877523 0.147999
H46   H     H_    0.528075 0.328884 0.122473 0.147962
H47   H     H_    0.971939 0.828883 0.877523 0.148003
H48   H     H_    0.028076 0.828885 0.122473 0.147985
H49   H     H_    0.491433 0.424686 0.955013 0.137050
H50   H     H_    0.508585 0.424686 0.044981 0.137102
H51   H     H_    0.991436 0.924686 0.955013 0.137057
H52   H     H_    0.008590 0.924687 0.044980 0.137087
H53   H     H_    0.676887 0.800619 0.966987 0.108715
H54   H     H_    0.323153 0.800692 0.033027 0.108745
H55   H     H_    0.176865 0.300706 0.966978 0.108726
H56   H     H_    0.823158 0.300737 0.033024 0.108737
H57   H     H_    0.688740 0.772976 0.878434 0.138967
H58   H     H_    0.311305 0.773088 0.121587 0.138969
H59   H     H_    0.188727 0.273031 0.878428 0.138963
H60   H     H_    0.811302 0.273087 0.121580 0.138947
H61   H     H_    0.819252 0.024047 0.965606 0.108640
H62   H     H_    0.180655 0.023844 0.034354 0.108656
H63   H     H_    0.319251 0.524066 0.965597 0.108650
H64   H     H_    0.680687 0.523938 0.034375 0.108653
O1    O     O_R   0.769900 0.064540 0.196060 -0.524273
O2    O     O_R   0.230100 0.064540 0.803940 -0.524241
O3    O     O_R   0.269900 0.564540 0.196060 -0.524249
O4    O     O_R   0.730100 0.564540 0.803940 -0.524225
O5    O     O_R   0.574760 0.239320 0.300850 -0.503469
O6    O     O_R   0.425240 0.239320 0.699150 -0.503466
O7    O     O_R   0.074760 0.739320 0.300850 -0.503468
O8    O     O_R   0.925240 0.739320 0.699150 -0.503465
O9    O     O_R   0.566290 0.069580 0.305400 -0.521479
O10   O     O_R   0.433710 0.069580 0.694600 -0.521455
O11   O     O_R   0.066290 0.569580 0.305400 -0.521474
O12   O     O_R   0.933710 0.569580 0.694600 -0.521465
O13   O     O_R   0.680760 0.993330 0.302620 -0.506205
O14   O     O_R   0.319240 0.993330 0.697380 -0.506184
O15   O     O_R   0.180760 0.493330 0.302620 -0.506196
O16   O     O_R   0.819240 0.493330 0.697380 -0.506195
O17   O     O_3   0.668770 0.168760 0.250420 -0.238144
O18   O     O_3   0.331230 0.168760 0.749580 -0.238149
O19   O     O_3   0.168770 0.668760 0.250420 -0.238151
O20   O     O_3   0.831230 0.668760 0.749580 -0.238152
O21   O     O_R   0.750800 0.274080 0.199250 -0.501524
O22   O     O_R   0.249200 0.274080 0.800750 -0.501533
O23   O     O_R   0.250800 0.774080 0.199250 -0.501520
O24   O     O_R   0.749200 0.774080 0.800750 -0.501538
O25   O     O_R   0.669990 0.371670 0.194150 -0.520707
O26   O     O_R   0.330010 0.371670 0.805850 -0.520705
O27   O     O_R   0.169990 0.871670 0.194150 -0.520708
O28   O     O_R   0.830010 0.871670 0.805850 -0.520698
O29   O     O_R   0.574600 0.238480 0.197800 -0.497985
O30   O     O_R   0.425400 0.238480 0.802200 -0.497978
O31   O     O_R   0.074600 0.738480 0.197800 -0.497984
O32   O     O_R   0.925400 0.738480 0.802200 -0.497976
O33   O     O_R   0.566130 0.068680 0.194240 -0.526625
O34   O     O_R   0.433870 0.068680 0.805760 -0.526641
O35   O     O_R   0.066130 0.568680 0.194240 -0.526631
O36   O     O_R   0.933870 0.568680 0.805760 -0.526640
O37   O     O_R   0.680610 0.992490 0.199570 -0.502105
O38   O     O_R   0.319390 0.992490 0.800430 -0.502123
O39   O     O_R   0.180610 0.492490 0.199570 -0.502111
O40   O     O_R   0.819390 0.492490 0.800430 -0.502122
O41   O     O_R   0.770060 0.065440 0.307230 -0.524636
O42   O     O_R   0.229940 0.065440 0.692770 -0.524653
O43   O     O_R   0.270060 0.565440 0.307230 -0.524659
O44   O     O_R   0.729940 0.565440 0.692770 -0.524632
O45   O     O_R   0.750960 0.274920 0.302300 -0.505971
O46   O     O_R   0.249040 0.274920 0.697700 -0.505966
O47   O     O_R   0.250960 0.774920 0.302300 -0.505985
O48   O     O_R   0.749040 0.774920 0.697700 -0.505962
O49   O     O_R   0.670160 0.372580 0.305320 -0.522610
O50   O     O_R   0.329840 0.372580 0.694680 -0.522616
O51   O     O_R   0.170160 0.872580 0.305320 -0.522591
O52   O     O_R   0.829840 0.872580 0.694680 -0.522623
H65   H     H_    0.480479 0.996923 0.878540 0.129637
H66   H     H_    0.519502 0.996922 0.121464 0.129625
H67   H     H_    0.980480 0.496921 0.878540 0.129637
H68   H     H_    0.019504 0.496924 0.121464 0.129625
H69   H     H_    0.646905 0.913731 0.379003 0.134197
H70   H     H_    0.353031 0.913441 0.621030 0.134136
H71   H     H_    0.146922 0.413630 0.378990 0.134174
H72   H     H_    0.853067 0.413587 0.621014 0.134165
H73   H     H_    0.808354 0.041844 0.538641 0.101072
H74   H     H_    0.191750 0.041899 0.461359 0.101114
H75   H     H_    0.308319 0.541873 0.538644 0.101060
H76   H     H_    0.691666 0.541816 0.461371 0.101093
H77   H     H_    0.820763 0.012825 0.627490 0.122982
H78   H     H_    0.179364 0.012925 0.372502 0.122954
H79   H     H_    0.320730 0.512856 0.627494 0.122970
H80   H     H_    0.679271 0.512839 0.372517 0.122974
H81   H     H_    0.652410 0.886095 0.467125 0.099021
H82   H     H_    0.347510 0.885721 0.532911 0.099015
H83   H     H_    0.152424 0.385986 0.467112 0.099011
H84   H     H_    0.847552 0.385898 0.532895 0.099011
H85   H     H_    0.840917 0.954941 0.466102 0.100261
H86   H     H_    0.159063 0.955071 0.533905 0.100250
H87   H     H_    0.340914 0.455004 0.466108 0.100256
H88   H     H_    0.659061 0.454941 0.533910 0.100252
C177  C     C_2   0.850547 0.938770 0.137669 0.224943
H89   H     H_    0.849011 0.936123 0.177781 0.127245
O53   O     O_2   0.899218 0.938303 0.117847 -0.543047
C178  C     C_2   0.149488 0.938574 0.862293 0.224976
H90   H     H_    0.151034 0.935939 0.822185 0.127233
O54   O     O_2   0.100825 0.938085 0.882102 -0.543073
C179  C     C_2   0.350542 0.438829 0.137652 0.224993
H91   H     H_    0.349025 0.436121 0.177752 0.127301
O55   O     O_2   0.399188 0.438465 0.117833 -0.543127
C180  C     C_2   0.649499 0.438538 0.862302 0.224988
H92   H     H_    0.651050 0.435865 0.822190 0.127195
O56   O     O_2   0.600833 0.438036 0.882107 -0.543052
H93   H     H_    0.839881 0.913046 0.038721 0.155804
H94   H     H_    0.160126 0.912730 0.961237 0.155822
H95   H     H_    0.339869 0.413086 0.038709 0.155792
H96   H     H_    0.660145 0.412806 0.961253 0.155820

loop_
_geom_bond_atom_site_label_1
_geom_bond_atom_site_label_2
_ccdc_geom_bond_type
C157  O9    A    
C7    C168  A    
C55   C59   A    
C142  C146  A    
C131  C151  A    
C19   C20   A    
C53   C69   A    
C88   C96   A    
C50   H10   S    
C62   H2    S    
C165  H66   S    
C108  C164  S    
C91   O39   A    
Cr12  O16   S    
C54   H54   S    
C37   C69   S    
C26   C50   A    
C95   C99   A    
Cr5   O5    S    
C168  H67   S    
C29   C33   A    
C100  C104  A    
C3    C74   S    
C9    C13   A    
C41   H5    S    
C146  C150  A    
C77   C101  A    
C12   C16   A    
C56   C72   A    
C169  C174  A    
C32   C180  S    
C172  C175  A    
C141  C145  A    
C84   H16   S    
C6    C165  A    
C128  H44   S    
C21   C22   A    
C61   H1    S    
C41   C49   A    
C64   H4    S    
C139  H79   S    
C18   C170  A    
C25   C29   A    
C140  H80   S    
C44   H8    S    
C27   C31   A    
C46   O34   A    
C28   C32   A    
Cr9   O37   S    
Cr10  O34   S    
C82   H14   S    
C62   C66   A    
C167  C171  A    
C98   C102  A    
C60   C76   A    
C1    O25   A    
C2    O22   A    
C124  H88   S    
C3    O27   A    
C134  C155  S    
C54   C70   A    
Cr3   O23   S    
C68   C72   A    
C137  C153  A    
C140  C156  A    
C20   C172  A    
C132  C152  A    
C130  C138  A    
C34   H94   S    
C10   H45   S    
C159  O7    A    
C84   C88   A    
C143  H39   S    
Cr6   O30   S    
Cr7   O27   S    
C119  C123  A    
C26   C90   S    
C5    C46   S    
C105  C125  A    
C7    C48   S    
C132  H76   S    
Cr3   O47   S    
C8    C47   S    
C107  C127  A    
C122  H86   S    
C136  C153  S    
Cr6   O50   S    
C66   C70   A    
C91   O3    A    
C179  H91   S    
C61   C65   A    
C145  H33   S    
C39   C71   S    
C117  C149  S    
C55   C71   A    
C2    C75   S    
C26   C30   A    
C79   C83   A    
C66   H62   S    
C23   H52   S    
C43   C51   A    
C6    C9    A    
Cr9   O13   S    
Cr6   O26   S    
C49   H9    S    
Cr10  O10   S    
C121  C125  A    
C32   C36   A    
C53   H53   S    
C125  H41   S    
C63   H3    S    
C110  H70   S    
C43   H7    S    
C134  O46   A    
C57   C73   A    
C143  C155  A    
C78   C158  S    
C157  O5    A    
C161  O13   A    
C158  O10   A    
C87   C95   A    
C130  C150  A    
C23   C24   A    
C27   C91   S    
C52   H12   S    
C97   H18   S    
C110  C114  A    
C22   H49   S    
Cr3   O3    S    
C44   C52   A    
C56   H56   S    
C166  H65   S    
Cr12  O20   S    
C177  O53   D    
C79   C103  A    
C11   C15   A    
C137  H77   S    
C27   C51   A    
Cr5   O17   S    
C7    C12   A    
Cr6   O6    S    
Cr7   O19   S    
C30   C34   A    
C178  H90   S    
Cr2   O46   S    
C99   C103  A    
C10   C14   A    
C142  C154  A    
C116  C120  A    
C144  C156  A    
C147  C151  A    
C86   H26   S    
C129  C149  A    
C135  O47   A    
C123  C127  A    
C139  C155  A    
C92   O40   A    
C54   C58   A    
C17   C18   A    
C129  C137  A    
C5    C166  A    
C108  C128  A    
C4    C73   S    
C138  H78   S    
C47   O31   A    
C42   C50   A    
C113  C117  A    
C89   O37   A    
C107  C163  S    
C166  C170  A    
C180  O56   D    
C176  H32   S    
C46   O30   A    
C105  C161  S    
C29   C177  S    
Cr10  O38   S    
C93   C97   A    
C112  C116  A    
C58   C74   A    
C105  C109  A    
C87   H27   S    
C40   C72   S    
C1    C76   S    
C107  C111  A    
C148  C152  A    
Cr1   O17   S    
C2    O26   A    
C163  O43   A    
C102  H21   S    
C3    O23   A    
Cr2   O2    S    
C129  H73   S    
Cr8   O28   S    
C171  C176  A    
C115  C119  A    
C13   C17   A    
C14   C22   A    
C68   H64   S    
C63   C75   A    
C96   C100  A    
C37   C41   A    
C131  C139  A    
C40   C44   A    
C159  O11   A    
C160  O12   A    
C59   H59   S    
C138  C154  A    
C113  H81   S    
C81   C85   A    
C12   H47   S    
C83   C87   A    
C130  H74   S    
Cr1   O41   S    
C6    C45   S    
C78   C102  A    
C133  C156  S    
Cr3   O43   S    
C80   C84   A    
Cr1   O21   S    
C15   C19   A    
C164  O16   A    
Cr8   O8    S    
C135  C154  S    
C55   H55   S    
C80   C104  A    
C79   C159  S    
C146  H34   S    
C114  H82   S    
C80   C160  S    
C94   C98   A    
C45   O33   A    
C118  C150  S    
Cr12  O40   S    
Cr1   O45   S    
Cr12  O36   S    
C31   C179  S    
Cr9   O17   S    
C124  C128  A    
Cr10  O14   S    
C111  H71   S    
Cr11  O19   S    
Cr4   O44   S    
C165  C169  A    
C133  O49   A    
C100  H19   S    
C142  H38   S    
Cr8   O20   S    
C58   H58   S    
C83   H15   S    
C53   C57   A    
C81   H13   S    
C61   C73   A    
C158  O6    A    
C162  O14   A    
C33   C37   A    
C56   C60   A    
C35   C39   A    
C8    C167  A    
C141  H37   S    
C77   C81   A    
C36   H96   S    
Cr4   O20   S    
C24   H51   S    
C92   O4    A    
C38   C70   S    
Cr6   O18   S    
Cr3   O19   S    
Cr9   O33   S    
C64   C68   A    
C164  O44   A    
C147  H35   S    
C179  O55   D    
C11   H48   S    
C33   H93   S    
C115  H83   S    
C48   O32   A    
C163  O15   A    
C9    H46   S    
C35   H95   S    
C161  O41   A    
C178  O54   D    
Cr8   O32   S    
C135  O51   A    
C136  O52   A    
C132  C140  A    
C106  C126  A    
C25   C89   S    
C99   H20   S    
C47   O35   A    
C82   C86   A    
C48   O36   A    
C121  H85   S    
C90   O38   A    
C65   C69   A    
C123  H87   S    
C67   C71   A    
C106  C162  S    
C25   C49   A    
Cr11  O39   S    
C108  C112  A    
C168  C172  A    
Cr7   O31   S    
C133  O45   A    
C62   C74   A    
C145  C149  A    
Cr2   O18   S    
C170  C173  A    
C93   C94   S    
C65   H61   S    
C30   C178  S    
C177  H89   S    
C14   C18   A    
C95   C96   S    
C144  C148  A    
C141  C153  A    
Cr4   O4    S    
C173  C174  A    
C143  C147  A    
C126  H42   S    
C19   C171  A    
C38   C42   A    
C118  C122  A    
C17   C169  A    
C160  O8    A    
C42   H6    S    
C78   C82   A    
C117  C121  A    
C86   C94   A    
Cr11  O35   S    
C175  C176  A    
C131  H75   S    
Cr2   O42   S    
C98   H17   S    
C173  H29   S    
C1    O21   A    
C16   C20   A    
Cr2   O22   S    
C15   C23   A    
C21   H50   S    
C112  H72   S    
C89   O1    A    
C85   C93   A    
C119  C151  S    
C63   C67   A    
C120  C152  S    
C45   O29   A    
C13   C21   A    
C4    O24   A    
C36   C40   A    
C57   H57   S    
C39   C43   A    
C122  C126  A    
Cr5   O29   S    
C85   H25   S    
Cr10  O18   S    
Cr11  O15   S    
Cr4   O48   S    
C127  H43   S    
C167  H68   S    
C64   C76   A    
Cr5   O49   S    
C28   C92   S    
Cr7   O51   S    
C114  C118  A    
C51   H11   S    
C174  H30   S    
Cr8   O52   S    
C60   H60   S    
C116  H84   S    
C59   C75   A    
C106  C110  A    
C88   H28   S    
C34   C38   A    
C175  H31   S    
C103  H24   S    
C109  C113  A    
C101  H22   S    
Cr1   O1    S    
Cr12  O12   S    
Cr7   O7    S    
C148  H36   S    
C5    C10   A    
Cr4   O24   S    
Cr5   O25   S    
C28   C52   A    
Cr9   O9    S    
C8    C11   A    
C4    O28   A    
Cr11  O11   S    
C31   C35   A    
C90   O2    A    
C136  O48   A    
C16   C24   A    
C180  H92   S    
C109  H69   S    
C144  H40   S    
C111  C115  A    
C134  O50   A    
C104  H23   S    
C162  O42   A    
C97   C101  A    
C120  C124  A    
C77   C157  S    
C67   H63   S    
