data_mof_unit_6068.cif
_audit_creation_date              2012-12-10T17:22:04-0500
_audit_creation_method            fapswitch 2.2
_symmetry_space_group_name_H-M    P1
_symmetry_Int_Tables_number       1
_space_group_crystal_system       triclinic
_cell_length_a                    10.110753
_cell_length_b                    10.717122
_cell_length_c                    15.734668
_cell_angle_alpha                 89.684572
_cell_angle_beta                  82.265447
_cell_angle_gamma                 95.217708
_cell_volume                      1682.19573518

loop_
_atom_site_label
_atom_site_type_symbol
_atom_type_description
_atom_site_fract_x
_atom_site_fract_y
_atom_site_fract_z
_atom_type_partial_charge
C1    C     C_R   0.556116 0.733434 0.492589 0.795254
C2    C     C_3   0.375349 0.560842 0.056019 0.366479
C3    C     C_3   0.499598 0.503507 0.082605 0.177128
C4    C     C_3   0.500413 0.367043 0.050702 -0.498911
C5    C     C_3   0.492939 0.364715 0.953581 -0.464895
C6    C     C_1   0.495812 0.502969 0.174428 -0.041556
C7    C     C_1   0.509333 0.497946 0.825240 -0.055638
C8    C     C_1   0.504890 0.497857 0.750274 -0.206259
C9    C     C_2   0.588154 0.867696 0.480037 0.324142
C10   C     C_2   0.490095 0.933936 0.460311 -0.264132
C11   C     C_2   0.411908 0.134354 0.491927 -0.419191
C12   C     C_R   0.501179 0.499063 0.661649 0.907530
C13   C     C_2   0.509150 0.068043 0.455790 -0.114711
C14   C     C_2   0.929046 0.515598 0.503238 -0.144906
C15   C     C_2   0.073134 0.492106 0.490949 -0.120480
C16   C     C_R   0.443852 0.266899 0.502105 0.941017
C17   C     C_R   0.498729 0.500382 0.338392 0.905374
C18   C     C_3   0.391854 0.570855 0.957029 -0.491922
C19   C     C_3   0.647687 0.568369 0.940382 0.899192
C20   C     C_3   0.628812 0.581155 0.040339 -0.439051
C21   C     C_1   0.495970 0.501882 0.249739 -0.195048
C22   C     C_3   0.512496 0.500571 0.916578 0.185074
H1    H     H_    0.297305 0.530693 0.934570 0.144736
H2    H     H_    0.285524 0.493449 0.076979 0.064552
H3    H     H_    0.593653 0.327244 0.064042 0.218739
H4    H     H_    0.608708 0.111750 0.432027 0.221498
H5    H     H_    0.389319 0.890626 0.457142 0.160724
H6    H     H_    0.312485 0.090604 0.515845 0.158220
H7    H     H_    0.108597 0.423757 0.444709 0.163817
H8    H     H_    0.894944 0.588741 0.545998 0.156851
H9    H     H_    0.120435 0.615136 0.578061 0.156405
H10   H     H_    0.407158 0.670937 0.935585 0.231319
H11   H     H_    0.877938 0.379185 0.426150 0.166126
H12   H     H_    0.622958 0.680656 0.058610 0.189128
H13   H     H_    0.717601 0.550101 0.066718 0.168549
H14   H     H_    0.393605 0.319167 0.942103 0.185915
H15   H     H_    0.570135 0.306702 0.921766 0.207421
H16   H     H_    0.413939 0.306751 0.085021 0.180319
N1    N     N_2   0.842720 0.448890 0.465540 -0.192749
N2    N     N_2   0.157250 0.551040 0.534500 -0.195560
O1    O     O_R   0.431050 0.692470 0.506940 -0.633020
O2    O     O_R   0.651130 0.659650 0.484820 -0.590142
O3    O     O_R   0.389910 0.516410 0.633920 -0.602661
O4    O     O_R   0.609990 0.483590 0.611800 -0.620969
O5    O     O_R   0.348870 0.340350 0.515180 -0.606581
O6    O     O_R   0.568950 0.307530 0.493060 -0.612751
O7    O     O_R   0.390010 0.516410 0.388200 -0.613729
O8    O     O_R   0.610090 0.483590 0.366080 -0.601780
Zn1   Zn    Zn3+2 0.353060 0.521920 0.514770 0.930798
Zn2   Zn    Zn3+2 0.646940 0.478080 0.485230 0.937802
O9    O     O_3   0.364483 0.682488 0.090721 -0.641885
C23   C     C_3   0.241362 0.690220 0.144344 0.103809
H17   H     H_    0.253884 0.773185 0.185504 0.171233
H18   H     H_    0.215455 0.607767 0.188925 0.125375
C24   C     C_3   0.127722 0.708678 0.091152 -0.393886
H19   H     H_    0.155276 0.793480 0.049287 0.231075
H20   H     H_    0.112296 0.626698 0.049544 0.211499
C25   C     C_3   0.996385 0.724014 0.148784 -0.940404
H21   H     H_    0.965946 0.639289 0.190286 0.269268
H22   H     H_    0.916134 0.736929 0.108709 0.257707
H23   H     H_    0.007665 0.807394 0.189711 0.270632
O10   O     O_3   0.717364 0.924155 0.481247 -0.641188
C26   C     C_3   0.756508 0.912615 0.563855 0.086202
H24   H     H_    0.867831 0.923002 0.556126 0.163282
H25   H     H_    0.725053 0.819014 0.594913 0.120953
C27   C     C_3   0.704731 0.016615 0.622411 -0.353523
H26   H     H_    0.741602 0.109630 0.592346 0.240602
H27   H     H_    0.593363 0.008150 0.631058 0.222510
C28   C     C_3   0.751562 0.008255 0.710325 -0.985551
H28   H     H_    0.715034 0.915914 0.741363 0.276550
H29   H     H_    0.710962 0.083171 0.751793 0.268659
H30   H     H_    0.862750 0.020321 0.704046 0.262959
O11   O     O_3   0.756359 0.492100 0.918797 -0.693340
C29   C     C_3   0.816823 0.499582 0.832016 0.071418
H31   H     H_    0.919324 0.547660 0.830016 0.141794
H32   H     H_    0.763799 0.553202 0.788738 0.166462
C30   C     C_3   0.829227 0.366903 0.798369 -0.354488
H33   H     H_    0.884633 0.314047 0.840858 0.233508
H34   H     H_    0.727842 0.317471 0.798651 0.216152
C31   C     C_3   0.902587 0.368682 0.707161 -0.940523
H35   H     H_    0.843840 0.414693 0.663508 0.283736
H36   H     H_    0.913658 0.271250 0.685684 0.270541
H37   H     H_    0.003854 0.419714 0.703963 0.262638
O12   O     O_3   0.670774 0.689850 0.899922 -0.699412
C32   C     C_3   0.793599 0.756836 0.913780 0.037529
H38   H     H_    0.860441 0.765282 0.851514 0.152010
H39   H     H_    0.847803 0.710758 0.960609 0.149855
C33   C     C_3   0.767153 0.888711 0.944337 -0.328445
H40   H     H_    0.709222 0.933834 0.899500 0.238401
H41   H     H_    0.706599 0.883107 0.008798 0.221213
C34   C     C_3   0.897792 0.970093 0.949088 -0.973468
H42   H     H_    0.956843 0.927743 0.994509 0.268884
H43   H     H_    0.875010 0.064652 0.971909 0.267803
H44   H     H_    0.958383 0.980319 0.884666 0.264385

loop_
_geom_bond_atom_site_label_1
_geom_bond_atom_site_label_2
_ccdc_geom_bond_type
C10   H5    S    
C27   H27   S    
C24   H19   S    
C26   H25   S    
C5    H15   S    
C2    C18   S    
O11   C29   S    
C19   C20   S    
C17   O8    A    
C3    C6    S    
C4    H3    S    
C7    C8    T    
O7    Zn1   S    
C30   H33   S    
H11   N1    S    
C29   H32   S    
C12   O3    A    
C32   C33   S    
C27   C28   S    
C25   H22   S    
N2    Zn1   S    
C5    H14   S    
H9    N2    S    
C28   H29   S    
C14   N1    D    
C20   H13   S    
C5    C22   S    
C29   C30   S    
C9    C10   D    
C23   C24   S    
C20   H12   S    
C25   H23   S    
O8    Zn2   S    
C27   H26   S    
C26   C27   S    
C14   H8    S    
C31   H37   S    
O1    Zn1   S    
C23   H18   S    
C15   H7    S    
C30   H34   S    
C29   H31   S    
C32   H39   S    
O9    C23   S    
C19   O11   S    
C19   C22   S    
C1    C9    S    
O12   C32   S    
C31   H36   S    
C16   O6    A    
C34   H42   S    
O3    Zn1   S    
C25   H21   S    
C32   H38   S    
C6    C21   T    
C17   C21   S    
C18   H1    S    
C28   H30   S    
O10   C26   S    
C34   H43   S    
C11   C16   S    
C33   C34   S    
O5    Zn1   S    
C8    C12   S    
C3    C20   S    
O2    Zn2   S    
C1    O1    A    
C4    H16   S    
C24   H20   S    
C2    H2    S    
C13   H4    S    
C18   H10   S    
C3    C4    S    
C23   H17   S    
C30   C31   S    
O4    Zn2   S    
C18   C22   S    
C17   O7    A    
C33   H41   S    
C31   H35   S    
C10   C13   S    
C16   O5    A    
C7    C22   S    
O6    Zn2   S    
C9    O10   S    
C2    C3    S    
C12   O4    A    
C34   H44   S    
C11   C13   D    
C11   H6    S    
C28   H28   S    
C15   N2    D    
C2    O9    S    
C26   H24   S    
C1    O2    A    
C4    C5    S    
N1    Zn2   S    
C33   H40   S    
C24   C25   S    
C14   C15   S    
C19   O12   S    
