data_mof_unit_28467.cif
_audit_creation_date              2012-12-10T19:01:20-0500
_audit_creation_method            fapswitch 2.2
_symmetry_space_group_name_H-M    P1
_symmetry_Int_Tables_number       1
_space_group_crystal_system       triclinic
_cell_length_a                    9.537773
_cell_length_b                    10.821724
_cell_length_c                    15.501628
_cell_angle_alpha                 89.88889
_cell_angle_beta                  74.302604
_cell_angle_gamma                 90.014949
_cell_volume                      1540.32576847

loop_
_atom_site_label
_atom_site_type_symbol
_atom_type_description
_atom_site_fract_x
_atom_site_fract_y
_atom_site_fract_z
_atom_type_partial_charge
C1    C     C_R   0.000659 0.262291 0.498391 0.815806
C2    C     C_R   0.677949 0.525920 0.910453 -0.022096
C3    C     C_R   0.782025 0.505715 0.959072 0.092221
C4    C     C_R   0.530943 0.551280 0.957654 0.074683
C5    C     C_R   0.483673 0.528351 0.051237 0.076198
C6    C     C_R   0.590340 0.507289 0.097629 -0.130179
C7    C     C_R   0.737200 0.498921 0.052302 -0.228825
C8    C     C_R   0.432652 0.606874 0.915529 -0.125547
C9    C     C_R   0.288671 0.628332 0.962023 -0.234368
C10   C     C_R   0.236872 0.592228 0.051264 0.096000
C11   C     C_R   0.332499 0.536802 0.096013 -0.018475
C12   C     C_R   0.917733 0.499678 0.672364 0.830869
C13   C     C_R   0.090617 0.613134 0.096770 -0.211427
C14   C     C_R   0.037902 0.580043 0.186450 -0.291120
C15   C     C_R   0.272538 0.491452 0.183576 0.512063
C16   C     C_R   0.130059 0.063671 0.490330 0.064248
C17   C     C_R   0.004475 0.129222 0.489461 -0.090557
C18   C     C_R   0.884400 0.064427 0.475917 -0.196014
C19   C     C_R   0.884463 0.935574 0.475886 -0.181015
C20   C     C_R   0.004616 0.870804 0.489394 -0.169169
C21   C     C_R   0.130294 0.936423 0.490103 0.093747
C22   C     C_3   0.221958 0.930271 0.554373 0.457268
C23   C     C_R   0.000720 0.737705 0.498311 0.790833
C24   C     C_3   0.222019 0.070539 0.554372 -0.515136
C25   C     C_R   0.590328 0.595712 0.462225 0.295174
C26   C     C_R   0.554494 0.412433 0.545337 -0.018265
C27   C     C_R   0.405527 0.412472 0.545387 -0.079160
C28   C     C_R   0.442811 0.595972 0.462517 0.366846
C29   C     C_3   0.478345 0.637954 0.367448 -0.485755
C30   C     C_3   0.637671 0.636258 0.366816 -0.541018
C31   C     C_R   0.082093 0.501753 0.327888 0.853726
C32   C     C_R   0.871794 0.502568 0.771116 -0.157134
C33   C     C_R   0.128754 0.519991 0.230480 -0.135268
C34   C     C_R   0.929668 0.491420 0.913775 -0.200564
C35   C     C_R   0.974700 0.493313 0.820489 -0.279539
C36   C     C_R   0.723185 0.514344 0.816524 0.524072
Cu1   Cu    Cu3+1 0.140670 0.499980 0.500000 0.985603
Cu2   Cu    Cu3+1 0.859330 0.500020 0.500000 0.979724
H1    H     H_    0.815664 0.484457 0.090463 0.156573
H2    H     H_    0.018102 0.658628 0.063689 0.155727
H3    H     H_    0.788064 0.112574 0.469671 0.173356
H4    H     H_    0.788158 0.887385 0.469617 0.184713
H5    H     H_    0.166157 0.887309 0.619897 0.071783
H6    H     H_    0.163022 0.111054 0.620037 0.148802
H7    H     H_    0.330737 0.111679 0.522974 0.228439
H8    H     H_    0.594707 0.340251 0.580679 0.157467
H9    H     H_    0.334068 0.340519 0.580902 0.141997
H10   H     H_    0.451545 0.567891 0.322293 0.238874
H11   H     H_    0.436393 0.732331 0.360915 0.237897
H12   H     H_    0.700607 0.563793 0.322092 0.210222
H13   H     H_    0.688496 0.729499 0.359078 0.211512
H14   H     H_    0.927321 0.604081 0.221687 0.171314
H15   H     H_    0.217281 0.673057 0.927721 0.151362
H16   H     H_    0.010311 0.478083 0.950498 0.166075
H17   H     H_    0.089554 0.483351 0.787083 0.192006
H18   H     H_    0.564343 0.505003 0.169678 0.198677
H19   H     H_    0.467165 0.642488 0.848005 0.207899
N1    N     N_R   0.648210 0.500930 0.499430 -0.200306
N2    N     N_R   0.352300 0.500890 0.499430 -0.201457
O1    O     O_R   0.118810 0.319640 0.500000 -0.572875
O2    O     O_R   0.881230 0.319680 0.499990 -0.598975
O3    O     O_R   0.055580 0.499970 0.629840 -0.599891
O4    O     O_R   0.818000 0.500010 0.629830 -0.505040
O5    O     O_R   0.118770 0.680320 0.500010 -0.569293
O6    O     O_R   0.881190 0.680360 0.500000 -0.582572
O7    O     O_R   0.182000 0.499990 0.370170 -0.537500
O8    O     O_R   0.944420 0.500030 0.370160 -0.599025
F1    F     F_    0.358393 0.881933 0.514548 -0.667634
F2    F     F_    0.348160 0.411816 0.221900 -0.686639
F3    F     F_    0.622203 0.501463 0.769932 -0.681939

loop_
_geom_bond_atom_site_label_1
_geom_bond_atom_site_label_2
_ccdc_geom_bond_type
C31   O7    A    
C2    C4    A    
C30   H13   S    
C31   C33   S    
C34   H16   S    
C16   C21   A    
C2    C3    A    
C8    H19   S    
C12   O3    A    
C9    C10   A    
C1    C17   S    
C19   C20   A    
C20   C23   S    
C4    C8    A    
Cu2   O2    S    
Cu1   O7    S    
C23   O6    A    
C14   C33   A    
C17   C18   A    
C30   H12   S    
C16   C24   S    
C27   N2    A    
C13   C14   A    
C12   C32   S    
C25   C28   A    
C31   O8    A    
C26   N1    A    
C19   H4    S    
C22   F1    S    
C26   C27   A    
C29   C30   S    
C24   H6    S    
C24   H7    S    
C32   C36   A    
C7    H1    S    
C28   C29   S    
Cu1   Cu2   S    
C36   F3    S    
C5    C11   A    
C6    C7    A    
C3    C7    A    
C2    C36   A    
C5    C6    A    
C34   C35   A    
C15   F2    S    
C22   C24   S    
C28   N2    A    
Cu1   O1    S    
C9    H15   S    
C25   N1    A    
C26   H8    S    
C29   H10   S    
C35   H17   S    
C32   C35   A    
C23   O5    A    
Cu1   O5    S    
C18   C19   A    
Cu2   O8    S    
Cu2   O4    S    
C10   C11   A    
C1    O1    A    
C27   H9    S    
C25   C30   S    
C12   O4    A    
Cu1   O3    S    
C4    C5    A    
C13   H2    S    
C29   H11   S    
C3    C34   A    
C20   C21   A    
C21   C22   S    
Cu2   O6    S    
C11   C15   A    
Cu2   N1    S    
C15   C33   A    
C22   H5    S    
C14   H14   S    
Cu1   N2    S    
C18   H3    S    
C16   C17   A    
C6    H18   S    
C8    C9    A    
C10   C13   A    
C1    O2    A    
