data_mof_unit_39664.cif
_audit_creation_date              2012-12-11T14:39:29-0500
_audit_creation_method            fapswitch 2.2
_symmetry_space_group_name_H-M    P1
_symmetry_Int_Tables_number       1
_space_group_crystal_system       triclinic
_cell_length_a                    7.31901
_cell_length_b                    13.750327
_cell_length_c                    16.631547
_cell_angle_alpha                 90.00172
_cell_angle_beta                  97.133094
_cell_angle_gamma                 90.027673
_cell_volume                      1660.82400259

loop_
_atom_site_label
_atom_site_type_symbol
_atom_type_description
_atom_site_fract_x
_atom_site_fract_y
_atom_site_fract_z
_atom_type_partial_charge
O1    O     O_R   0.525340 0.338340 0.164530 -0.540343
O2    O     O_R   0.474660 0.661660 0.835470 -0.543661
O3    O     O_R   0.974660 0.838340 0.835470 -0.544742
O4    O     O_R   0.025340 0.161660 0.164530 -0.544952
O5    O     O_R   0.253520 0.352000 0.336710 -0.557031
O6    O     O_R   0.746480 0.648000 0.663290 -0.522056
O7    O     O_R   0.246480 0.852000 0.663290 -0.555306
O8    O     O_R   0.753520 0.148000 0.336710 -0.522974
O9    O     O_R   0.083330 0.168380 0.337300 -0.532837
O10   O     O_R   0.916670 0.831620 0.662700 -0.511248
O11   O     O_R   0.416670 0.668380 0.662700 -0.531593
O12   O     O_R   0.583330 0.331620 0.337300 -0.502428
C1    C     C_R   0.432590 0.369829 0.362752 0.907193
C2    C     C_R   0.569227 0.629288 0.637835 0.906545
C3    C     C_R   0.067436 0.870092 0.637430 0.899603
C4    C     C_R   0.930694 0.129039 0.361996 0.903470
O13   O     O_R   0.195840 0.349670 0.165140 -0.551285
O14   O     O_R   0.804160 0.650330 0.834860 -0.544676
O15   O     O_R   0.304160 0.849670 0.834860 -0.550355
O16   O     O_R   0.695840 0.150330 0.165140 -0.545749
C5    C     C_R   0.356822 0.370613 0.137017 0.791000
C6    C     C_R   0.642762 0.629345 0.862921 0.792183
C7    C     C_R   0.143002 0.871180 0.862604 0.785830
C8    C     C_R   0.857163 0.129439 0.137010 0.788286
O17   O     O_3   0.387830 0.193120 0.250910 -0.399399
O18   O     O_3   0.612170 0.806880 0.749090 -0.405980
O19   O     O_3   0.112170 0.693120 0.749090 -0.396035
O20   O     O_3   0.887830 0.306880 0.250910 -0.396898
V1    V     V_3+5 0.113010 0.264540 0.250910 1.390931
V2    V     V_3+5 0.886990 0.735460 0.749090 1.427633
V3    V     V_3+5 0.386990 0.764540 0.749090 1.380963
V4    V     V_3+5 0.613010 0.235460 0.250910 1.444784
H1    H     H_    0.872491 0.780602 0.273240 0.130393
H2    H     H_    0.999604 0.205608 0.731882 0.142621
H3    H     H_    0.624839 0.281027 0.726975 0.132507
H4    H     H_    0.484592 0.707619 0.268352 0.135434
C9    C     C_R   0.955857 0.205357 0.526290 0.353960
C10   C     C_R   0.013694 0.791848 0.473982 0.344556
C11   C     C_R   0.540833 0.705475 0.473458 0.362227
C12   C     C_R   0.487495 0.292176 0.525959 0.341732
C13   C     C_R   0.984380 0.241724 0.606399 0.381875
C14   C     C_R   0.958293 0.753276 0.396126 0.386644
C15   C     C_R   0.508088 0.742003 0.393576 0.395356
C16   C     C_R   0.543679 0.253893 0.603775 0.388617
C17   C     C_R   0.994981 0.177274 0.670909 -0.298230
C18   C     C_R   0.908431 0.814754 0.331564 -0.296109
C19   C     C_R   0.494680 0.677768 0.328912 -0.327756
C20   C     C_R   0.591605 0.315249 0.668487 -0.294870
C21   C     C_R   0.989840 0.076896 0.659058 0.375615
C22   C     C_R   0.895857 0.916030 0.340859 0.437762
C23   C     C_R   0.508464 0.576868 0.340433 0.411516
C24   C     C_R   0.604049 0.416499 0.659177 0.437281
C25   C     C_R   0.996851 0.037198 0.579864 -0.100663
C26   C     C_R   0.949354 0.958432 0.419392 -0.096934
C27   C     C_R   0.502312 0.537455 0.419879 -0.096288
C28   C     C_R   0.550765 0.458790 0.580547 -0.094873
C29   C     C_R   0.971700 0.101914 0.512120 -0.126843
C30   C     C_R   0.999655 0.895244 0.487104 -0.118105
C31   C     C_R   0.526442 0.602141 0.487633 -0.130412
C32   C     C_R   0.500938 0.395528 0.512848 -0.120691
C33   C     C_R   0.027447 0.935941 0.566989 -0.118199
C34   C     C_R   0.955436 0.061841 0.432033 -0.123994
C35   C     C_R   0.472822 0.436049 0.432967 -0.117423
C36   C     C_R   0.544149 0.562120 0.567797 -0.125934
H5    H     H_    0.137445 0.065265 0.058055 0.153048
H6    H     H_    0.867705 0.928934 0.947044 0.143958
H7    H     H_    0.361542 0.562508 0.940088 0.154916
H8    H     H_    0.632352 0.428564 0.052807 0.149346
C37   C     C_2   0.149859 0.941396 0.931153 -0.316332
C38   C     C_2   0.851339 0.059943 0.068002 -0.342538
C39   C     C_2   0.349430 0.439559 0.067575 -0.330380
C40   C     C_2   0.648450 0.559598 0.931750 -0.345730
C41   C     C_2   0.998879 0.963474 0.967288 -0.150708
C42   C     C_2   0.004723 0.034152 0.035039 -0.125759
C43   C     C_2   0.500577 0.461866 0.031616 -0.161973
C44   C     C_2   0.494634 0.532423 0.963783 -0.130158
H9    H     H_    0.719140 0.029090 0.043827 0.112319
H10   H     H_    0.280932 0.975405 0.952601 0.117462
H11   H     H_    0.780939 0.529649 0.956523 0.112909
H12   H     H_    0.218025 0.472802 0.045585 0.119530
O21   O     O_3   0.875132 0.265089 0.463942 -0.568909
C45   C     C_3   0.965428 0.355129 0.458329 -0.084196
H13   H     H_    0.114926 0.351611 0.478894 0.130303
H14   H     H_    0.898075 0.412633 0.490961 0.163044
H15   H     H_    0.948100 0.377982 0.394168 0.160983
O22   O     O_3   0.116225 0.735023 0.532979 -0.583655
C46   C     C_3   0.040693 0.642361 0.544832 -0.074577
H16   H     H_    0.109427 0.586117 0.511584 0.120006
H17   H     H_    0.889824 0.639255 0.529109 0.172213
H18   H     H_    0.070244 0.622938 0.609514 0.155581
O23   O     O_3   0.623935 0.765152 0.535344 -0.568345
C47   C     C_3   0.533874 0.855073 0.541700 -0.091663
H19   H     H_    0.384349 0.851837 0.521206 0.132336
H20   H     H_    0.601325 0.912921 0.509433 0.162215
H21   H     H_    0.551034 0.877046 0.605995 0.150364
O24   O     O_3   0.384123 0.235192 0.467276 -0.584033
C48   C     C_3   0.459169 0.142450 0.455324 -0.078590
H22   H     H_    0.388555 0.086119 0.487774 0.122516
H23   H     H_    0.609675 0.138720 0.471982 0.169822
H24   H     H_    0.431320 0.123595 0.390475 0.155653
O25   O     O_3   0.961392 0.339415 0.621784 -0.556241
C49   C     C_3   0.129157 0.379626 0.657416 -0.321920
H25   H     H_    0.228741 0.381199 0.613018 0.128299
H26   H     H_    0.188001 0.340584 0.713248 0.134920
H27   H     H_    0.104533 0.455990 0.674577 0.174891
O26   O     O_3   0.923551 0.655084 0.384552 -0.566040
C50   C     C_3   0.062386 0.613543 0.344807 -0.320125
H28   H     H_    0.192053 0.618294 0.385036 0.152450
H29   H     H_    0.075036 0.648430 0.285414 0.133001
H30   H     H_    0.030736 0.535481 0.333794 0.168884
O27   O     O_3   0.534890 0.839429 0.378156 -0.555131
C51   C     C_3   0.368804 0.881769 0.343000 -0.322032
H31   H     H_    0.271726 0.886567 0.388268 0.128160
H32   H     H_    0.305109 0.842482 0.288115 0.133511
H33   H     H_    0.397565 0.957138 0.324453 0.175091
O28   O     O_3   0.569934 0.155275 0.616397 -0.569558
C52   C     C_3   0.419041 0.118108 0.650512 -0.330888
H34   H     H_    0.293130 0.137910 0.611461 0.155768
H35   H     H_    0.416086 0.144395 0.713559 0.145361
H36   H     H_    0.425409 0.037702 0.651084 0.154768
O29   O     O_3   0.985622 0.019330 0.726931 -0.577915
C53   C     C_3   0.807409 0.025004 0.750994 -0.134483
H37   H     H_    0.707609 0.986555 0.706548 0.149149
H38   H     H_    0.762279 0.100921 0.760314 0.127246
H39   H     H_    0.805858 0.988897 0.810019 0.144485
O30   O     O_3   0.830146 0.974949 0.274999 -0.561499
C54   C     C_3   0.709969 0.927080 0.213969 -0.255677
H40   H     H_    0.614216 0.980513 0.182112 0.158647
H41   H     H_    0.790584 0.893162 0.169054 0.129310
H42   H     H_    0.619729 0.872344 0.237773 0.164826
O31   O     O_3   0.518298 0.515976 0.274216 -0.565233
C55   C     C_3   0.634954 0.553138 0.219536 -0.243274
H43   H     H_    0.743430 0.602959 0.247669 0.159750
H44   H     H_    0.551205 0.591235 0.168903 0.138813
H45   H     H_    0.708351 0.492057 0.194454 0.170502
O32   O     O_3   0.669051 0.475411 0.725154 -0.561488
C56   C     C_3   0.789128 0.427553 0.786215 -0.250368
H46   H     H_    0.885385 0.480892 0.817936 0.158797
H47   H     H_    0.708420 0.393818 0.831194 0.131059
H48   H     H_    0.878957 0.372614 0.762515 0.163563

loop_
_geom_bond_atom_site_label_1
_geom_bond_atom_site_label_2
_ccdc_geom_bond_type
C16   C20   A    
C46   H16   S    
O1    C5    A    
O30   C54   S    
C12   C32   A    
C27   C31   A    
O13   V1    S    
C41   C42   S    
C7    C37   S    
O3    C7    A    
O27   C51   S    
C40   C44   D    
O15   V3    S    
C51   H32   S    
O21   C45   S    
C8    C38   S    
C29   C34   A    
H8    C43   S    
C56   H47   S    
C31   C36   A    
O25   C49   S    
C4    C34   S    
C5    C39   S    
C32   C35   A    
O20   V1    S    
O9    C4    A    
C10   C14   A    
C40   H11   S    
O10   C3    A    
C52   H35   S    
O16   V4    S    
O4    C8    A    
O11   C2    A    
O26   C50   S    
O28   C52   S    
C49   H27   S    
C14   C18   A    
C6    C40   S    
C51   H31   S    
C10   C30   A    
C25   C33   A    
O16   C8    A    
C55   H43   S    
C27   C35   A    
O2    C6    A    
C50   H28   S    
C28   C36   A    
C37   C41   D    
C22   O30   S    
O5    C1    A    
O4    V1    S    
O9    V1    S    
O17   V4    S    
O7    C3    A    
C21   O29   S    
O18   V3    S    
O8    C4    A    
O12   V4    S    
C38   H9    S    
H1    C18   S    
C50   H29   S    
C9    O21   S    
C37   H10   S    
C15   O27   S    
C12   O24   S    
H3    C20   S    
C11   O23   S    
C39   H12   S    
C48   H23   S    
C48   H22   S    
O5    V1    S    
C56   H48   S    
O7    V3    S    
O8    V4    S    
C52   H36   S    
O23   C47   S    
C25   C29   A    
O22   C46   S    
C19   C23   A    
C26   C34   A    
H6    C41   S    
O1    V4    S    
O13   C5    A    
H5    C42   S    
C28   C32   A    
O2    V3    S    
O3    V2    S    
O15   C7    A    
C43   C44   S    
C54   H41   S    
C38   C42   D    
O6    C2    A    
O10   V2    S    
C1    C35   S    
C17   C21   A    
C11   C31   A    
O24   C48   S    
C47   H20   S    
C3    C33   S    
H2    C17   S    
C22   C26   A    
C49   H26   S    
C14   O26   S    
O29   C53   S    
O14   V2    S    
C2    C36   S    
O6    V2    S    
C10   O22   S    
C45   H14   S    
C46   H17   S    
C24   O32   S    
C50   H30   S    
H4    C19   S    
C53   H38   S    
O31   C55   S    
C48   H24   S    
C26   C30   A    
C23   O31   S    
O14   C6    A    
O32   C56   S    
C11   C15   A    
C45   H15   S    
C56   H46   S    
C18   C22   A    
C53   H39   S    
C54   H42   S    
C52   H34   S    
C39   C43   D    
C30   C33   A    
C55   H45   S    
C21   C25   A    
C47   H19   S    
C13   O25   S    
C23   C27   A    
C47   H21   S    
C9    C13   A    
C49   H25   S    
O11   V3    S    
C24   C28   A    
C12   C16   A    
O12   C1    A    
C16   O28   S    
C55   H44   S    
C45   H13   S    
C46   H18   S    
C13   C17   A    
H7    C44   S    
C53   H37   S    
C20   C24   A    
C15   C19   A    
C51   H33   S    
C9    C29   A    
C54   H40   S    
O19   V2    S    
