data_mof_unit_43465.cif
_audit_creation_date              2013-03-05T16:40:44-0500
_audit_creation_method            fapswitch 2.2
_symmetry_space_group_name_H-M    P1
_symmetry_Int_Tables_number       1
_space_group_crystal_system       triclinic
_cell_length_a                    17.893633
_cell_length_b                    16.570692
_cell_length_c                    10.839619
_cell_angle_alpha                 93.822659
_cell_angle_beta                  93.3189
_cell_angle_gamma                 90.896469
_cell_volume                      3200.91089005

loop_
_atom_site_label
_atom_site_type_symbol
_atom_site_description
_atom_site_fract_x
_atom_site_fract_y
_atom_site_fract_z
_atom_type_partial_charge
O1    O     O_R   0.391260 0.567930 0.500000 -0.515415
O2    O     O_R   0.608740 0.432070 0.500000 -0.544230
O3    O     O_R   0.608740 0.567930 0.500000 -0.530817
O4    O     O_R   0.391260 0.432070 0.500000 -0.540064
C1    C     C_R   0.354730 0.499483 0.500676 0.863365
C2    C     C_R   0.645030 0.500465 0.498489 0.883979
O5    O     O_R   0.500000 0.567910 0.319660 -0.560596
O6    O     O_R   0.500000 0.432090 0.680340 -0.572600
O7    O     O_R   0.500000 0.567910 0.680340 -0.552508
O8    O     O_R   0.500000 0.432090 0.319660 -0.584782
C3    C     C_R   0.509503 0.497424 0.262331 0.832164
C4    C     C_R   0.492194 0.502395 0.738544 0.809833
Cu1   Cu    Cu3+1 0.500000 0.580420 0.500000 1.095105
Cu2   Cu    Cu3+1 0.500000 0.419580 0.500000 1.091366
H1    H     H_    0.494985 0.214655 0.023109 0.187014
H2    H     H_    0.507692 0.782673 0.976834 0.151576
H3    H     H_    0.398406 0.241348 0.864133 0.179881
H4    H     H_    0.605179 0.758437 0.137280 0.143573
C5    C     C_R   0.583628 0.629373 0.129390 0.013801
C6    C     C_R   0.420813 0.370443 0.874562 0.004741
C7    C     C_R   0.486298 0.655658 0.924658 0.024738
C8    C     C_R   0.517674 0.341419 0.079157 0.015435
C9    C     C_R   0.574263 0.707475 0.090303 -0.142760
C10   C     C_R   0.430402 0.291646 0.910753 -0.081095
C11   C     C_R   0.521492 0.720982 0.995058 -0.034637
C12   C     C_R   0.483341 0.276842 0.004927 0.002531
C13   C     C_R   0.503609 0.575625 0.953014 0.065710
C14   C     C_R   0.502826 0.422160 0.049343 -0.006163
C15   C     C_R   0.538848 0.564777 0.070437 0.107168
C16   C     C_R   0.467997 0.433333 0.931501 0.032047
C17   C     C_R   0.480792 0.506442 0.875362 -0.167286
C18   C     C_R   0.524838 0.491980 0.127025 -0.174860
C19   C     C_R   0.851738 0.559988 0.568226 -0.174580
C20   C     C_R   0.151970 0.420652 0.502063 -0.148978
C21   C     C_R   0.151480 0.564777 0.542012 -0.172498
C22   C     C_R   0.844629 0.427409 0.463446 -0.142060
H5    H     H_    0.885539 0.610725 0.609619 0.193624
H6    H     H_    0.121342 0.363497 0.487089 0.191774
H7    H     H_    0.120164 0.619482 0.559387 0.192726
H8    H     H_    0.872633 0.375313 0.423086 0.190685
C23   C     C_R   0.773949 0.566939 0.553679 0.294050
C24   C     C_R   0.229295 0.422742 0.490018 0.308652
C25   C     C_R   0.228973 0.570081 0.530942 0.335686
C26   C     C_R   0.766680 0.431792 0.448565 0.357923
C27   C     C_R   0.728957 0.500551 0.498891 -0.237981
C28   C     C_R   0.270802 0.497774 0.507874 -0.292780
C29   C     C_R   0.886682 0.490523 0.524602 -0.011770
C30   C     C_R   0.113555 0.490906 0.528730 -0.009889
C31   C     C_1   0.966656 0.488135 0.530401 0.049899
C32   C     C_1   0.033751 0.488366 0.531695 0.049364
C33   C     C_R   0.556214 0.834594 0.562813 -0.177389
C34   C     C_R   0.443257 0.165753 0.437481 -0.160846
C35   C     C_R   0.450774 0.824789 0.414152 -0.166189
C36   C     C_R   0.548859 0.175326 0.586459 -0.162995
C37   C     C_R   0.547615 0.750356 0.579920 0.443724
C38   C     C_R   0.451765 0.250009 0.420742 0.496795
C39   C     C_R   0.453636 0.738526 0.414812 0.457110
C40   C     C_R   0.547473 0.261585 0.583537 0.470274
N1    N     N_R   0.500000 0.701220 0.500000 -0.315509
N2    N     N_R   0.500000 0.298780 0.500000 -0.311141
C41   C     C_R   0.502568 0.873540 0.489827 -0.133735
C42   C     C_R   0.496562 0.126782 0.511246 -0.120600
C43   C     C_1   0.500104 0.963104 0.496506 -0.025854
C44   C     C_1   0.498747 0.037193 0.504788 -0.023350
C45   C     C_2   0.645040 0.616649 0.222860 0.395027
H9    H     H_    0.670090 0.668068 0.277972 0.126059
O9    O     O_2   0.671051 0.549716 0.234186 -0.559489
C46   C     C_2   0.355340 0.388512 0.791646 0.468029
H10   H     H_    0.349682 0.447430 0.754741 0.052087
O10   O     O_2   0.304150 0.339109 0.770303 -0.479110
C47   C     C_2   0.420779 0.673089 0.842973 0.485023
H11   H     H_    0.417521 0.730265 0.799742 0.090634
O11   O     O_2   0.367717 0.625465 0.829802 -0.510388
C48   C     C_2   0.576246 0.323318 0.174602 0.525817
H12   H     H_    0.610113 0.372149 0.220238 0.125440
O12   O     O_2   0.587597 0.254163 0.202477 -0.492617
N3    N     N_R   0.743666 0.643761 0.589214 0.178787
O13   O     O_R   0.766816 0.680646 0.694642 -0.250443
O14   O     O_R   0.713038 0.686364 0.504134 -0.337569
N4    N     N_R   0.261970 0.348437 0.447760 0.174924
O15   O     O_R   0.234988 0.311866 0.344358 -0.246514
O16   O     O_R   0.299425 0.306354 0.526266 -0.293581
N5    N     N_R   0.261138 0.650264 0.536060 0.174196
O17   O     O_R   0.225411 0.706345 0.479607 -0.268641
O18   O     O_R   0.313602 0.672535 0.619369 -0.320113
N6    N     N_R   0.729004 0.370850 0.367314 0.112822
O19   O     O_R   0.699602 0.308130 0.413472 -0.272099
O20   O     O_R   0.747322 0.364052 0.252627 -0.315134
C49   C     C_2   0.622755 0.881804 0.619347 0.554694
H13   H     H_    0.621076 0.946884 0.635251 0.039726
O21   O     O_2   0.681716 0.848577 0.643705 -0.408296
C50   C     C_2   0.377103 0.118445 0.379704 0.554247
H14   H     H_    0.379034 0.053425 0.363495 0.037707
O22   O     O_2   0.318164 0.151474 0.354552 -0.407625
C51   C     C_2   0.396582 0.864259 0.329148 0.506815
H15   H     H_    0.410522 0.922311 0.295174 0.040456
O23   O     O_2   0.335441 0.833388 0.297926 -0.421568
C52   C     C_2   0.601889 0.135385 0.672974 0.500643
H16   H     H_    0.586748 0.077733 0.707179 0.041229
O24   O     O_2   0.663288 0.165165 0.705317 -0.425716
N7    N     N_R   0.581049 0.722457 0.693348 0.145798
O25   O     O_R   0.613742 0.653638 0.697859 -0.271939
O26   O     O_R   0.589028 0.772501 0.790960 -0.392188
N8    N     N_R   0.417899 0.278375 0.307790 0.156862
O27   O     O_R   0.411171 0.229170 0.209085 -0.367656
O28   O     O_R   0.383397 0.346277 0.304700 -0.273612
N9    N     N_R   0.411338 0.691270 0.318588 0.173114
O29   O     O_R   0.344369 0.665630 0.336993 -0.247787
O30   O     O_R   0.428823 0.696657 0.204854 -0.383624
N10   N     N_R   0.594577 0.309405 0.672813 0.174768
O31   O     O_R   0.578517 0.311796 0.788345 -0.372215
O32   O     O_R   0.663126 0.326114 0.648405 -0.257335

loop_
_geom_bond_atom_site_label_1
_geom_bond_atom_site_label_2
_geom_bond_distance
_ccdc_geom_bond_type
C24   N4    1.430417 S    
N7    O25   1.292330 A    
C2    C27   1.501505 S    
C37   N1    1.392164 A    
C35   C51   1.487891 S    
C25   N5    1.436073 S    
C21   H7    1.084691 S    
C51   H15   1.083306 S    
C20   C24   1.397387 A    
O3    C2    1.301234 A    
N8    O28   1.293319 A    
C29   C31   1.430045 S    
C6    C16   1.416392 A    
N3    O13   1.302025 A    
O5    C3    1.304216 A    
C48   O12   1.221509 D    
C7    C47   1.471853 S    
O1    C1    1.300853 A    
C10   C12   1.388603 A    
C15   C18   1.414645 A    
C23   N3    1.429286 S    
C16   C17   1.412845 A    
N6    O20   1.302012 A    
C39   N1    1.388013 A    
C13   C15   1.411072 A    
C40   N2    1.386776 A    
C22   C29   1.387306 A    
C24   C28   1.434339 A    
C41   C43   1.482542 S    
O7    Cu1   1.979472 S    
N10   O31   1.299189 A    
C42   C44   1.482769 S    
C35   C41   1.408766 A    
C6    C10   1.398495 A    
C46   H10   1.083493 S    
C45   O9    1.220470 D    
C33   C41   1.401210 A    
N9    O29   1.295887 A    
C49   O21   1.221167 D    
C21   C25   1.400614 A    
O3    Cu1   1.959946 S    
C30   C32   1.430226 S    
C7    C13   1.416135 A    
N7    O26   1.299757 A    
C8    C14   1.422658 A    
Cu1   Cu2   2.665232 S    
N9    O30   1.297760 A    
O2    C2    1.298888 A    
C26   N6    1.428749 S    
C21   C30   1.385232 A    
N8    O27   1.299902 A    
C25   C28   1.438118 A    
N3    O14   1.299860 A    
H3    C10   1.083156 S    
C48   H12   1.078558 S    
C13   C17   1.416449 A    
H4    C9    1.083455 S    
C14   C18   1.421327 A    
C38   N8    1.444630 S    
N4    O16   1.298968 A    
O8    Cu2   1.979474 S    
C47   O11   1.220868 D    
C35   C39   1.431621 A    
N6    O19   1.299998 A    
N4    O15   1.301635 A    
H1    C12   1.083140 S    
C36   C42   1.410007 A    
C19   H5    1.084604 S    
C38   N2    1.391364 A    
C20   H6    1.084744 S    
C5    C9    1.397946 A    
N5    O17   1.302255 A    
C22   H8    1.084573 S    
O6    C4    1.300803 A    
C50   O22   1.220989 D    
C39   N9    1.433562 S    
C3    C18   1.504753 S    
C52   H16   1.083650 S    
C52   O24   1.220188 D    
C4    C17   1.505907 S    
C19   C29   1.386986 A    
C22   C26   1.398359 A    
C20   C30   1.383646 A    
C8    C48   1.477983 S    
C5    C15   1.420855 A    
C26   C27   1.426614 A    
C36   C40   1.432404 A    
H2    C11   1.083614 S    
C7    C11   1.401266 A    
O6    Cu2   1.951985 S    
N5    O18   1.295966 A    
C40   N10   1.434292 S    
C6    C46   1.481523 S    
O4    C1    1.302880 A    
C51   O23   1.220516 D    
Cu1   N1    2.001738 S    
Cu2   N2    2.001738 S    
C1    C28   1.508219 S    
C37   N7    1.443128 S    
C19   C23   1.399160 A    
C14   C16   1.413254 A    
C47   H11   1.085549 S    
C45   H9    1.083027 S    
C34   C42   1.402119 A    
C33   C49   1.492533 S    
C50   H14   1.081450 S    
C5    C45   1.478297 S    
C33   C37   1.427467 A    
C9    C11   1.390018 A    
O4    Cu2   1.959950 S    
O2    Cu2   1.953506 S    
O7    C4    1.301132 A    
N10   O32   1.299199 A    
C34   C50   1.492531 S    
O8    C3    1.297442 A    
C43   C44   1.225718 T    
O5    Cu1   1.951987 S    
O1    Cu1   1.953509 S    
C46   O10   1.220436 D    
C31   C32   1.199786 T    
C8    C12   1.406166 A    
C23   C27   1.428589 A    
C36   C52   1.489054 S    
C49   H13   1.081862 S    
C34   C38   1.426811 A    
