data_mof_unit_46428.cif
_audit_creation_date              2012-10-26T19:39:06-0400
_audit_creation_method            fapswitch 2.2
_symmetry_space_group_name_H-M    P1
_symmetry_Int_Tables_number       1
_space_group_crystal_system       triclinic
_cell_length_a                    12.164169
_cell_length_b                    12.565891
_cell_length_c                    7.449342
_cell_angle_alpha                 89.52502
_cell_angle_beta                  107.761317
_cell_angle_gamma                 90.312457
_cell_volume                      1084.34299615

loop_
_atom_site_label
_atom_site_type_symbol
_atom_type_description
_atom_site_fract_x
_atom_site_fract_y
_atom_site_fract_z
_atom_type_partial_charge
C1    C     C_R   0.350849 0.850341 0.455477 0.620923
C2    C     C_2   0.717663 0.756236 0.559111 -0.005883
C3    C     C_2   0.751040 0.213205 0.564974 -0.052628
C4    C     C_2   0.283964 0.755476 0.443807 -0.023037
C5    C     C_2   0.782266 0.743708 0.440850 -0.002699
C6    C     C_2   0.236219 0.269944 0.575397 0.000406
C7    C     C_2   0.214765 0.745496 0.554956 -0.051673
C8    C     C_2   0.745372 0.289640 0.433326 -0.010425
C9    C     C_2   0.807305 0.829990 0.319573 0.220752
C10   C     C_2   0.264293 0.214710 0.761883 0.273031
C11   C     C_2   0.184129 0.833752 0.664164 0.257250
C12   C     C_R   0.653529 0.145832 0.545593 0.509112
C13   C     C_2   0.635062 0.322580 0.288639 0.255989
C14   C     C_2   0.265929 0.306075 0.261246 0.229562
C15   C     C_2   0.692626 0.669955 0.680400 0.223984
C16   C     C_2   0.858750 0.178799 0.712013 0.280095
C17   C     C_2   0.313904 0.664459 0.339385 0.233328
C18   C     C_R   0.650210 0.850898 0.545505 0.563914
C19   C     C_R   0.350663 0.149709 0.454591 0.547502
C20   C     C_R   0.844205 0.356342 0.453661 0.637360
C21   C     C_R   0.148966 0.649934 0.544409 0.486505
C22   C     C_R   0.153293 0.353673 0.547308 0.590288
C23   C     C_R   0.849754 0.649074 0.454482 0.565687
C24   C     C_2   0.279980 0.242367 0.435607 -0.034898
Cu1   Cu    Cu3+1 0.517640 0.000000 0.687200 1.022965
Cu2   Cu    Cu3+1 0.482360 1.000000 0.312800 1.062707
Cu3   Cu    Cu3+1 0.017640 0.500000 0.687200 1.065489
Cu4   Cu    Cu3+1 0.982360 0.500000 0.312800 1.046676
H1    H     H_    0.376800 0.998481 0.928968 0.276568
H2    H     H_    0.675909 0.690211 0.811029 0.127523
H3    H     H_    0.854038 0.146024 0.844758 0.133400
H4    H     H_    0.299082 0.583418 0.376137 0.175552
H5    H     H_    0.623206 0.001445 0.071032 0.266394
H6    H     H_    0.876830 0.496690 0.929073 0.270135
H7    H     H_    0.123009 0.504494 0.070782 0.274677
H8    H     H_    0.823909 0.809747 0.188850 0.121279
H9    H     H_    0.350239 0.221416 0.861732 0.117445
H10   H     H_    0.158607 0.815284 0.788452 0.145474
H11   H     H_    0.551927 0.297552 0.299856 0.142711
H12   H     H_    0.228048 0.270207 0.124416 0.170145
N1    N     N_2   0.455760 1.000000 0.031460 -0.260584
N2    N     N_2   0.544240 0.000000 0.968540 -0.266373
N3    N     N_2   0.955760 0.500000 0.031460 -0.262949
N4    N     N_2   0.044240 0.500000 0.968540 -0.257512
O1    O     O_R   0.398880 0.887420 0.621600 -0.494073
O2    O     O_R   0.630920 0.112580 0.694560 -0.508816
O3    O     O_R   0.630920 0.887420 0.694560 -0.532521
O4    O     O_R   0.369080 0.112580 0.305440 -0.511889
O5    O     O_R   0.869080 0.387420 0.305440 -0.458751
O6    O     O_R   0.130920 0.612580 0.694560 -0.503785
O7    O     O_R   0.130920 0.387420 0.694560 -0.474802
O8    O     O_R   0.869080 0.612580 0.305440 -0.514485
O9    O     O_2   0.817124 0.922772 0.369868 -0.483301
O10   O     O_2   0.191212 0.161986 0.803959 -0.429889
O11   O     O_2   0.179811 0.926201 0.610544 -0.452785
O12   O     O_R   0.601120 0.112580 0.378400 -0.516670
O13   O     O_2   0.635809 0.380873 0.156999 -0.459946
O14   O     O_2   0.302874 0.396881 0.270698 -0.534520
O15   O     O_2   0.682938 0.577153 0.630219 -0.487118
O16   O     O_2   0.951784 0.179927 0.681616 -0.416731
O17   O     O_2   0.358323 0.679156 0.214653 -0.458988
O18   O     O_R   0.601120 0.887420 0.378400 -0.467973
O19   O     O_R   0.398880 0.112580 0.621600 -0.509949
O20   O     O_R   0.898880 0.387420 0.621600 -0.486211
O21   O     O_R   0.101120 0.612580 0.378400 -0.530663
O22   O     O_R   0.101120 0.387420 0.378400 -0.500878
O23   O     O_R   0.898880 0.612580 0.621600 -0.494466
O24   O     O_R   0.369080 0.887420 0.305440 -0.456954

loop_
_geom_bond_atom_site_label_1
_geom_bond_atom_site_label_2
_ccdc_geom_bond_type
Cu1   N2    S    
C6    C10   S    
C9    H8    S    
Cu4   O22   S    
N3    N4    D    
C20   O20   A    
C8    C13   S    
C2    C15   S    
C11   H10   S    
C20   O5    A    
N1    N2    D    
Cu1   O3    S    
Cu4   N3    S    
C5    C23   S    
Cu3   O6    S    
Cu2   O4    S    
C1    C4    S    
Cu2   O24   S    
C18   O3    A    
Cu4   O21   S    
Cu2   O18   S    
C6    C24   D    
C19   O19   A    
C12   O12   A    
C16   H3    S    
C7    C11   S    
H7    N4    S    
Cu4   O8    S    
C1    O1    A    
C23   O8    A    
C8    C20   S    
C9    O9    D    
C23   O23   A    
C4    C7    D    
C14   O14   D    
C4    C17   S    
Cu1   O2    S    
C21   O21   A    
C21   O6    A    
Cu3   O7    S    
C19   C24   S    
C10   H9    S    
C11   O11   D    
Cu1   O19   S    
C10   O10   D    
H1    N1    S    
C13   H11   S    
C2    C5    D    
Cu3   O23   S    
Cu3   O20   S    
H5    N2    S    
C14   H12   S    
C6    C22   S    
Cu1   O1    S    
C1    O24   A    
C13   O13   D    
H6    N3    S    
C15   H2    S    
C12   O2    A    
C3    C8    D    
C16   O16   D    
C14   C24   S    
Cu3   Cu4   S    
C17   H4    S    
C19   O4    A    
C18   O18   A    
C3    C12   S    
C17   O17   D    
Cu1   Cu2   S    
C7    C21   S    
C15   O15   D    
Cu3   N4    S    
C22   O7    A    
C22   O22   A    
C3    C16   S    
Cu2   N1    S    
C5    C9    S    
C2    C18   S    
Cu4   O5    S    
Cu2   O12   S    
