data_mof_unit_57840.cif
_audit_creation_date              2012-12-10T19:45:46-0500
_audit_creation_method            fapswitch 2.2
_symmetry_space_group_name_H-M    P1
_symmetry_Int_Tables_number       1
_space_group_crystal_system       triclinic
_cell_length_a                    11.061721
_cell_length_b                    14.825248
_cell_length_c                    14.807355
_cell_angle_alpha                 64.776199
_cell_angle_beta                  106.517451
_cell_angle_gamma                 101.662162
_cell_volume                      2096.90700697

loop_
_atom_site_label
_atom_site_type_symbol
_atom_type_description
_atom_site_fract_x
_atom_site_fract_y
_atom_site_fract_z
_atom_type_partial_charge
C1    C     C_R   0.478887 0.119411 0.311148 0.783971
C2    C     C_R   0.660675 0.770358 0.979157 -0.180840
C3    C     C_R   0.398310 0.157442 0.118590 0.022110
C4    C     C_R   0.622222 0.843291 0.880612 0.008488
C5    C     C_R   0.500050 0.289806 0.176455 -0.196822
C6    C     C_R   0.514034 0.710804 0.824464 -0.242455
C7    C     C_R   0.476128 0.362277 0.075083 0.093700
C8    C     C_R   0.540702 0.638233 0.925450 0.085758
C9    C     C_R   0.392383 0.333034 0.997689 0.097093
C10   C     C_R   0.623497 0.667831 0.002530 0.102570
C11   C     C_R   0.529331 0.463671 0.050087 0.054213
C12   C     C_R   0.525939 0.880615 0.689013 0.745670
C13   C     C_R   0.488576 0.536737 0.950719 0.042727
C14   C     C_R   0.393736 0.507169 0.879875 -0.249985
C15   C     C_R   0.623704 0.493678 0.121251 -0.209597
C16   C     C_R   0.262513 0.997420 0.503527 0.789427
C17   C     C_R   0.737736 0.996220 0.503655 0.774926
C18   C     C_R   0.348973 0.407371 0.899562 0.094610
C19   C     C_R   0.666603 0.594137 0.100913 0.076276
C20   C     C_R   0.685469 0.268931 0.693295 -0.124352
C21   C     C_R   0.334086 0.739225 0.299806 -0.108187
C22   C     C_R   0.678673 0.203476 0.644171 0.096538
C23   C     C_R   0.871716 0.985135 0.512200 -0.174321
C24   C     C_R   0.338520 0.807964 0.343826 0.107034
C25   C     C_R   0.511108 0.282776 0.511541 0.014396
C26   C     C_R   0.463760 0.705102 0.499851 0.008797
C27   C     C_R   0.526443 0.361324 0.547365 -0.023554
C28   C     C_R   0.435069 0.623030 0.467176 -0.038954
C29   C     C_R   0.602268 0.346256 0.647215 0.107089
C30   C     C_R   0.366726 0.641119 0.364940 -0.031292
C31   C     C_R   0.466618 0.452703 0.488349 0.023274
C32   C     C_R   0.480048 0.526092 0.530097 0.124457
C33   C     C_R   0.533765 0.499075 0.634604 -0.243578
C34   C     C_R   0.128368 0.986011 0.513550 -0.154770
C35   C     C_R   0.393289 0.472628 0.388812 -0.241067
C36   C     C_R   0.591116 0.410127 0.694458 0.002769
C37   C     C_R   0.335142 0.561152 0.330520 -0.013485
C38   C     C_R   0.315827 0.175761 0.717622 -0.011450
C39   C     C_R   0.691242 0.926771 0.210553 -0.028646
C40   C     C_R   0.259102 0.094648 0.688966 0.038890
C41   C     C_R   0.772261 0.965560 0.281285 -0.001537
C42   C     C_R   0.171813 0.114077 0.593450 -0.057402
C43   C     C_R   0.804810 0.901137 0.386041 -0.064326
C44   C     C_R   0.146212 0.213616 0.525279 0.019618
C45   C     C_R   0.903663 0.938257 0.457796 -0.080343
C46   C     C_R   0.756599 0.798645 0.420676 0.041418
C47   C     C_R   0.197068 0.292598 0.558244 0.071112
C48   C     C_R   0.692391 0.758741 0.346440 0.036408
C49   C     C_R   0.283236 0.272587 0.652341 -0.367256
C50   C     C_R   0.655782 0.823886 0.243992 -0.356183
C51   C     C_R   0.969892 0.008638 0.585165 0.084613
C52   C     C_R   0.031700 0.922124 0.475485 0.069150
C53   C     C_2   0.626198 0.387525 0.806310 0.419859
C54   C     C_2   0.234093 0.563618 0.238064 0.548413
C55   C     C_2   0.249560 0.887596 0.289291 0.276657
C56   C     C_R   0.093212 0.031136 0.568018 -0.089265
C57   C     C_2   0.776365 0.135148 0.681611 0.379060
C58   C     C_2   0.783683 0.254731 0.789901 0.529880
C59   C     C_2   0.317157 0.777168 0.186062 0.306709
C60   C     C_2   0.406930 0.164273 0.815776 0.496480
C61   C     C_2   0.641633 0.988891 0.100809 0.497499
C62   C     C_2   0.287176 0.989891 0.757074 0.406236
C63   C     C_2   0.828606 0.071133 0.247853 0.466505
C64   C     C_2   0.070507 0.233602 0.419088 0.460767
C65   C     C_2   0.782100 0.736535 0.533553 0.382398
C66   C     C_2   0.157553 0.395884 0.500978 0.392006
C67   C     C_R   0.461000 0.187760 0.200310 -0.156215
C68   C     C_2   0.671306 0.650307 0.368547 0.396831
C69   C     C_3   0.955193 0.969485 0.694425 -0.334992
C70   C     C_3   0.993463 0.862092 0.756551 -0.400571
C71   C     C_3   0.993062 0.828133 0.869430 -0.718725
C72   C     C_3   0.060020 0.831912 0.463076 -0.337974
C73   C     C_3   0.117709 0.751698 0.566429 -0.328688
C74   C     C_3   0.142712 0.661972 0.551806 -0.835581
C75   C     C_3   0.256768 0.387929 0.810466 -0.481476
C76   C     C_3   0.125679 0.419902 0.791739 -0.308681
C77   C     C_3   0.040764 0.412260 0.693441 -0.677711
C78   C     C_R   0.552365 0.812775 0.800063 -0.135851
C79   C     C_3   0.751631 0.618870 0.189024 -0.406788
C80   C     C_3   0.891124 0.642515 0.183686 -0.351976
C81   C     C_3   0.968061 0.671067 0.272877 -0.712703
C82   C     C_2   0.657552 0.949289 0.866696 0.320619
C83   C     C_2   0.382323 0.052203 0.128713 0.413955
C84   C     C_R   0.354951 0.230539 0.021345 -0.118452
Cu1   Cu    Cu3+1 0.466270 0.918260 0.475690 0.920677
Cu2   Cu    Cu3+1 0.533730 0.081740 0.524310 0.949393
H1    H     H_    0.327544 0.334039 0.674481 0.123025
H2    H     H_    0.375300 0.418300 0.355320 0.194861
H3    H     H_    0.466765 0.688765 0.761810 0.150459
H4    H     H_    0.546041 0.312088 0.239255 0.160070
H5    H     H_    0.650037 0.448652 0.832217 0.084289
H6    H     H_    0.164546 0.617319 0.204454 0.041093
H7    H     H_    0.258855 0.950994 0.308245 0.158948
H8    H     H_    0.749072 0.056946 0.704124 0.089102
H9    H     H_    0.807142 0.179906 0.843491 0.143681
H10   H     H_    0.259397 0.837354 0.134059 0.204564
H11   H     H_    0.410847 0.216038 0.850413 0.089471
H12   H     H_    0.602110 0.793686 0.188096 0.180989
H13   H     H_    0.597101 0.952563 0.047965 0.126038
H14   H     H_    0.294167 0.938677 0.724345 0.030443
H15   H     H_    0.832294 0.114357 0.292158 0.029216
H16   H     H_    0.990731 0.182110 0.404138 0.052520
H17   H     H_    0.833313 0.770190 0.587064 0.052985
H18   H     H_    0.216274 0.457242 0.517950 0.041961
H19   H     H_    0.590790 0.622451 0.322635 0.090435
H20   H     H_    0.061821 0.877521 0.903100 0.297538
H21   H     H_    0.897017 0.829906 0.877847 0.248971
H22   H     H_    0.020273 0.750286 0.912317 0.241993
H23   H     H_    0.294733 0.204782 0.964372 0.163917
H24   H     H_    0.925034 0.810322 0.726168 0.207732
H25   H     H_    0.088363 0.855640 0.750051 0.229236
H26   H     H_    0.011351 0.020027 0.732205 0.255485
H27   H     H_    0.855103 0.963745 0.695181 0.179780
H28   H     H_    0.051380 0.621394 0.528736 0.278919
H29   H     H_    0.196680 0.686117 0.491560 0.260759
H30   H     H_    0.198990 0.611150 0.624332 0.230663
H31   H     H_    0.207656 0.781657 0.605080 0.235812
H32   H     H_    0.051433 0.725935 0.618437 0.209469
H33   H     H_    0.977215 0.794438 0.426852 0.197427
H34   H     H_    0.718690 0.795469 0.037793 0.176179
H35   H     H_    0.117986 0.855435 0.407721 0.225147
H36   H     H_    0.089005 0.451377 0.629232 0.221274
H37   H     H_    0.017315 0.332641 0.703652 0.291167
H38   H     H_    0.952447 0.448222 0.672361 0.289682
H39   H     H_    0.082597 0.371045 0.857907 0.278149
H40   H     H_    0.133101 0.498481 0.784389 0.219521
H41   H     H_    0.295458 0.433060 0.741054 0.183260
H42   H     H_    0.245819 0.309866 0.817772 0.196682
H43   H     H_    0.932334 0.737268 0.270123 0.269370
H44   H     H_    0.962086 0.607628 0.347138 0.282895
H45   H     H_    0.350803 0.560985 0.806816 0.138895
H46   H     H_    0.068655 0.690139 0.268664 0.237462
H47   H     H_    0.927266 0.575526 0.188490 0.247764
H48   H     H_    0.902984 0.705407 0.110388 0.227923
H49   H     H_    0.717441 0.682395 0.191328 0.183814
H50   H     H_    0.744588 0.555198 0.263134 0.232216
H51   H     H_    0.597436 0.006578 0.811167 0.143748
H52   H     H_    0.443318 0.997909 0.189385 0.072813
H53   H     H_    0.666636 0.439840 0.194456 0.151603
H54   H     H_    0.525946 0.698721 0.572550 0.151966
H55   H     H_    0.438269 0.280112 0.446563 0.142730
H56   H     H_    0.527214 0.545577 0.672495 0.108274
N1    N     N_R   0.584450 0.204570 0.560790 -0.213798
N2    N     N_R   0.415550 0.795430 0.439210 -0.222764
O1    O     O_R   0.455540 0.022090 0.338120 -0.632361
O2    O     O_2   0.226731 0.504901 0.198277 -0.506457
O3    O     O_2   0.154108 0.879213 0.226077 -0.569727
O4    O     O_2   0.887936 0.166808 0.688232 -0.589704
O5    O     O_2   0.842546 0.325621 0.809196 -0.552259
O6    O     O_2   0.372823 0.743615 0.148509 -0.563525
O7    O     O_2   0.481753 0.100756 0.856790 -0.516539
O8    O     O_2   0.643840 0.079772 0.068611 -0.467183
O9    O     O_2   0.296600 0.958332 0.849341 -0.496620
O10   O     O_2   0.877034 0.108797 0.173862 -0.454402
O11   O     O_2   0.100678 0.305658 0.346432 -0.491315
O12   O     O_R   0.544460 0.977910 0.661880 -0.633181
O13   O     O_2   0.744547 0.648282 0.569544 -0.527979
O14   O     O_2   0.056445 0.413325 0.439111 -0.522382
O15   O     O_2   0.749179 0.592708 0.430121 -0.516627
O16   O     O_2   0.754147 0.973813 0.919339 -0.553818
O17   O     O_2   0.304533 0.025745 0.065393 -0.521572
O18   O     O_R   0.512510 0.160150 0.379180 -0.563841
O19   O     O_R   0.487490 0.839850 0.620820 -0.581186
O20   O     O_R   0.291160 0.930970 0.479480 -0.607575
O21   O     O_R   0.708840 0.069030 0.520520 -0.574773
O22   O     O_R   0.348130 0.069020 0.520540 -0.573152
O23   O     O_R   0.651870 0.930980 0.479460 -0.576753
O24   O     O_2   0.622413 0.302097 0.870600 -0.509886

loop_
_geom_bond_atom_site_label_1
_geom_bond_atom_site_label_2
_ccdc_geom_bond_type
C75   C76   S    
C34   C56   A    
C18   C75   S    
C23   C45   A    
C71   H21   S    
C72   H35   S    
C27   C29   A    
C76   H40   S    
C73   C74   S    
C49   H1    S    
C1    O1    A    
Cu2   O22   S    
C5    C67   A    
C22   C57   S    
C40   C62   S    
C47   C49   A    
C38   C49   A    
C25   N1    A    
Cu1   Cu2   S    
C16   O20   A    
C24   C55   S    
C7    C11   A    
C79   H50   S    
C64   O11   D    
C69   H27   S    
C8    C13   A    
C2    C4    A    
C52   C72   S    
C35   C37   A    
Cu1   O1    S    
C21   C59   S    
C82   H51   S    
C26   H54   S    
C69   H26   S    
C6    C78   A    
C74   H28   S    
C33   C36   A    
C80   H48   S    
C75   H42   S    
C64   H16   S    
Cu2   O12   S    
C77   H36   S    
C70   H24   S    
C16   C34   S    
C11   C15   A    
C23   C51   A    
C16   O22   A    
C12   C78   S    
C22   N1    A    
C53   H5    S    
C70   C71   S    
Cu2   O18   S    
C68   O15   D    
C47   C66   S    
C75   H41   S    
C5    H4    S    
C44   C47   A    
C55   H7    S    
C20   C29   A    
C42   C56   S    
C40   C42   A    
C83   O17   D    
C71   H22   S    
C76   H39   S    
C41   C43   A    
C61   H13   S    
Cu2   O21   S    
C42   C44   A    
C12   O12   A    
C26   N2    A    
Cu1   N2    S    
C61   O8    D    
Cu2   N1    S    
C15   H53   S    
C14   H45   S    
C39   C61   S    
C46   C48   A    
C50   H12   S    
C73   H31   S    
C27   C31   A    
Cu1   O23   S    
C66   H18   S    
C28   C32   A    
C76   C77   S    
C46   C65   S    
C39   C41   A    
C60   H11   S    
C17   O23   A    
C5    C7    A    
C2    H34   S    
C72   C73   S    
C81   H46   S    
C6    C8    A    
C45   C52   A    
C44   C64   S    
C80   H47   S    
C30   C37   A    
C60   O7    D    
C15   C19   A    
C58   H9    S    
C54   H6    S    
C77   H37   S    
C82   O16   D    
C35   H2    S    
C71   H20   S    
C53   O24   D    
C55   O3    D    
C31   C32   A    
C29   C36   A    
C10   C19   A    
C74   H30   S    
C17   C23   S    
C48   C68   S    
C19   C79   S    
C43   C45   S    
C36   C53   S    
C38   C60   S    
C37   C54   S    
C65   O13   D    
C20   C22   A    
C1    O18   A    
C57   H8    S    
C3    C83   S    
C81   H43   S    
Cu1   O19   S    
C62   H14   S    
C57   O4    D    
C25   C27   A    
C68   H19   S    
C65   H17   S    
C20   C58   S    
C2    C10   A    
C66   O14   D    
C59   O6    D    
C7    C9    A    
C73   H32   S    
C34   C52   A    
C14   C18   A    
C25   H55   S    
C51   C56   A    
C63   O10   D    
C80   C81   S    
C58   O5    D    
C33   H56   S    
C4    C78   A    
C6    H3    S    
C79   H49   S    
C21   C30   A    
C26   C28   A    
C84   H23   S    
C62   O9    D    
C54   O2    D    
C32   C33   A    
C28   C30   A    
C63   H15   S    
C77   H38   S    
C17   O21   A    
C12   O19   A    
C38   C40   A    
C11   C13   A    
C81   H44   S    
C3    C67   A    
C24   N2    A    
C74   H29   S    
C72   H33   S    
C48   C50   A    
C1    C67   S    
C31   C35   A    
C69   C70   S    
C43   C46   A    
C70   H25   S    
C9    C84   A    
C79   C80   S    
C9    C18   A    
C39   C50   A    
C4    C82   S    
C8    C10   A    
C59   H10   S    
C21   C24   A    
C3    C84   A    
Cu1   O20   S    
C41   C63   S    
C51   C69   S    
C13   C14   A    
C83   H52   S    
