data_mof_unit_5493.cif
_audit_creation_date              2012-12-10T17:15:52-0500
_audit_creation_method            fapswitch 2.2
_symmetry_space_group_name_H-M    P1
_symmetry_Int_Tables_number       1
_space_group_crystal_system       triclinic
_cell_length_a                    10.139684
_cell_length_b                    10.630534
_cell_length_c                    10.608
_cell_angle_alpha                 90.868515
_cell_angle_beta                  94.802563
_cell_angle_gamma                 83.118148
_cell_volume                      1131.20020124

loop_
_atom_site_label
_atom_site_type_symbol
_atom_type_description
_atom_site_fract_x
_atom_site_fract_y
_atom_site_fract_z
_atom_type_partial_charge
C1    C     C_R   0.444757 0.501856 0.266184 0.914603
C2    C     C_2   0.494490 0.409028 0.932370 0.445764
C3    C     C_2   0.076104 0.474262 0.502592 0.020118
C4    C     C_R   0.495783 0.260040 0.490595 0.881919
C5    C     C_2   0.932214 0.490323 0.527331 -0.045071
C6    C     C_R   0.554563 0.484362 0.733231 0.962205
C7    C     C_R   0.506561 0.738452 0.517936 0.901798
C8    C     C_R   0.689345 0.081974 0.362230 -0.181954
C9    C     C_R   0.811775 0.009807 0.350681 -0.182279
C10   C     C_R   0.851598 0.906079 0.429780 0.469002
C11   C     C_R   0.761105 0.866464 0.511320 -0.045863
C12   C     C_R   0.600984 0.044708 0.446632 0.104626
C13   C     C_R   0.627112 0.924658 0.499872 -0.090691
C14   C     C_2   0.124840 0.365925 0.422728 0.455927
C15   C     C_2   0.808666 0.788294 0.624910 0.460034
C16   C     C_R   0.492003 0.125528 0.487529 -0.177687
C17   C     C_R   0.396632 0.078226 0.555576 -0.162271
C18   C     C_R   0.406695 0.950762 0.580545 0.423820
C19   C     C_R   0.518059 0.871376 0.543120 -0.257926
C20   C     C_2   0.415137 0.478465 0.132501 -0.311366
C21   C     C_2   0.511446 0.417161 0.068076 -0.218382
C22   C     C_2   0.582845 0.459367 0.866825 -0.431364
Cl1   Cl    Cl    0.013719 0.827805 0.420899 -0.533945
Cl2   Cl    Cl    0.283402 0.897631 0.667933 -0.472845
Cl3   Cl    Cl    0.354345 0.340333 0.863325 -0.555644
H1    H     H_    0.315592 0.140351 0.591877 0.238294
H2    H     H_    0.196737 0.375091 0.355281 0.103919
H3    H     H_    0.738687 0.746209 0.678334 0.051572
H4    H     H_    0.317008 0.510346 0.087016 0.199759
H5    H     H_    0.901788 0.538246 0.612706 0.166776
H6    H     H_    0.871724 0.410123 0.364500 0.191101
H7    H     H_    0.118825 0.622345 0.609310 0.266906
H8    H     H_    0.664510 0.166699 0.305573 0.164834
H9    H     H_    0.879076 0.039474 0.285992 0.197577
H10   H     H_    0.610302 0.386707 0.112996 0.162110
H11   H     H_    0.672418 0.490914 0.914408 0.136147
N1    N     N_2   0.157290 0.551390 0.551110 -0.186179
N2    N     N_2   0.842740 0.448550 0.448960 -0.189036
O1    O     O_R   0.568950 0.489660 0.307530 -0.612648
O2    O     O_2   0.925207 0.778111 0.666667 -0.529861
O3    O     O_R   0.348880 0.522640 0.340350 -0.626374
O4    O     O_R   0.610060 0.300270 0.483590 -0.599934
O5    O     O_R   0.389990 0.333260 0.516410 -0.625909
O6    O     O_R   0.651120 0.477360 0.659650 -0.625373
O7    O     O_R   0.431050 0.510340 0.692470 -0.544727
O8    O     O_R   0.610010 0.666740 0.483590 -0.639667
O9    O     O_R   0.389940 0.699730 0.516410 -0.522930
O10   O     O_2   0.083036 0.263575 0.431296 -0.565835
Zn1   Zn    Zn3+2 0.646940 0.477980 0.478090 0.963446
Zn2   Zn    Zn3+2 0.353060 0.522020 0.521910 1.053506

loop_
_geom_bond_atom_site_label_1
_geom_bond_atom_site_label_2
_ccdc_geom_bond_type
O6    Zn1   S    
C4    C16   S    
O5    Zn2   S    
C2    C22   D    
C21   H10   S    
C6    O7    A    
C10   Cl1   S    
C2    Cl3   S    
C22   H11   S    
C9    C10   A    
H6    N2    S    
C8    C12   A    
C2    C21   S    
C17   C18   A    
N2    Zn1   S    
C6    O6    A    
C5    N2    D    
C12   C13   A    
N1    Zn2   S    
C11   C13   A    
O8    Zn1   S    
C15   H3    S    
C3    C14   S    
C4    O4    A    
O7    Zn2   S    
C18   Cl2   S    
C17   H1    S    
C1    O3    A    
O1    Zn1   S    
C4    O5    A    
C5    H5    S    
O9    Zn2   S    
C7    C19   S    
C20   H4    S    
C9    H9    S    
C14   H2    S    
C15   O2    D    
C10   C11   A    
C13   C19   A    
O4    Zn1   S    
C6    C22   S    
C7    O8    A    
O3    Zn2   S    
C20   C21   D    
C3    N1    D    
C18   C19   A    
C1    O1    A    
C8    C9    A    
C1    C20   S    
C14   O10   D    
C8    H8    S    
H7    N1    S    
C11   C15   S    
C12   C16   A    
C16   C17   A    
C3    C5    S    
C7    O9    A    
