data_mof_unit_67271.cif
_audit_creation_date              2012-12-11T18:17:44-0500
_audit_creation_method            fapswitch 2.2
_symmetry_space_group_name_H-M    P1
_symmetry_Int_Tables_number       1
_space_group_crystal_system       triclinic
_cell_length_a                    8.202087
_cell_length_b                    14.331358
_cell_length_c                    14.934203
_cell_angle_alpha                 95.097289
_cell_angle_beta                  97.443999
_cell_angle_gamma                 91.733485
_cell_volume                      1732.24175242

loop_
_atom_site_label
_atom_site_type_symbol
_atom_type_description
_atom_site_fract_x
_atom_site_fract_y
_atom_site_fract_z
_atom_type_partial_charge
Ba1   Ba    Ba6+2 0.833410 0.543320 0.453520 1.662270
Ba2   Ba    Ba6+2 0.356410 0.456750 0.546480 1.662398
C1    C     C_3   0.607118 0.894820 0.236606 -0.221596
C2    C     C_3   0.557174 0.794130 0.252247 0.338251
C3    C     C_3   0.405612 0.288820 0.275356 0.401696
C4    C     C_3   0.451912 0.319101 0.186380 0.310996
C5    C     C_3   0.180202 0.265660 0.803067 0.402980
C6    C     C_3   0.192855 0.237627 0.899340 -0.345120
C7    C     C_3   0.731871 0.230123 0.811754 0.422295
C8    C     C_3   0.702281 0.129322 0.832860 0.302167
C9    C     C_R   0.351587 0.561914 0.168082 -0.006783
C10   C     C_R   0.116379 0.475291 0.208487 0.045413
C11   C     C_R   0.925288 0.480769 0.768254 -0.229739
C12   C     C_3   0.030303 0.733073 0.196524 0.339377
C13   C     C_R   0.834175 0.447096 0.831555 -0.014294
C14   C     C_R   0.897119 0.454881 0.923494 -0.157598
C15   C     C_R   0.053463 0.499196 0.954748 0.007184
C16   C     C_R   0.140235 0.540282 0.889475 -0.007488
C17   C     C_R   0.124160 0.506050 0.048791 0.007761
C18   C     C_R   0.279504 0.555014 0.075800 -0.022762
C19   C     C_R   0.357506 0.597491 0.010657 -0.112088
C20   C     C_R   0.288099 0.591792 0.920239 -0.039374
C21   C     C_R   0.046735 0.465139 0.116949 -0.126112
C22   C     C_R   0.266410 0.524620 0.233047 -0.295530
C23   C     C_3   0.994562 0.754778 0.098434 -0.364477
C24   C     C_R   0.075413 0.529188 0.795143 0.086438
C25   C     C_R   0.711495 0.935782 0.543061 -0.051089
C26   C     C_R   0.509422 0.800754 0.498267 0.013015
C27   C     C_R   0.356828 0.767869 0.451595 -0.293780
C28   C     C_R   0.243645 0.829977 0.415944 0.016064
C29   C     C_R   0.286804 0.924969 0.419373 -0.149963
C30   C     C_R   0.444628 0.958716 0.458189 -0.008105
C31   C     C_R   0.556743 0.897666 0.500677 -0.046944
C32   C     C_R   0.643624 0.090929 0.497769 -0.033661
C33   C     C_R   0.755742 0.031114 0.541863 0.000925
C34   C     C_3   0.220668 0.743826 0.643182 0.353898
C35   C     C_R   0.687745 0.187340 0.499739 0.026583
C36   C     C_R   0.837874 0.222834 0.546652 -0.266732
C37   C     C_R   0.952118 0.163408 0.585242 0.008156
C38   C     C_R   0.911221 0.067642 0.584065 -0.156936
C39   C     C_R   0.489746 0.053230 0.455316 -0.057093
C40   C     C_3   0.280038 0.846461 0.666454 0.250204
C41   C     C_3   0.982757 0.254318 0.355296 0.301880
C42   C     C_3   0.963879 0.148265 0.334222 -0.397926
C43   C     C_3   0.803139 0.761885 0.728461 0.684651
C44   C     C_3   0.796658 0.859799 0.779029 0.359249
H1    H     H_    0.628829 0.780322 0.317569 0.092385
H2    H     H_    0.414582 0.850098 0.689939 -0.027244
H3    H     H_    0.264024 0.882393 0.603488 -0.024859
H4    H     H_    0.871824 0.280599 0.381816 0.016322
H5    H     H_    0.091660 0.270910 0.407008 0.061299
H6    H     H_    0.849889 0.129388 0.286431 0.147377
H7    H     H_    0.956833 0.113750 0.397162 0.066031
H8    H     H_    0.071514 0.121741 0.303167 0.106594
H9    H     H_    0.900025 0.766645 0.684386 0.026101
H10   H     H_    0.614171 0.939668 0.301693 0.060604
H11   H     H_    0.819924 0.913759 0.733033 -0.027822
H12   H     H_    0.670035 0.869620 0.797073 -0.056208
H13   H     H_    0.424313 0.788140 0.258984 -0.063775
H14   H     H_    0.295056 0.240693 0.260557 0.013761
H15   H     H_    0.375060 0.352897 0.316587 -0.090174
H16   H     H_    0.341697 0.346586 0.147600 -0.078564
H17   H     H_    0.548854 0.376384 0.203253 0.029770
H18   H     H_    0.732894 0.896205 0.216944 0.144178
H19   H     H_    0.075827 0.814279 0.086437 0.110739
H20   H     H_    0.271115 0.323907 0.801313 0.102368
H21   H     H_    0.055029 0.290841 0.783836 -0.104046
H22   H     H_    0.315425 0.209284 0.919023 0.157664
H23   H     H_    0.175845 0.299491 0.946988 0.065016
H24   H     H_    0.096147 0.182973 0.903599 0.085301
H25   H     H_    0.840149 0.259870 0.858945 -0.139601
H26   H     H_    0.758379 0.229462 0.740445 -0.084383
H27   H     H_    0.793638 0.083309 0.804061 -0.044196
H28   H     H_    0.955718 0.669064 0.204174 0.101390
H29   H     H_    0.725797 0.127585 0.907418 -0.003527
H30   H     H_    0.320644 0.530550 0.303384 0.082520
H31   H     H_    0.473466 0.636657 0.028759 0.096331
H32   H     H_    0.932976 0.424209 0.101277 0.072406
H33   H     H_    0.874365 0.473433 0.697324 0.071262
H34   H     H_    0.819841 0.426767 0.968512 0.062770
H35   H     H_    0.353677 0.628283 0.874809 0.083950
H36   H     H_    0.321810 0.694079 0.447858 0.072591
H37   H     H_    0.197733 0.972218 0.390749 0.069538
H38   H     H_    0.000185 0.022095 0.615574 0.109377
H39   H     H_    0.163206 0.719783 0.211570 -0.053231
H40   H     H_    0.870317 0.296808 0.548269 0.055781
H41   H     H_    0.799871 0.892664 0.577365 0.072042
H42   H     H_    0.402011 0.096853 0.420434 0.090802
H43   H     H_    0.017516 0.693008 0.052343 0.087991
H44   H     H_    0.863822 0.772671 0.083098 0.133446
H45   H     H_    0.316116 0.705317 0.611336 -0.044219
H46   H     H_    0.106455 0.740043 0.594214 0.008846
O1    O     O_2   0.841250 0.444240 0.280450 -0.453473
O2    O     O_3   0.646941 0.734679 0.679981 -0.709080
O3    O     O_3   0.987406 0.809327 0.253355 -0.612692
O4    O     O_2   0.348460 0.555790 0.719610 -0.469793
O5    O     O_3   0.076820 0.552690 0.606290 -0.496002
O6    O     O_3   0.591740 0.384320 0.672310 -0.456789
O7    O     O_3   0.191458 0.705316 0.722570 -0.619781
O8    O     O_3   0.629090 0.386360 0.459240 -0.461359
O9    O     O_3   0.172500 0.335240 0.628910 -0.491474
O10   O     O_2   0.289833 0.169961 0.580009 -0.502177
O11   O     O_3   0.213902 0.188349 0.744730 -0.575778
O12   O     O_3   0.112870 0.447390 0.393710 -0.498685
O13   O     O_3   0.560600 0.613720 0.540760 -0.443054
O14   O     O_2   0.387470 0.270310 0.467210 -0.476998
O15   O     O_3   0.535543 0.239949 0.317848 -0.637336
O16   O     O_2   0.493719 0.452845 0.827705 -0.515176
O17   O     O_3   0.594034 0.282548 0.825391 -0.586555
O18   O     O_3   0.597960 0.615760 0.327700 -0.485687
O19   O     O_2   0.693977 0.556999 0.170912 -0.501132
O20   O     O_3   0.001793 0.294537 0.275281 -0.642208
O21   O     O_3   0.595251 0.730186 0.181471 -0.613956
O22   O     O_2   0.802240 0.729720 0.532850 -0.501842
O23   O     O_3   0.017190 0.664840 0.371090 -0.487019
O24   O     O_2   0.903838 0.831388 0.416727 -0.494066
P1    P     P_3+3 0.018620 0.416870 0.295980 0.976403
P2    P     P_3+3 0.635650 0.716500 0.560900 0.954702
P3    P     P_3+3 0.037759 0.785222 0.366148 0.937128
P4    P     P_3+3 0.171070 0.583210 0.704020 1.018933
P5    P     P_3+3 0.156843 0.213636 0.632850 0.956075
P6    P     P_3+3 0.559448 0.615502 0.210017 0.928719
P7    P     P_3+3 0.561952 0.268842 0.435418 0.946371
P8    P     P_3+3 0.628811 0.393745 0.790725 0.953557
O25   O     O_3   0.185555 0.893577 0.727957 -0.638929
C45   C     C_3   0.271660 0.903428 0.816816 0.286356
H47   H     H_    0.205865 0.952656 0.859411 0.093945
H48   H     H_    0.398272 0.934053 0.819792 0.009798
H49   H     H_    0.275761 0.835243 0.846842 0.072602
O26   O     O_3   0.853177 0.695800 0.790923 -0.662278
C46   C     C_3   0.724679 0.669206 0.839542 0.219107
H50   H     H_    0.645273 0.612967 0.798580 0.091075
H51   H     H_    0.647247 0.727868 0.859082 -0.008165
H52   H     H_    0.779456 0.641419 0.903080 0.036140
O27   O     O_3   0.921861 0.871172 0.854292 -0.623561
C47   C     C_3   0.858991 0.908642 0.932557 0.165206
H53   H     H_    0.797212 0.974965 0.921433 0.018491
H54   H     H_    0.962404 0.924438 0.987609 0.052246
H55   H     H_    0.772327 0.857364 0.954974 0.027862
C48   C     C_R   0.489129 0.937464 0.167298 0.068749
C49   C     C_R   0.326871 0.953611 0.183353 -0.055029
C50   C     C_R   0.222377 0.001489 0.123591 -0.064971
C51   C     C_R   0.278331 0.032840 0.046714 -0.026034
C52   C     C_R   0.439156 0.016854 0.029754 -0.066856
C53   C     C_R   0.544592 0.969794 0.089978 -0.028578
H56   H     H_    0.281424 0.930054 0.242341 0.064912
H57   H     H_    0.097889 0.014129 0.136887 0.060975
H58   H     H_    0.196764 0.069282 0.000337 0.055248
H59   H     H_    0.482656 0.041802 0.970494 0.090276
H60   H     H_    0.670201 0.960347 0.077369 0.029664
O28   O     O_3   0.506545 0.241753 0.134793 -0.624412
C54   C     C_3   0.586199 0.274272 0.064671 0.197945
H61   H     H_    0.509613 0.322861 0.024570 0.031363
H62   H     H_    0.707423 0.308820 0.092647 0.037685
H63   H     H_    0.608787 0.213262 0.017920 0.067747
O29   O     O_3   0.537525 0.097384 0.804096 -0.635167
C55   C     C_3   0.518131 0.063585 0.711797 0.305181
H64   H     H_    0.588599 0.999914 0.701060 -0.068159
H65   H     H_    0.554180 0.118241 0.669227 0.050914
H66   H     H_    0.386827 0.043404 0.689677 0.115504

loop_
_geom_bond_atom_site_label_1
_geom_bond_atom_site_label_2
_ccdc_geom_bond_type
C11   H33   S    
C45   H47   S    
C32   C35   A    
C38   H38   S    
C34   C40   S    
C17   C18   A    
C16   C24   A    
C7    H26   S    
O15   P7    S    
C46   H52   S    
O27   C47   S    
C1    H18   S    
C25   C31   A    
O6    P8    S    
C10   C21   A    
C23   H44   S    
C35   C36   A    
C36   H40   S    
C12   H28   S    
O29   C55   S    
C24   P4    S    
C32   C33   A    
O20   P1    S    
C8    H27   S    
C28   P3    S    
C51   C52   A    
C9    C22   A    
C29   H37   S    
Ba1   Ba2   S    
C8    H29   S    
C40   O25   S    
C44   O27   S    
C35   P7    S    
C42   H7    S    
C55   H64   S    
O21   P6    S    
Ba2   O5    S    
C14   C15   A    
O14   P7    D    
C30   C39   A    
O10   P5    D    
C7    C8    S    
C53   H60   S    
C34   H46   S    
O7    P4    S    
Ba2   O8    S    
C43   O26   S    
C55   H65   S    
C5    O11   S    
C19   C20   A    
C44   H12   S    
O19   P6    D    
C32   C39   A    
O1    P1    D    
O16   P8    D    
C47   H55   S    
C43   O2    S    
Ba1   O8    S    
C7    O17   S    
C51   H58   S    
C9    C18   A    
C13   P8    S    
C20   H35   S    
C2    O21   S    
C5    C6    S    
C23   H19   S    
C48   C49   A    
C47   H54   S    
C8    O29   S    
C37   C38   A    
Ba2   P4    S    
C22   H30   S    
C40   H2    S    
Ba2   O9    S    
C25   C33   A    
C43   C44   S    
C5    H21   S    
Ba2   O14   S    
O9    P5    S    
C14   H34   S    
C36   C37   A    
C4    H17   S    
C17   C21   A    
C41   C42   S    
C52   H59   S    
Ba1   O18   S    
C1    H10   S    
C29   C30   A    
C54   H63   S    
Ba2   O12   S    
C28   C29   A    
O28   C54   S    
C15   C16   A    
C6    H23   S    
C3    H15   S    
O17   P8    S    
Ba1   P1    S    
C18   C19   A    
C25   H41   S    
Ba1   O12   S    
C43   H9    S    
O22   P2    D    
C49   H56   S    
C4    O28   S    
C34   H45   S    
C54   H62   S    
C26   C31   A    
C6    H22   S    
C55   H66   S    
O23   P3    S    
C11   C13   A    
C44   H11   S    
O25   C45   S    
O13   P2    S    
C9    P6    S    
Ba1   O22   S    
C45   H49   S    
Ba1   O5    S    
C1    C2    S    
O11   P5    S    
C12   O3    S    
O12   P1    S    
C3    O15   S    
C39   H42   S    
C26   C27   A    
C45   H48   S    
C3    H14   S    
C16   C20   A    
C6    H24   S    
C50   H57   S    
O4    P4    D    
C7    H25   S    
C12   H39   S    
C47   H53   S    
C46   H51   S    
C48   C53   A    
C41   H4    S    
C42   H6    S    
C10   C22   A    
Ba2   O13   S    
C23   H43   S    
C37   P5    S    
O24   P3    D    
C52   C53   A    
O8    P7    S    
O3    P3    S    
C30   C31   A    
C4    H16   S    
O5    P4    S    
Ba2   O4    S    
C33   C38   A    
C27   H36   S    
C26   P2    S    
C49   C50   A    
O18   P6    S    
C5    H20   S    
O2    P2    S    
C41   H5    S    
C3    C4    S    
C13   C14   A    
C12   C23   S    
C2    H13   S    
C15   C17   A    
O26   C46   S    
C34   O7    S    
Ba1   P2    S    
C21   H32   S    
C11   C24   A    
C40   H3    S    
C27   C28   A    
C10   P1    S    
C42   H8    S    
C54   H61   S    
Ba2   O6    S    
Ba1   O1    S    
C41   O20   S    
C19   H31   S    
C50   C51   A    
C1    C48   S    
Ba1   O23   S    
C46   H50   S    
Ba1   O13   S    
C2    H1    S    
