data_mof_unit_42170.cif
_audit_creation_date              2012-10-26T20:16:29-0400
_audit_creation_method            fapswitch 2.2
_symmetry_space_group_name_H-M    P1
_symmetry_Int_Tables_number       1
_space_group_crystal_system       triclinic
_cell_length_a                    10.844484
_cell_length_b                    15.810975
_cell_length_c                    17.201292
_cell_angle_alpha                 94.269966
_cell_angle_beta                  94.136955
_cell_angle_gamma                 91.974789
_cell_volume                      2931.1625124

loop_
_atom_site_label
_atom_site_type_symbol
_atom_type_description
_atom_site_fract_x
_atom_site_fract_y
_atom_site_fract_z
_atom_type_partial_charge
C1    C     C_R   0.499834 0.491385 0.348534 0.521569
C2    C     C_R   0.454049 0.486615 0.097666 0.200458
C3    C     C_R   0.438711 0.411778 0.136471 0.071752
C4    C     C_R   0.263946 0.500322 0.509701 0.544523
C5    C     C_R   0.459014 0.414664 0.217629 -0.161245
C6    C     C_R   0.509501 0.441577 0.860776 0.294806
C7    C     C_R   0.496472 0.437110 0.778510 0.051910
C8    C     C_R   0.505336 0.521337 0.903029 0.176977
C9    C     C_R   0.494110 0.512601 0.738376 0.014026
C10   C     C_R   0.490039 0.591953 0.782499 0.026961
C11   C     C_R   0.498170 0.594970 0.864020 -0.151560
C12   C     C_R   0.059842 0.422452 0.518380 -0.028783
C13   C     C_R   0.436623 0.757844 0.463050 0.180281
C14   C     C_R   0.444147 0.846595 0.468854 -0.088219
C15   C     C_R   0.531952 0.891742 0.521005 0.140386
C16   C     C_R   0.497515 0.509185 0.651627 0.578013
C17   C     C_R   0.612097 0.844879 0.566773 -0.152271
C18   C     C_R   0.601642 0.754366 0.562140 0.406868
C19   C     C_R   0.545730 0.159017 0.547504 -0.124953
C20   C     C_R   0.553205 0.248489 0.546457 0.363305
C21   C     C_R   0.477989 0.109438 0.487024 0.132240
C22   C     C_R   0.417064 0.240680 0.430961 0.341594
C23   C     C_R   0.130790 0.500023 0.522423 -0.019614
C24   C     C_R   0.415085 0.151217 0.428356 -0.145502
C25   C     C_R   0.737901 0.499546 0.494412 0.542655
C26   C     C_R   0.106121 0.344786 0.543511 0.109648
C27   C     C_R   0.046086 0.267104 0.514038 0.131134
C28   C     C_R   0.937156 0.267641 0.464287 0.099915
C29   C     C_R   0.880730 0.344662 0.454175 -0.119126
C30   C     C_R   0.936316 0.422156 0.487595 -0.093277
C31   C     C_3   0.748513 0.272006 0.611068 0.008823
C32   C     C_3   0.779968 0.246031 0.693523 -0.295230
C33   C     C_3   0.909023 0.211084 0.702338 -0.475809
C34   C     C_R   0.070359 0.577198 0.523630 0.082507
C35   C     C_3   0.723899 0.741502 0.679594 0.022217
C36   C     C_3   0.859126 0.773183 0.681420 -0.269078
C37   C     C_3   0.903906 0.815571 0.761492 -0.495042
C38   C     C_3   0.240307 0.269884 0.357181 -0.002191
C39   C     C_3   0.194507 0.309848 0.282738 -0.253342
C40   C     C_3   0.053854 0.303332 0.269672 -0.483619
C41   C     C_3   0.851672 0.669576 0.421162 0.042267
C42   C     C_3   0.954634 0.715153 0.382084 -0.298861
C43   C     C_3   0.909753 0.738185 0.300499 -0.472440
C44   C     C_3   0.628490 0.359969 0.941938 0.019700
C45   C     C_R   0.943460 0.577531 0.503404 0.255905
C46   C     C_3   0.727553 0.326839 0.890124 -0.296938
C47   C     C_3   0.846768 0.310259 0.938321 -0.476986
C48   C     C_R   0.873679 0.499447 0.490466 -0.044686
C49   C     C_R   0.492161 0.490849 0.262228 -0.055118
C50   C     C_R   0.509814 0.565993 0.223297 0.103611
C51   C     C_R   0.486146 0.564639 0.142402 0.151345
Cu1   Cu    Cu3+1 0.493970 0.415220 0.496180 1.025764
Cu2   Cu    Cu3+1 0.506030 0.584780 0.503820 1.010116
H1    H     H_    0.447297 0.356352 0.245867 0.194784
H2    H     H_    0.484265 0.722209 0.785218 0.208140
H3    H     H_    0.379916 0.667973 0.722010 0.244877
H4    H     H_    0.411361 0.648851 0.069721 0.243032
H5    H     H_    0.570321 0.650503 0.078400 0.249813
H6    H     H_    0.636234 0.634911 0.298028 0.222299
H7    H     H_    0.488015 0.670301 0.297041 0.280654
H8    H     H_    0.809813 0.327556 0.602291 0.177142
H9    H     H_    0.770332 0.220037 0.567447 0.155607
H10   H     H_    0.776939 0.303035 0.734455 0.160881
H11   H     H_    0.710989 0.197494 0.708593 0.156991
H12   H     H_    0.495251 0.655355 0.897951 0.123085
H13   H     H_    0.915052 0.153497 0.661897 0.163280
H14   H     H_    0.928673 0.193618 0.763198 0.145562
H15   H     H_    0.979463 0.259914 0.689827 0.175267
H16   H     H_    0.719392 0.690000 0.719955 0.176440
H17   H     H_    0.663570 0.791486 0.703059 0.108334
H18   H     H_    0.917402 0.718398 0.667764 0.187898
H19   H     H_    0.870606 0.819062 0.636417 0.171452
H20   H     H_    0.848771 0.871871 0.775587 0.149208
H21   H     H_    0.002591 0.836655 0.761215 0.152124
H22   H     H_    0.895381 0.770162 0.807263 0.149741
H23   H     H_    0.594429 0.128897 0.594410 0.131064
H24   H     H_    0.199731 0.303720 0.407093 0.167924
H25   H     H_    0.208530 0.201893 0.352185 0.115378
H26   H     H_    0.225107 0.377984 0.287101 0.176749
H27   H     H_    0.235114 0.277208 0.231673 0.187426
H28   H     H_    0.020270 0.235912 0.266202 0.146373
H29   H     H_    0.024633 0.330630 0.213943 0.151703
H30   H     H_    0.011582 0.339548 0.317962 0.153779
H31   H     H_    0.226225 0.404338 0.631234 0.241490
H32   H     H_    0.279795 0.315984 0.584230 0.265661
H33   H     H_    0.345762 0.653399 0.402044 0.292582
H34   H     H_    0.682898 0.879573 0.605026 0.102213
H35   H     H_    0.258987 0.736711 0.420026 0.205201
H36   H     H_    0.105977 0.186186 0.593513 0.250264
H37   H     H_    0.185754 0.185593 0.512680 0.220654
H38   H     H_    0.926251 0.137597 0.440443 0.268419
H39   H     H_    0.875134 0.194412 0.367417 0.218811
H40   H     H_    0.770744 0.710783 0.422314 0.171739
H41   H     H_    0.820138 0.610388 0.384775 0.103264
H42   H     H_    0.986119 0.774131 0.418316 0.166978
H43   H     H_    0.034074 0.673081 0.376879 0.154178
H44   H     H_    0.879361 0.679999 0.262826 0.154534
H45   H     H_    0.380659 0.879705 0.431429 0.150709
H46   H     H_    0.986366 0.770813 0.273553 0.156729
H47   H     H_    0.831391 0.781432 0.303845 0.162267
H48   H     H_    0.557157 0.319506 0.751955 0.256120
H49   H     H_    0.402023 0.324854 0.752808 0.249748
H50   H     H_    0.613800 0.313992 0.986454 0.151387
H51   H     H_    0.663711 0.420188 0.974604 0.156576
H52   H     H_    0.692693 0.266779 0.856923 0.165670
H53   H     H_    0.748207 0.375299 0.848893 0.150443
H54   H     H_    0.883937 0.369598 0.971788 0.153018
H55   H     H_    0.917001 0.287297 0.898727 0.155086
H56   H     H_    0.367528 0.113877 0.379159 0.121839
H57   H     H_    0.829488 0.261119 0.979586 0.148157
H58   H     H_    0.478965 0.292817 0.098417 0.221647
H59   H     H_    0.378204 0.337092 0.036119 0.282393
H60   H     H_    0.794955 0.343162 0.417796 0.162813
H61   H     H_    0.100220 0.679714 0.601127 0.231173
H62   H     H_    0.124000 0.698973 0.508290 0.236723
N1    N     N_2   0.440450 0.480621 0.014653 -0.208548
N2    N     N_3   0.555773 0.644894 0.263338 -0.589466
N3    N     N_3   0.201756 0.343374 0.606015 -0.635682
N4    N     N_3   0.346462 0.718721 0.405128 -0.645726
N5    N     N_3   0.097213 0.187998 0.532809 -0.651271
N6    N     N_3   0.876542 0.190910 0.427904 -0.635891
N7    N     N_3   0.481821 0.355430 0.736087 -0.558036
N8    N     N_3   0.402531 0.331263 0.095238 -0.636585
N9    N     N_2   0.512256 0.530196 0.985325 -0.285573
N10   N     N_R   0.515100 0.712130 0.509560 -0.208940
N11   N     N_2   0.542541 0.983043 0.528537 -0.232467
N12   N     N_2   0.471118 0.018434 0.481594 -0.234263
N13   N     N_R   0.484890 0.287850 0.490450 -0.211591
N14   N     N_3   0.137240 0.655192 0.550144 -0.593245
N15   N     N_3   0.472043 0.669258 0.744828 -0.606369
N16   N     N_3   0.489987 0.644693 0.107965 -0.583914
O1    O     O_R   0.494360 0.420530 0.382500 -0.452472
O2    O     O_3   0.683934 0.705647 0.603742 -0.487283
O3    O     O_3   0.370321 0.279962 0.366599 -0.548141
O4    O     O_3   0.889355 0.655594 0.499812 -0.539542
O5    O     O_3   0.513617 0.366487 0.898024 -0.567375
O6    O     O_R   0.504550 0.563720 0.388950 -0.548976
O7    O     O_R   0.314550 0.428390 0.496780 -0.518724
O8    O     O_R   0.324740 0.571580 0.503230 -0.493462
O9    O     O_R   0.495450 0.436280 0.611050 -0.437963
O10   O     O_R   0.505640 0.579470 0.617500 -0.444134
O11   O     O_R   0.675260 0.428420 0.496770 -0.499365
O12   O     O_R   0.685450 0.571610 0.503220 -0.422569
O13   O     O_3   0.624637 0.297992 0.603851 -0.525300

loop_
_geom_bond_atom_site_label_1
_geom_bond_atom_site_label_2
_ccdc_geom_bond_type
C44   O5    S    
C37   H21   S    
N11   N12   D    
C50   N2    S    
C41   C42   S    
C31   H8    S    
C25   O11   A    
C40   H30   S    
C1    O1    A    
C35   O2    S    
Cu1   N13   S    
C25   O12   A    
C27   N5    S    
C12   C23   A    
C26   C27   A    
C22   O3    S    
Cu2   O6    S    
C19   H23   S    
C30   C48   A    
C36   C37   S    
C19   C21   A    
C9    C16   S    
C43   H46   S    
C20   N13   A    
C18   N10   A    
C38   C39   S    
C46   H52   S    
C18   O2    S    
C15   C17   A    
C31   O13   S    
C20   O13   S    
C6    O5    S    
C2    N1    S    
C41   H40   S    
C35   C36   S    
C35   H17   S    
C3    N8    S    
C15   N11   S    
Cu1   O7    S    
H33   N4    S    
C21   N12   S    
C9    C10   A    
C36   H18   S    
C13   N10   A    
H2    N15   S    
C37   H22   S    
H6    N2    S    
Cu2   O8    S    
C13   C14   A    
C31   H9    S    
C5    C49   A    
C16   O9    A    
C13   N4    S    
C44   H50   S    
C44   C46   S    
C33   H13   S    
C14   H45   S    
C44   H51   S    
C45   O4    S    
H58   N8    S    
C42   H42   S    
Cu1   O1    S    
C40   H29   S    
C5    H1    S    
C43   H47   S    
C34   N14   S    
H59   N8    S    
C10   C11   A    
C39   C40   S    
C4    C23   S    
C51   N16   S    
C28   N6    S    
C8    N9    S    
C6    C8    A    
C38   H25   S    
C50   C51   A    
Cu1   O11   S    
C12   C26   A    
Cu2   O12   S    
C39   H26   S    
C10   N15   S    
C29   C30   A    
C22   N13   A    
C41   H41   S    
H36   N5    S    
H5    N16   S    
C23   C34   A    
C17   C18   A    
H7    N2    S    
C34   C45   A    
H35   N4    S    
C25   C48   S    
C32   H11   S    
Cu2   N10   S    
C49   C50   A    
C47   H54   S    
H61   N14   S    
C22   C24   A    
C42   C43   S    
C7    N7    S    
C41   O4    S    
C1    O6    A    
Cu1   Cu2   S    
C33   H14   S    
H62   N14   S    
C45   C48   A    
C7    C9    A    
C37   H20   S    
C46   C47   S    
C28   C29   A    
N1    N9    D    
C12   C30   A    
C17   H34   S    
C40   H28   S    
H4    N16   S    
C31   C32   S    
C24   H56   S    
C43   H44   S    
C32   H10   S    
C3    C5    A    
C6    C7    A    
C38   H24   S    
C47   H57   S    
C26   N3    S    
H48   N7    S    
C42   H43   S    
C32   C33   S    
C19   C20   A    
C2    C3    A    
H39   N6    S    
C39   H27   S    
C4    O8    A    
C8    C11   A    
C46   H53   S    
Cu1   O9    S    
C16   O10   A    
Cu2   O10   S    
C38   O3    S    
H32   N3    S    
C2    C51   A    
C4    O7    A    
C36   H19   S    
C35   H16   S    
H31   N3    S    
C47   H55   S    
H38   N6    S    
C21   C24   A    
C29   H60   S    
C27   C28   A    
C14   C15   A    
H49   N7    S    
C1    C49   S    
H3    N15   S    
C11   H12   S    
C33   H15   S    
H37   N5    S    
