data_mof_unit_49310.cif
_audit_creation_date              2012-12-10T19:24:02-0500
_audit_creation_method            fapswitch 2.2
_symmetry_space_group_name_H-M    P1
_symmetry_Int_Tables_number       1
_space_group_crystal_system       triclinic
_cell_length_a                    10.475888
_cell_length_b                    10.503262
_cell_length_c                    9.774109
_cell_angle_alpha                 89.688274
_cell_angle_beta                  90.217092
_cell_angle_gamma                 90.505014
_cell_volume                      1075.38973383

loop_
_atom_site_label
_atom_site_type_symbol
_atom_type_description
_atom_site_fract_x
_atom_site_fract_y
_atom_site_fract_z
_atom_type_partial_charge
C1    C     C_R   0.498692 0.257749 0.500321 0.886395
C2    C     C_R   0.500276 0.742235 0.499601 0.935358
C3    C     C_3   0.416653 0.955544 0.595606 -0.250138
C4    C     C_3   0.579633 0.043788 0.402354 -0.332786
C5    C     C_3   0.408258 0.429723 0.048743 -0.073297
C6    C     C_3   0.591724 0.570243 0.951288 -0.068580
C7    C     C_3   0.514371 0.386142 0.952139 -0.078166
C8    C     C_3   0.485600 0.613833 0.047868 -0.071397
C9    C     C_3   0.393773 0.543591 0.950821 -0.073735
C10   C     C_3   0.606203 0.456371 0.049191 -0.080747
C11   C     C_R   0.257556 0.499476 0.499561 0.845962
C12   C     C_R   0.742428 0.500151 0.500443 0.876191
C13   C     C_3   0.041388 0.393178 0.563069 -0.183140
C14   C     C_3   0.958559 0.605363 0.436800 -0.152454
C15   C     C_3   0.955838 0.395758 0.434112 -0.191592
C16   C     C_3   0.043998 0.602865 0.565817 -0.167614
C17   C     C_3   0.877556 0.499817 0.501482 0.035554
C18   C     C_3   0.122391 0.498863 0.498465 0.033789
C19   C     C_3   0.960311 0.497250 0.630672 -0.146715
C20   C     C_3   0.039620 0.501293 0.369245 -0.155012
C21   C     C_3   0.535135 0.040625 0.625182 -0.308334
C22   C     C_3   0.460932 0.957990 0.374025 -0.298449
C23   C     C_3   0.614930 0.960805 0.526457 0.557976
C24   C     C_3   0.381765 0.039340 0.471937 0.562217
C25   C     C_3   0.498752 0.876934 0.498447 -0.094663
C26   C     C_3   0.497860 0.122997 0.500856 -0.139948
H1    H     H_    0.913522 0.312372 0.380824 0.122860
H2    H     H_    0.085527 0.686598 0.619270 0.132380
H3    H     H_    0.080115 0.306756 0.613673 0.149055
H4    H     H_    0.919610 0.691384 0.385648 0.151813
H5    H     H_    0.923822 0.495750 0.737191 0.137932
H6    H     H_    0.076176 0.502541 0.262749 0.138411
H7    H     H_    0.565751 0.077077 0.726659 0.151790
H8    H     H_    0.429302 0.920793 0.273194 0.156702
H9    H     H_    0.348733 0.915682 0.671918 0.154444
H10   H     H_    0.646298 0.083623 0.324789 0.155048
H11   H     H_    0.331021 0.370518 0.094618 0.104487
H12   H     H_    0.668983 0.629419 0.905457 0.125483
H13   H     H_    0.304275 0.580416 0.904744 0.117409
H14   H     H_    0.695690 0.419527 0.095282 0.118707
N1    N     N_3   0.499910 0.500030 0.863290 -0.073345
N2    N     N_3   0.500090 0.499970 0.136710 -0.072331
O1    O     O_R   0.500010 0.313960 0.616610 -0.621792
O2    O     O_R   0.499990 0.686040 0.383390 -0.626008
O3    O     O_R   0.500060 0.313950 0.383350 -0.640004
O4    O     O_R   0.499940 0.686050 0.616650 -0.615510
O5    O     O_R   0.313930 0.499970 0.616610 -0.622667
O6    O     O_R   0.686070 0.500030 0.383390 -0.624095
O7    O     O_R   0.313980 0.499960 0.383350 -0.640029
O8    O     O_R   0.686020 0.500040 0.616650 -0.625308
Zn1   Zn    Zn3+2 0.499970 0.500010 0.655740 0.941845
Zn2   Zn    Zn3+2 0.500030 0.499990 0.344260 0.926659
O9    O     O_3   0.736494 0.909134 0.553031 -0.621351
C27   C     C_3   0.824518 0.009266 0.576428 0.083681
H15   H     H_    0.799168 0.062462 0.670545 0.137156
H16   H     H_    0.828243 0.076377 0.487906 0.128289
C28   C     C_3   0.957226 0.954443 0.596164 -0.805400
H17   H     H_    0.987131 0.903967 0.502198 0.261182
H18   H     H_    0.026627 0.032528 0.617155 0.233559
H19   H     H_    0.957378 0.886794 0.683879 0.243757
O10   O     O_3   0.254803 0.079254 0.451479 -0.639365
C29   C     C_3   0.243078 0.151895 0.330075 0.107129
H20   H     H_    0.322419 0.139324 0.255762 0.135047
H21   H     H_    0.239096 0.254078 0.357430 0.169486
C30   C     C_3   0.118965 0.115483 0.258672 -0.879983
H22   H     H_    0.037577 0.125168 0.330095 0.259765
H23   H     H_    0.103438 0.178595 0.168720 0.206052
H24   H     H_    0.123379 0.015189 0.223714 0.253644
H25   H     H_    0.526550 0.290127 0.907331 0.117130
H26   H     H_    0.473403 0.709840 0.092689 0.119606

loop_
_geom_bond_atom_site_label_1
_geom_bond_atom_site_label_2
_ccdc_geom_bond_type
C16   H2    S    
C7    C10   S    
C21   C26   S    
C4    H10   S    
C11   C18   S    
C24   O10   S    
C5    H11   S    
C10   N2    S    
C11   O5    A    
C12   O6    A    
C19   H5    S    
O9    C27   S    
C2    O4    A    
C13   C18   S    
C13   H3    S    
C24   C26   S    
C28   H18   S    
C21   H7    S    
C9    H13   S    
C10   H14   S    
C29   H21   S    
C15   H1    S    
C1    O1    A    
O5    Zn1   S    
C2    O2    A    
C8    C9    S    
C30   H23   S    
C22   C25   S    
C12   C17   S    
C6    H12   S    
C18   C20   S    
O2    Zn2   S    
C23   C25   S    
C14   C17   S    
C3    C24   S    
C14   H4    S    
C23   O9    S    
C15   C20   S    
C22   H8    S    
C27   H16   S    
C13   C19   S    
C14   C20   S    
C3    C25   S    
C5    C7    S    
C4    C23   S    
C28   H19   S    
C6    C8    S    
O3    Zn2   S    
O4    Zn1   S    
C6    N1    S    
C5    C9    S    
C29   H20   S    
C11   O7    A    
C4    C22   S    
C4    C26   S    
C3    H9    S    
C30   H24   S    
O8    Zn1   S    
C13   C15   S    
C1    C26   S    
C14   C16   S    
C3    C21   S    
C5    N2    S    
C20   H6    S    
C15   C17   S    
C27   H15   S    
C29   C30   S    
C8    H26   S    
O7    Zn2   S    
C8    N2    S    
C6    C10   S    
C12   O8    A    
C9    N1    S    
C21   C23   S    
C7    H25   S    
C1    O3    A    
O1    Zn1   S    
C28   H17   S    
C16   C19   S    
C17   C19   S    
C2    C25   S    
C22   C24   S    
C7    N1    S    
O10   C29   S    
O6    Zn2   S    
C16   C18   S    
C30   H22   S    
N1    Zn1   S    
N2    Zn2   S    
C27   C28   S    
