data_mof_unit_40669.cif
_audit_creation_date              2012-12-11T14:21:13-0500
_audit_creation_method            fapswitch 2.2
_symmetry_space_group_name_H-M    P1
_symmetry_Int_Tables_number       1
_space_group_crystal_system       triclinic
_cell_length_a                    22.005899
_cell_length_b                    7.199125
_cell_length_c                    14.932591
_cell_angle_alpha                 89.999932
_cell_angle_beta                  107.547582
_cell_angle_gamma                 89.999914
_cell_volume                      2255.58718934

loop_
_atom_site_label
_atom_site_type_symbol
_atom_type_description
_atom_site_fract_x
_atom_site_fract_y
_atom_site_fract_z
_atom_type_partial_charge
O1    O     O_R   0.584770 0.505770 0.002090 -0.519056
O2    O     O_R   0.415230 0.005770 0.997910 -0.519057
O3    O     O_R   0.467060 0.173340 0.861950 -0.550405
O4    O     O_R   0.532940 0.673340 0.138050 -0.550406
C1    C     C_R   0.454723 0.343986 0.825731 0.853995
C2    C     C_R   0.545277 0.843986 0.174269 0.853996
O5    O     O_R   0.587510 0.175890 0.993210 -0.518185
O6    O     O_R   0.412490 0.675890 0.006790 -0.518184
O7    O     O_R   0.536540 0.008150 0.130100 -0.529642
O8    O     O_R   0.463460 0.508150 0.869900 -0.529641
C3    C     C_R   0.612445 0.345153 0.995544 0.672121
C4    C     C_R   0.387555 0.845153 0.004455 0.672124
O9    O     O_3   0.483140 0.340040 0.044760 -0.376913
O10   O     O_3   0.516860 0.840040 0.955240 -0.376913
V1    V     V_3+5 0.503130 0.064190 0.991700 1.713796
V2    V     V_3+5 0.496870 0.564190 0.008300 1.713796
C5    C     C_2   0.218132 0.739781 0.019688 0.324871
C6    C     C_2   0.781868 0.239780 0.980310 0.324868
C7    C     C_2   0.177206 0.880754 0.982013 0.208455
C8    C     C_2   0.822794 0.380755 0.017985 0.208453
C9    C     C_2   0.281140 0.721370 0.001373 0.444237
C10   C     C_2   0.718860 0.221369 0.998625 0.444228
C11   C     C_2   0.323402 0.862416 0.016389 0.437761
C12   C     C_2   0.676598 0.362415 0.983609 0.437761
C13   C     C_R   0.927925 0.882415 0.722375 -0.366954
C14   C     C_R   0.072075 0.382412 0.277625 -0.366926
C15   C     C_R   0.573800 0.846859 0.276534 -0.309432
C16   C     C_R   0.426200 0.346861 0.723466 -0.309433
C17   C     C_R   0.939286 0.787121 0.572274 0.716060
C18   C     C_R   0.060714 0.287119 0.427727 0.716057
C19   C     C_R   0.966763 0.822587 0.667860 0.287344
C20   C     C_R   0.033237 0.322577 0.332139 0.287347
C21   C     C_R   0.861504 0.904326 0.679679 0.412925
C22   C     C_R   0.138494 0.404336 0.320322 0.412936
C23   C     C_R   0.832923 0.838522 0.586852 -0.024909
C24   C     C_R   0.167075 0.338538 0.413150 -0.024895
C25   C     C_R   0.872650 0.800076 0.529784 -0.334680
C26   C     C_R   0.127350 0.300087 0.470217 -0.334685
C27   C     C_R   0.765609 0.815580 0.548351 -0.120771
C28   C     C_R   0.234390 0.315598 0.451651 -0.120760
C29   C     C_R   0.737854 0.804958 0.449486 -0.172907
C30   C     C_R   0.262145 0.304974 0.550516 -0.172908
C31   C     C_R   0.778230 0.757703 0.394236 0.386984
C32   C     C_R   0.221770 0.257723 0.605767 0.386984
C33   C     C_R   0.844468 0.765135 0.432710 0.448412
C34   C     C_R   0.155532 0.265152 0.567292 0.448418
C35   C     C_R   0.725837 0.780500 0.605442 0.623784
C36   C     C_R   0.274162 0.280517 0.394559 0.623780
C37   C     C_R   0.660065 0.766090 0.566506 0.684937
C38   C     C_R   0.339933 0.266102 0.433495 0.684945
C39   C     C_R   0.631383 0.792210 0.469920 -0.382789
C40   C     C_R   0.368616 0.292218 0.530081 -0.382791
C41   C     C_R   0.670230 0.825505 0.410859 -0.169923
C42   C     C_R   0.329770 0.325517 0.589142 -0.169922
C43   C     C_R   0.564704 0.779069 0.430619 0.740455
C44   C     C_R   0.435295 0.279070 0.569381 0.740456
C45   C     C_R   0.536778 0.797357 0.334096 0.497726
C46   C     C_R   0.463221 0.297355 0.665904 0.497726
C47   C     C_R   0.639509 0.876916 0.315503 0.295237
C48   C     C_R   0.360491 0.376927 0.684497 0.295239
O11   O     O_R   0.036450 0.233070 0.130130 -0.526541
O12   O     O_R   0.963550 0.733070 0.869870 -0.526542
O13   O     O_R   0.912470 0.560570 0.006790 -0.539174
O14   O     O_R   0.087530 0.060570 0.993210 -0.539176
C49   C     C_R   0.887464 0.391329 0.004788 0.655814
C50   C     C_R   0.112535 0.891329 0.995212 0.655815
O15   O     O_R   0.032920 0.562940 0.138050 -0.547544
O16   O     O_R   0.967080 0.062940 0.861950 -0.547555
O17   O     O_R   0.084790 0.730500 0.002090 -0.520301
O18   O     O_R   0.915210 0.230500 0.997910 -0.520298
C51   C     C_R   0.045587 0.394349 0.174742 0.718530
C52   C     C_R   0.954412 0.894350 0.825258 0.718589
O19   O     O_3   0.016820 0.396170 0.955260 -0.374300
O20   O     O_3   0.983180 0.896170 0.044740 -0.374294
V3    V     V_3+5 0.996880 0.672090 0.008300 1.571536
V4    V     V_3+5 0.003120 0.172090 0.991700 1.571523
O21   O     O_3   0.200184 0.605320 0.072887 -0.626008
H1    H     H_    0.235876 0.516257 0.095922 0.375333
O22   O     O_3   0.799816 0.105319 0.927110 -0.625989
H2    H     H_    0.764125 0.016253 0.904076 0.375341
O23   O     O_3   0.031945 0.797698 0.704419 -0.576409
H3    H     H_    0.047327 0.847466 0.769073 0.284264
O24   O     O_3   0.968056 0.297675 0.295580 -0.576411
H4    H     H_    0.952673 0.347444 0.230926 0.284267
O25   O     O_3   0.823987 0.999011 0.724162 -0.578665
H5    H     H_    0.850902 0.065530 0.779899 0.327344
O26   O     O_3   0.176013 0.499030 0.275845 -0.578676
H6    H     H_    0.149102 0.565440 0.220066 0.327369
O27   O     O_3   0.755147 0.687138 0.304356 -0.567868
H7    H     H_    0.715859 0.615759 0.300003 0.312530
O28   O     O_3   0.244852 0.187159 0.695648 -0.567866
H8    H     H_    0.284140 0.115778 0.700001 0.312531
F1    F     F_    0.750517 0.732164 0.697204 -0.586140
F2    F     F_    0.249481 0.232185 0.302797 -0.586155
F3    F     F_    0.526439 0.740334 0.484580 -0.521095
F4    F     F_    0.473559 0.240331 0.515420 -0.521096
O29   O     O_3   0.194581 0.009365 0.925198 -0.593307
H9    H     H_    0.157931 0.092270 0.896600 0.330923
O30   O     O_3   0.805418 0.509367 0.074800 -0.593305
H10   H     H_    0.842068 0.592271 0.103398 0.330924
F5    F     F_    0.296645 0.551631 0.974549 -0.627845
F6    F     F_    0.703356 0.051628 0.025451 -0.627842
F7    F     F_    0.308686 0.028311 0.048549 -0.591543
F8    F     F_    0.691313 0.528312 0.951448 -0.591539
O31   O     O_3   0.880271 0.734286 0.372721 -0.558284
H11   H     H_    0.911789 0.836546 0.382890 0.360162
O32   O     O_3   0.119728 0.234305 0.627282 -0.558284
H12   H     H_    0.088208 0.336558 0.617107 0.360162
O33   O     O_3   0.671399 0.960542 0.259508 -0.591589
H13   H     H_    0.708541 0.028345 0.300724 0.330035
O34   O     O_3   0.328602 0.460557 0.740493 -0.591589
H14   H     H_    0.291461 0.528362 0.699277 0.330035
F9    F     F_    0.473071 0.769762 0.296589 -0.587186
F10   F     F_    0.526929 0.269753 0.703411 -0.587186
F11   F     F_    0.624678 0.725331 0.624405 -0.518947
F12   F     F_    0.375320 0.225341 0.375595 -0.518947
F13   F     F_    0.978532 0.726646 0.523473 -0.606330
F14   F     F_    0.021468 0.226637 0.476527 -0.606329

loop_
_geom_bond_atom_site_label_1
_geom_bond_atom_site_label_2
_ccdc_geom_bond_type
C13   C19   A    
O26   H6    S    
O13   C49   A    
C14   C20   A    
O34   H14   S    
O1    C3    A    
O2    C4    A    
C2    O7    A    
O29   H9    S    
C41   C47   A    
C35   C37   A    
C42   C48   A    
O25   H5    S    
O5    C3    A    
C4    C11   S    
C31   O27   S    
C36   F2    S    
O24   H4    S    
C23   C25   A    
O15   C51   A    
C49   O18   A    
C3    C12   S    
C18   C26   A    
C7    C50   S    
C44   F4    S    
C21   O25   S    
C21   C23   A    
C14   C22   A    
C11   F7    S    
C2    C15   S    
C33   O31   S    
C6    O22   S    
C37   C39   A    
C38   C40   A    
O32   H12   S    
C38   F12   S    
O16   C52   A    
C9    F5    S    
O11   C51   A    
C36   C38   A    
O6    V2    S    
C14   C51   S    
C29   C31   A    
C30   C32   A    
C40   C42   A    
O23   H3    S    
C16   C48   A    
O11   V4    S    
C7    O29   S    
O20   V3    S    
C8    C49   S    
C24   C28   A    
C27   C29   A    
C15   C45   A    
O28   H8    S    
C13   C52   S    
C5    C7    D    
C45   F9    S    
O5    V1    S    
C18   F14   S    
O21   H1    S    
C17   F13   S    
C5    C9    S    
C39   C41   A    
O14   C50   A    
O4    V2    S    
C23   C27   A    
C1    C16   S    
O30   H10   S    
O6    C4    A    
C34   O32   S    
C5    O21   S    
O14   V4    S    
O12   C52   A    
O1    V2    S    
O2    V1    S    
C31   C33   A    
C29   C41   A    
C32   O28   S    
C43   F3    S    
C37   F11   S    
C43   C45   A    
O18   V4    S    
O19   V4    S    
C10   C12   D    
O12   V3    S    
O4    C2    A    
O15   V3    S    
C25   C33   A    
C24   C26   A    
O3    V1    S    
C27   C35   A    
C28   C36   A    
C20   O24   S    
C35   F1    S    
C6    C10   S    
O3    C1    A    
C19   O23   S    
C6    C8    D    
C16   C46   A    
O16   V4    S    
O31   H11   S    
C10   F6    S    
C9    C11   D    
O7    V1    S    
C1    O8    A    
C17   C19   A    
C48   O34   S    
O8    V2    S    
O33   H13   S    
C30   C42   A    
C18   C20   A    
C8    O30   S    
O13   V3    S    
C28   C30   A    
C47   O33   S    
C22   C24   A    
C44   C46   A    
O17   V3    S    
C39   C43   A    
C22   O26   S    
C26   C34   A    
O22   H2    S    
C50   O17   A    
O9    V2    S    
C17   C25   A    
C46   F10   S    
O10   V1    S    
C15   C47   A    
C12   F8    S    
O27   H7    S    
C32   C34   A    
C40   C44   A    
C13   C21   A    
