data_mof_unit_59417.cif
_audit_creation_date              2012-12-10T18:57:09-0500
_audit_creation_method            fapswitch 2.2
_symmetry_space_group_name_H-M    P1
_symmetry_Int_Tables_number       1
_space_group_crystal_system       triclinic
_cell_length_a                    10.631302
_cell_length_b                    9.853509
_cell_length_c                    10.677618
_cell_angle_alpha                 89.908779
_cell_angle_beta                  90.171591
_cell_angle_gamma                 90.00543
_cell_volume                      1118.53416158

loop_
_atom_site_label
_atom_site_type_symbol
_atom_type_description
_atom_site_fract_x
_atom_site_fract_y
_atom_site_fract_z
_atom_type_partial_charge
Br1   Br    Br    0.156059 0.335476 0.265972 -0.483635
Br2   Br    Br    0.842674 0.331865 0.268134 -0.460844
C1    C     C_R   0.260255 0.499967 0.496899 0.927113
C2    C     C_R   0.523932 0.623186 0.935887 0.162775
C3    C     C_R   0.523546 0.500662 0.128555 -0.095175
C4    C     C_R   0.524406 0.500521 0.871424 -0.105159
C5    C     C_R   0.548042 0.378998 0.065052 -0.140453
C6    C     C_R   0.548611 0.378947 0.935557 -0.209897
C7    C     C_3   0.434312 0.739815 0.927809 -0.478738
C8    C     C_3   0.433598 0.739778 0.069746 -0.432328
C9    C     C_R   0.064971 0.426792 0.397640 0.232912
C10   C     C_R   0.934468 0.426216 0.398022 0.236229
C11   C     C_R   0.872071 0.500088 0.491483 -0.139829
C12   C     C_R   0.739750 0.499924 0.497060 0.917336
C13   C     C_R   0.127914 0.500309 0.491290 -0.124460
C14   C     C_R   0.935927 0.576602 0.580763 -0.195008
C15   C     C_R   0.064615 0.576541 0.580789 -0.211215
C16   C     C_R   0.578323 0.072096 0.577705 -0.192889
C17   C     C_R   0.421558 0.072322 0.422484 -0.190147
C18   C     C_R   0.578846 0.927306 0.578153 0.446149
C19   C     C_R   0.420739 0.927589 0.422323 0.439443
C20   C     C_R   0.503611 0.500105 0.259890 0.923432
C21   C     C_R   0.504101 0.499968 0.740062 0.866786
C22   C     C_R   0.523455 0.623262 0.063639 0.119317
H1    H     H_    0.558090 0.283350 0.114251 0.190921
H2    H     H_    0.359386 0.128205 0.360864 0.185334
H3    H     H_    0.707753 0.919820 0.707037 0.312493
H4    H     H_    0.290020 0.920622 0.295281 0.325493
H5    H     H_    0.558982 0.283296 0.886762 0.172509
H6    H     H_    0.478904 0.831800 0.886983 0.224283
H7    H     H_    0.341081 0.710950 0.110265 0.236810
H8    H     H_    0.342203 0.711215 0.885775 0.205225
H9    H     H_    0.477614 0.831889 0.110919 0.222866
H10   H     H_    0.885991 0.633919 0.651583 0.186526
H11   H     H_    0.114997 0.633729 0.651687 0.162469
H12   H     H_    0.640461 0.127877 0.639415 0.146764
N1    N     N_R   0.500000 0.857200 0.500000 -0.103696
N2    N     N_R   0.500000 0.142810 0.500000 -0.098138
O1    O     O_R   0.316770 0.614620 0.499990 -0.577941
O2    O     O_3   0.340701 0.855695 0.345405 -0.735561
O3    O     O_R   0.683230 0.614620 0.500010 -0.576256
O4    O     O_R   0.316800 0.385290 0.500000 -0.596966
O5    O     O_R   0.683200 0.385290 0.500000 -0.596499
O6    O     O_R   0.500000 0.614690 0.316780 -0.585162
O7    O     O_R   0.500000 0.614690 0.683220 -0.584318
O8    O     O_R   0.500020 0.385360 0.316780 -0.603234
O9    O     O_R   0.499980 0.385360 0.683220 -0.632291
O10   O     O_3   0.657552 0.855079 0.656425 -0.740708
Zn1   Zn    Zn3+2 0.500000 0.653120 0.500000 1.051668
Zn2   Zn    Zn3+2 0.500000 0.346880 0.500000 0.995695

loop_
_geom_bond_atom_site_label_1
_geom_bond_atom_site_label_2
_ccdc_geom_bond_type
H3    O10   S    
O6    Zn1   S    
C9    C10   A    
C3    C5    A    
O5    Zn2   S    
C14   H10   S    
N2    Zn2   S    
C17   N2    A    
C8    H9    S    
N1    Zn1   S    
C7    C8    S    
O8    Zn2   S    
Br1   C9    S    
O7    Zn1   S    
Br2   C10   S    
C16   N2    A    
C1    O1    A    
C5    C6    A    
C1    O4    A    
C11   C12   S    
C18   N1    A    
C3    C22   A    
C18   O10   S    
C19   O2    S    
C16   H12   S    
C7    H6    S    
O4    Zn2   S    
C12   O3    A    
C21   O7    A    
C4    C21   S    
O3    Zn1   S    
O1    Zn1   S    
O9    Zn2   S    
C16   C18   A    
C2    C22   A    
C21   O9    A    
C6    H5    S    
C20   O8    A    
C1    C13   S    
C10   C11   A    
C19   N1    A    
C2    C4    A    
C11   C14   A    
C13   C15   A    
C17   H2    S    
H4    O2    S    
C14   C15   A    
C4    C6    A    
C15   H11   S    
C7    H8    S    
C8    C22   S    
C2    C7    S    
C9    C13   A    
C8    H7    S    
C20   O6    A    
C3    C20   S    
C12   O5    A    
C17   C19   A    
C5    H1    S    
