data_mof_unit_25087.cif
_audit_creation_date              2012-12-10T18:06:44-0500
_audit_creation_method            fapswitch 2.2
_symmetry_space_group_name_H-M    P1
_symmetry_Int_Tables_number       1
_space_group_crystal_system       triclinic
_cell_length_a                    12.647437
_cell_length_b                    13.18923
_cell_length_c                    15.570887
_cell_angle_alpha                 84.036618
_cell_angle_beta                  100.019597
_cell_angle_gamma                 96.570156
_cell_volume                      2531.58532274

loop_
_atom_site_label
_atom_site_type_symbol
_atom_type_description
_atom_site_fract_x
_atom_site_fract_y
_atom_site_fract_z
_atom_type_partial_charge
C1    C     C_R   0.444459 0.307974 0.512466 0.868013
C2    C     C_R   0.665733 0.542188 0.924223 0.106320
C3    C     C_R   0.560214 0.495854 0.899650 0.116545
C4    C     C_R   0.434654 0.514892 0.335859 0.895968
C5    C     C_R   0.745917 0.531163 0.875038 -0.188027
C6    C     C_R   0.717448 0.488019 0.794527 -0.019169
C7    C     C_R   0.530363 0.470798 0.813592 -0.163369
C8    C     C_R   0.730097 0.936173 0.526135 -0.159404
C9    C     C_R   0.591800 0.799690 0.487030 -0.052719
C10   C     C_R   0.297717 0.163011 0.490317 -0.102926
C11   C     C_R   0.271490 0.076272 0.441847 -0.128822
C12   C     C_R   0.434231 0.538917 0.091461 0.008987
C13   C     C_R   0.355287 0.021375 0.426882 -0.122942
C14   C     C_R   0.460500 0.039181 0.477538 0.047492
C15   C     C_R   0.486311 0.128943 0.521647 0.100087
C16   C     C_R   0.556121 0.691176 0.489926 0.888037
C17   C     C_R   0.541078 0.970721 0.486995 0.107438
C18   C     C_R   0.649555 0.001679 0.523015 0.157432
C19   C     C_R   0.673710 0.092378 0.563551 -0.157702
C20   C     C_R   0.591316 0.151052 0.568694 -0.097159
C21   C     C_R   0.513656 0.867720 0.474068 -0.147184
C22   C     C_R   0.701142 0.835215 0.506397 -0.159796
C23   C     C_R   0.327118 0.494512 0.064323 0.086404
C24   C     C_R   0.408017 0.197492 0.515619 -0.177503
C25   C     C_R   0.142483 0.642923 0.626708 -0.273598
C26   C     C_R   0.759189 0.381738 0.393039 0.037998
C27   C     C_R   0.855788 0.366264 0.365370 -0.155723
C28   C     C_R   0.564873 0.483394 0.663929 0.868675
C29   C     C_R   0.950847 0.416337 0.405771 -0.153777
C30   C     C_R   0.952077 0.479502 0.473593 -0.004065
C31   C     C_R   0.853057 0.497083 0.495564 0.221406
C32   C     C_R   0.048293 0.526910 0.518751 0.017872
C33   C     C_R   0.044327 0.599263 0.580380 0.022063
C34   C     C_R   0.507516 0.549430 0.030009 0.072871
C35   C     C_R   0.942340 0.623392 0.593721 -0.087313
C36   C     C_R   0.849943 0.567074 0.555743 -0.236362
C37   C     C_R   0.148930 0.502934 0.505093 -0.012656
C38   C     C_R   0.239334 0.621666 0.603991 0.055565
C39   C     C_R   0.392638 0.526568 0.240539 -0.193748
C40   C     C_R   0.606332 0.474942 0.758380 -0.141282
C41   C     C_R   0.247998 0.490622 0.118415 -0.085734
C42   C     C_R   0.281881 0.500559 0.208246 -0.226892
C43   C     C_R   0.465477 0.558689 0.181204 -0.035208
C44   C     C_2   0.211479 0.218788 0.512477 0.994061
C45   C     C_R   0.483941 0.489177 0.957121 0.034279
C46   C     C_2   0.335057 0.954578 0.353078 0.922695
C47   C     C_2   0.157518 0.045733 0.404686 1.069328
C48   C     C_2   0.340832 0.674519 0.647175 0.999887
C49   C     C_2   0.925762 0.712457 0.638892 0.908047
C50   C     C_2   0.148287 0.702634 0.703961 0.991661
C51   C     C_2   0.659245 0.320479 0.357245 1.040385
C52   C     C_2   0.861750 0.298796 0.295235 0.983425
C53   C     C_2   0.803155 0.451450 0.754880 0.964052
C54   C     C_2   0.131170 0.470303 0.080896 0.894211
C55   C     C_2   0.201612 0.476800 0.268188 1.032188
C56   C     C_R   0.384995 0.425436 0.943936 -0.076060
C57   C     C_2   0.575207 0.603728 0.217993 0.922021
C58   C     C_2   0.368091 0.333206 0.893668 0.910351
C59   C     C_R   0.304030 0.440057 0.989725 -0.165742
C60   C     C_R   0.603839 0.616482 0.038430 -0.133647
C61   C     C_R   0.686311 0.604682 0.992906 -0.148824
H1    H     H_    0.430151 0.837179 0.462481 0.187527
H2    H     H_    0.008217 0.993246 0.428217 0.357372
H3    H     H_    0.610958 0.215666 0.608171 0.177036
H4    H     H_    0.453258 0.683143 0.755785 0.347822
H5    H     H_    0.445957 0.457039 0.786511 0.196198
H6    H     H_    0.953116 0.864900 0.647824 0.360708
H7    H     H_    0.110635 0.577836 0.782730 0.331136
H8    H     H_    0.159695 0.445479 0.464321 0.179799
H9    H     H_    0.533120 0.303500 0.259173 0.349846
H10   H     H_    0.022402 0.406891 0.380480 0.245491
H11   H     H_    0.953215 0.214060 0.242380 0.382955
H12   H     H_    0.775148 0.582861 0.571354 0.213041
H13   H     H_    0.961108 0.457732 0.748090 0.337274
H14   H     H_    0.763181 0.650325 0.006899 0.171307
H15   H     H_    0.011569 0.499316 0.980270 0.361642
H16   H     H_    0.147406 0.616449 0.242798 0.316300
H17   H     H_    0.664374 0.717964 0.282006 0.353825
H18   H     H_    0.432499 0.214129 0.857913 0.366132
H19   H     H_    0.617162 0.679081 0.079544 0.162157
H20   H     H_    0.227060 0.394724 0.975292 0.191934
H21   H     H_    0.829535 0.555402 0.899630 0.195094
H22   H     H_    0.762854 0.783286 0.513548 0.171418
H23   H     H_    0.754717 0.114396 0.596312 0.162901
H24   H     H_    0.813913 0.960892 0.549413 0.167721
H25   H     H_    0.157822 0.287269 0.604416 0.342952
H26   H     H_    0.243212 0.838617 0.293131 0.358303
N1    N     N_R   0.239390 0.551900 0.544730 -0.150796
N2    N     N_R   0.759950 0.448600 0.455730 -0.165617
O1    O     O_R   0.374950 0.371210 0.521360 -0.591649
O2    O     O_R   0.220955 0.249955 0.596871 -0.756265
O3    O     O_2   0.397686 0.963551 0.300498 -0.566545
O4    O     O_R   0.246824 0.879889 0.345165 -0.771436
O5    O     O_2   0.128124 0.052930 0.325401 -0.563675
O6    O     O_R   0.083627 0.010896 0.460921 -0.744407
O7    O     O_2   0.375219 0.757530 0.615000 -0.605953
O8    O     O_R   0.387178 0.637721 0.730936 -0.821417
O9    O     O_2   0.868856 0.701193 0.695815 -0.599914
O10   O     O_R   0.969892 0.810335 0.612296 -0.757333
O11   O     O_2   0.179385 0.793866 0.699196 -0.488432
O12   O     O_R   0.542050 0.338030 0.492790 -0.608912
O13   O     O_R   0.123529 0.654904 0.783318 -0.700419
O14   O     O_2   0.637994 0.234722 0.391352 -0.634829
O15   O     O_R   0.597489 0.354033 0.278250 -0.722576
O16   O     O_2   0.783974 0.280623 0.238450 -0.564805
O17   O     O_R   0.958387 0.257670 0.293150 -0.705077
O18   O     O_2   0.781944 0.379974 0.708608 -0.622027
O19   O     O_R   0.910201 0.492310 0.776591 -0.783308
O20   O     O_2   0.070932 0.409798 0.119342 -0.570541
O21   O     O_R   0.091161 0.519828 0.999873 -0.752892
O22   O     O_2   0.194185 0.392247 0.308020 -0.543122
O23   O     O_R   0.368720 0.526070 0.390200 -0.610136
O24   O     O_R   0.133545 0.549222 0.278828 -0.778637
O25   O     O_2   0.654148 0.557897 0.218424 -0.561841
O26   O     O_R   0.586634 0.696146 0.256811 -0.797647
O27   O     O_2   0.278814 0.307006 0.853378 -0.590431
O28   O     O_R   0.453896 0.274776 0.894433 -0.767176
O29   O     O_R   0.535820 0.492890 0.361630 -0.579685
O30   O     O_R   0.457950 0.661970 0.507210 -0.598728
O31   O     O_R   0.625050 0.628790 0.478640 -0.645753
O32   O     O_R   0.464180 0.507110 0.638370 -0.602177
O33   O     O_R   0.631280 0.473930 0.609800 -0.615002
O34   O     O_2   0.132662 0.237163 0.457806 -0.593252
Zn1   Zn    Zn3+2 0.388420 0.522150 0.519080 1.013861
Zn2   Zn    Zn3+2 0.611580 0.477850 0.480920 0.992249

loop_
_geom_bond_atom_site_label_1
_geom_bond_atom_site_label_2
_ccdc_geom_bond_type
C58   O27   D    
C1    O1    A    
C37   H8    S    
C27   C29   A    
C41   C42   A    
H26   O4    S    
C37   N1    A    
C11   C47   S    
C19   C20   A    
N1    Zn1   S    
C57   O26   S    
N2    Zn2   S    
O30   Zn1   S    
C61   H14   S    
C26   N2    A    
C23   C59   A    
C48   O8    S    
C12   C23   A    
C26   C27   A    
C5    C6    A    
C9    C16   S    
H7    O13   S    
O23   Zn1   S    
C12   C43   A    
C3    C7    A    
H25   O2    S    
C16   O31   A    
C30   C31   A    
C42   C55   S    
C28   O33   A    
C9    C22   A    
C46   O3    D    
C28   C40   S    
C51   O14   D    
H2    O6    S    
C54   O21   S    
C8    H24   S    
C25   C50   S    
O32   Zn1   S    
C49   O9    D    
H17   O26   S    
C45   C56   A    
C31   N2    A    
C35   C49   S    
C8    C22   A    
C7    C40   A    
O29   Zn2   S    
C38   C48   S    
C2    C61   A    
H6    O10   S    
C4    O23   A    
C52   O17   S    
C13   C14   A    
C34   C60   A    
C14   C17   A    
C4    O29   A    
H16   O24   S    
C39   C42   A    
C15   C20   A    
C10   C44   S    
C36   H12   S    
C16   O30   A    
O31   Zn2   S    
C18   C19   A    
C39   C43   A    
C55   O24   S    
C10   C24   A    
C51   O15   S    
C3    C45   A    
C58   O28   S    
C8    C18   A    
C54   O20   D    
C38   N1    A    
C60   C61   A    
C35   C36   A    
C20   H3    S    
C29   C30   A    
C25   C38   A    
C49   O10   S    
C53   O18   D    
O12   Zn2   S    
C4    C39   S    
C17   C18   A    
C34   C45   A    
C32   C37   A    
C21   H1    S    
C44   O2    S    
C15   C24   A    
H11   O17   S    
C52   O16   D    
C50   O13   S    
C6    C40   A    
C2    C5    A    
C6    C53   S    
C12   C34   A    
C19   H23   S    
C1    O12   A    
C27   C52   S    
C60   H19   S    
C48   O7    D    
C55   O22   D    
C31   C36   A    
O1    Zn1   S    
C59   H20   S    
C57   O25   D    
C44   O34   D    
C50   O11   D    
C23   C41   A    
C56   C59   A    
C32   C33   A    
O33   Zn2   S    
C2    C3    A    
H4    O8    S    
C26   C51   S    
C22   H22   S    
C7    H5    S    
C30   C32   A    
C5    H21   S    
C11   C13   A    
C53   O19   S    
C9    C21   A    
C13   C46   S    
C46   O4    S    
H18   O28   S    
C33   C35   A    
C47   O5    D    
C56   C58   S    
H9    O15   S    
C17   C21   A    
C41   C54   S    
C10   C11   A    
C43   C57   S    
H13   O19   S    
C1    C24   S    
H15   O21   S    
C47   O6    S    
C14   C15   A    
C28   O32   A    
C25   C33   A    
C29   H10   S    
