data_mof_unit_56094.cif
_audit_creation_date              2012-12-11T17:36:24-0500
_audit_creation_method            fapswitch 2.2
_symmetry_space_group_name_H-M    P1
_symmetry_Int_Tables_number       1
_space_group_crystal_system       triclinic
_cell_length_a                    25.80237
_cell_length_b                    6.88958
_cell_length_c                    21.683372
_cell_angle_alpha                 89.999931
_cell_angle_beta                  96.268776
_cell_angle_gamma                 90.000598
_cell_volume                      3831.55051177

loop_
_atom_site_label
_atom_site_type_symbol
_atom_type_description
_atom_site_fract_x
_atom_site_fract_y
_atom_site_fract_z
_atom_type_partial_charge
O1    O     O_R   0.208650 0.594520 0.175450 -0.538340
O2    O     O_R   0.791350 0.405480 0.824550 -0.534823
O3    O     O_R   0.291350 0.094520 0.324550 -0.538345
O4    O     O_R   0.708650 0.905480 0.675450 -0.534820
O5    O     O_R   0.192980 0.260780 0.300160 -0.540281
O6    O     O_R   0.807020 0.739220 0.699840 -0.541409
O7    O     O_R   0.307020 0.760780 0.199840 -0.540280
O8    O     O_R   0.692980 0.239220 0.800160 -0.541412
C1    C     C_R   0.178772 0.432879 0.318446 0.688187
C2    C     C_R   0.821246 0.567118 0.681579 0.685205
C3    C     C_R   0.321228 0.932880 0.181554 0.688194
C4    C     C_R   0.678754 0.067116 0.818421 0.685190
O9    O     O_R   0.202550 0.264660 0.174420 -0.528950
O10   O     O_R   0.797450 0.735340 0.825580 -0.526877
O11   O     O_R   0.297450 0.764660 0.325580 -0.528958
O12   O     O_R   0.702550 0.235340 0.674420 -0.526883
O13   O     O_R   0.300990 0.096480 0.197920 -0.540611
O14   O     O_R   0.699010 0.903520 0.802080 -0.541741
O15   O     O_R   0.199010 0.596480 0.302080 -0.540610
O16   O     O_R   0.800990 0.403520 0.697920 -0.541744
C5    C     C_R   0.190998 0.434469 0.150915 0.702658
C6    C     C_R   0.809001 0.565525 0.849085 0.701669
C7    C     C_R   0.309002 0.934470 0.349085 0.702654
C8    C     C_R   0.690999 0.065523 0.650915 0.701651
O17   O     O_3   0.282290 0.427760 0.257860 -0.361979
O18   O     O_3   0.717710 0.572240 0.742140 -0.360174
O19   O     O_3   0.217710 0.927760 0.242140 -0.361970
O20   O     O_3   0.782290 0.072240 0.757860 -0.360175
V1    V     V_3+5 0.244010 0.152080 0.248540 1.459594
V2    V     V_3+5 0.755990 0.847920 0.751460 1.485921
V3    V     V_3+5 0.255990 0.652080 0.251460 1.459584
V4    V     V_3+5 0.744010 0.347920 0.748540 1.485902
C9    C     C_R   0.658102 0.047771 0.590947 -0.068377
C10   C     C_R   0.341881 0.952126 0.409067 -0.076757
C11   C     C_R   0.841902 0.547781 0.909051 -0.068403
C12   C     C_R   0.158121 0.452120 0.090930 -0.076742
C13   C     C_R   0.648854 0.904660 0.488417 -0.096530
C14   C     C_R   0.351073 0.094331 0.511722 -0.118095
C15   C     C_R   0.851152 0.404744 0.011591 -0.096549
C16   C     C_R   0.148936 0.594294 0.988271 -0.118077
C17   C     C_R   0.680360 0.968662 0.540651 -0.156525
C18   C     C_R   0.319595 0.030870 0.459396 -0.165958
C19   C     C_R   0.819644 0.468735 0.959357 -0.156531
C20   C     C_R   0.180411 0.530854 0.040602 -0.165949
C21   C     C_R   0.603693 0.074496 0.586362 -0.052749
C22   C     C_R   0.396285 0.925282 0.413682 -0.098386
C23   C     C_R   0.896312 0.574467 0.913627 -0.052737
C24   C     C_R   0.103717 0.425264 0.086310 -0.098345
C25   C     C_R   0.571139 0.024854 0.531355 0.133471
C26   C     C_R   0.428798 0.974228 0.468792 0.128628
C27   C     C_R   0.928868 0.524848 0.968634 0.133479
C28   C     C_R   0.071208 0.474204 0.031197 0.128578
C29   C     C_R   0.594448 0.922547 0.485010 0.074207
C30   C     C_R   0.405474 0.076236 0.515188 0.079463
C31   C     C_R   0.905558 0.422583 0.014988 0.074215
C32   C     C_R   0.094534 0.576197 0.984800 0.079348
C33   C     C_R   0.515755 0.055016 0.523378 -0.053300
C34   C     C_R   0.484168 0.943934 0.476810 -0.069850
C35   C     C_R   0.984253 0.554990 0.976604 -0.053378
C36   C     C_R   0.015838 0.443914 0.023175 -0.069879
C37   C     C_R   0.509575 0.807692 0.440674 0.478480
C38   C     C_R   0.490327 0.191239 0.559528 0.411276
C39   C     C_R   0.990429 0.307683 0.059313 0.478460
C40   C     C_R   0.009684 0.691186 0.940447 0.411658
C41   C     C_R   0.563474 0.818567 0.439834 -0.187420
C42   C     C_R   0.436438 0.180110 0.560401 -0.221424
C43   C     C_R   0.936532 0.318591 0.060162 -0.187468
C44   C     C_R   0.063573 0.680050 0.939580 -0.221413
H1    H     H_    0.582058 0.724164 0.408788 0.168952
H2    H     H_    0.417839 0.274397 0.591464 0.154371
H3    H     H_    0.917947 0.224200 0.091211 0.168942
H4    H     H_    0.082175 0.774314 0.908512 0.154348
H5    H     H_    0.413012 0.881947 0.372458 0.161952
H6    H     H_    0.586964 0.118226 0.627544 0.154341
H7    H     H_    0.086987 0.381918 0.127531 0.161936
H8    H     H_    0.913040 0.618145 0.872439 0.154484
H9    H     H_    0.277933 0.056059 0.456326 0.107562
H10   H     H_    0.722026 0.943567 0.543693 0.105492
H11   H     H_    0.222073 0.556046 0.043675 0.107559
H12   H     H_    0.777977 0.443680 0.956323 0.105492
H13   H     H_    0.666906 0.830027 0.452285 0.120621
H14   H     H_    0.333008 0.168791 0.547877 0.121239
H15   H     H_    0.833099 0.330155 0.047731 0.120623
H16   H     H_    0.167004 0.668737 0.952115 0.121240
C45   C     C_R   0.427271 0.793295 0.079271 -0.121987
C46   C     C_R   0.572457 0.206670 0.920347 -0.128279
C47   C     C_R   0.072729 0.293293 0.420730 -0.121992
C48   C     C_R   0.927543 0.706672 0.579652 -0.128290
H17   H     H_    0.445417 0.662467 0.064120 0.107824
H18   H     H_    0.554186 0.337470 0.935321 0.107535
H19   H     H_    0.054583 0.162464 0.435883 0.107822
H20   H     H_    0.945814 0.837473 0.564676 0.107528
C49   C     C_R   0.388044 0.778338 0.119255 -0.148399
C50   C     C_R   0.611728 0.221619 0.880423 -0.155916
C51   C     C_R   0.111956 0.278335 0.380747 -0.148411
C52   C     C_R   0.888272 0.721621 0.619575 -0.155896
H21   H     H_    0.376827 0.635674 0.133969 0.122434
H22   H     H_    0.622845 0.364246 0.865567 0.122639
H23   H     H_    0.123172 0.135671 0.366033 0.122432
H24   H     H_    0.877155 0.864249 0.634431 0.122629
C53   C     C_R   0.363579 0.945827 0.139699 -0.055927
C54   C     C_R   0.636359 0.054168 0.860215 -0.054728
C55   C     C_R   0.136420 0.445825 0.360302 -0.055928
C56   C     C_R   0.863641 0.554171 0.639784 -0.054704
C57   C     C_R   0.379683 0.128194 0.119045 -0.150563
C58   C     C_R   0.620364 0.871845 0.881025 -0.152177
C59   C     C_R   0.120317 0.628191 0.380954 -0.150564
C60   C     C_R   0.879636 0.371848 0.618977 -0.152188
H25   H     H_    0.361945 0.260691 0.133475 0.122988
H26   H     H_    0.638228 0.739379 0.866773 0.122665
H27   H     H_    0.138055 0.760689 0.366523 0.122989
H28   H     H_    0.861773 0.239381 0.633230 0.122663
C61   C     C_R   0.418787 0.142652 0.079192 -0.125939
C62   C     C_R   0.581217 0.857396 0.920819 -0.129258
C63   C     C_R   0.081213 0.642650 0.420807 -0.125944
C64   C     C_R   0.918784 0.357398 0.579183 -0.129270
H29   H     H_    0.430200 0.284701 0.064037 0.106320
H30   H     H_    0.569898 0.715385 0.936109 0.106529
H31   H     H_    0.069801 0.784698 0.435961 0.106319
H32   H     H_    0.930102 0.215386 0.563895 0.106526
C65   C     C_R   0.442804 0.975608 0.058940 0.126741
C66   C     C_R   0.557043 0.024405 0.940849 0.127567
C67   C     C_R   0.057196 0.475606 0.441060 0.126743
C68   C     C_R   0.942957 0.524407 0.559151 0.127573
C69   C     C_1   0.483110 0.992350 0.017289 -0.048928
C70   C     C_1   0.516720 0.007678 0.982478 -0.050180
C71   C     C_1   0.016890 0.492349 0.482712 -0.048935
C72   C     C_1   0.983280 0.507679 0.517523 -0.050187
S1    S     S_3+6 0.479941 0.591162 0.408644 0.007293
O21   O     O_2   0.466132 0.616032 0.339938 -0.358527
O22   O     O_2   0.518132 0.426452 0.419080 -0.314858
O23   O     O_3   0.426293 0.533953 0.442470 -0.491772
H33   H     H_    0.412208 0.415988 0.420530 0.355375
S2    S     S_3+6 0.519867 0.408034 0.591662 0.014989
O24   O     O_2   0.567334 0.460315 0.560721 -0.301807
O25   O     O_2   0.481634 0.572915 0.582227 -0.313420
O26   O     O_3   0.536592 0.380778 0.668338 -0.513190
H34   H     H_    0.503831 0.344244 0.685299 0.322266
S3    S     S_3+6 0.020058 0.091121 0.091324 0.007287
O27   O     O_2   0.033867 0.115922 0.160032 -0.358498
O28   O     O_2   0.981862 0.926424 0.080871 -0.314884
O29   O     O_3   0.073705 0.033943 0.057495 -0.491769
H35   H     H_    0.087764 0.915867 0.079392 0.355382
S4    S     S_3+6 0.980147 0.907951 0.908291 0.014855
O30   O     O_2   0.932683 0.960296 0.939227 -0.301781
O31   O     O_2   0.018382 0.072835 0.917703 -0.313575
O32   O     O_3   0.963419 0.880591 0.831619 -0.513358
H36   H     H_    0.996234 0.845028 0.814614 0.322514

loop_
_geom_bond_atom_site_label_1
_geom_bond_atom_site_label_2
_ccdc_geom_bond_type
O17   V3    S    
C48   C52   A    
O1    C5    A    
C47   H19   S    
O19   V1    S    
C9    C21   A    
C16   H16   S    
O3    C7    A    
O32   H36   S    
C10   C18   A    
C48   C68   A    
C11   C23   A    
S2    O26   S    
C25   C33   A    
C33   C38   A    
C5    C12   S    
O7    C3    A    
C6    C11   S    
O5    C1    A    
C26   C30   A    
C58   C62   A    
C36   C39   A    
C40   C44   A    
C57   C61   A    
C23   H8    S    
C14   C18   A    
C58   H26   S    
O4    C8    A    
S3    O29   S    
C51   H23   S    
C44   H4    S    
C50   H22   S    
O1    V3    S    
O13   V1    S    
C31   C43   A    
O2    V4    S    
O3    V1    S    
C46   C50   A    
C65   C69   S    
C45   C49   A    
C1    O15   A    
C15   C31   A    
C48   H20   S    
C2    O16   A    
O23   H33   S    
C16   C32   A    
C47   C51   A    
O2    C6    A    
C45   C65   A    
C10   C22   A    
C11   C19   A    
C16   C20   A    
C43   H3    S    
C37   S1    S    
C68   C72   S    
S1    O23   S    
C13   C29   A    
C34   C37   A    
O11   C7    A    
O15   V3    S    
C35   C36   A    
O12   C8    A    
C14   H14   S    
C53   C57   A    
C24   H7    S    
C13   H13   S    
C59   H27   S    
O10   V2    S    
S4    O32   S    
C51   C55   A    
O5    V1    S    
O17   V1    S    
C39   C43   A    
C63   C67   A    
C38   C42   A    
O19   V3    S    
C26   C34   A    
O20   V4    S    
O7    V3    S    
S4    O31   D    
C46   H18   S    
C49   C53   A    
C17   H10   S    
C45   H17   S    
O18   V4    S    
S2    O25   D    
C40   S4    S    
C19   H12   S    
C32   C44   A    
C64   H32   S    
C21   H6    S    
O8    V4    S    
C66   C70   S    
C4    C54   S    
C23   C27   A    
C67   C71   S    
C14   C30   A    
C21   C25   A    
O8    C4    A    
C7    C10   S    
C35   C40   A    
O9    C5    A    
C3    C53   S    
O10   C6    A    
C59   C63   A    
C62   H30   S    
C61   H29   S    
O6    V2    S    
O18   V2    S    
C63   H31   S    
C52   C56   A    
C69   C70   T    
C12   C20   A    
C27   C35   A    
C71   C72   T    
C49   H21   S    
C56   C60   A    
C29   C41   A    
S1    O21   D    
O16   V4    S    
O9    V1    S    
C57   H25   S    
C3    O13   A    
C64   C68   A    
C39   S3    S    
C20   H11   S    
S4    O30   D    
O6    C2    A    
C15   C19   A    
S3    O27   D    
O11   V3    S    
S2    O24   D    
C30   C42   A    
O12   V4    S    
O26   H34   S    
C22   C26   A    
C8    C9    S    
C9    C17   A    
C38   S2    S    
C2    C56   S    
C15   H15   S    
C47   C67   A    
S3    O28   D    
C60   C64   A    
C33   C34   A    
C42   H2    S    
C41   H1    S    
C52   H24   S    
O20   V2    S    
C1    C55   S    
C12   C24   A    
C27   C31   A    
C37   C41   A    
C13   C17   A    
C46   C66   A    
C25   C29   A    
O14   V2    S    
C62   C66   A    
C60   H28   S    
C24   C28   A    
C61   C65   A    
C50   C54   A    
C18   H9    S    
C28   C36   A    
C54   C58   A    
C4    O14   A    
O29   H35   S    
C55   C59   A    
C22   H5    S    
O4    V2    S    
C28   C32   A    
S1    O22   D    
