data_mof_unit_58722.cif
_audit_creation_date              2012-10-26T18:49:00-0400
_audit_creation_method            fapswitch 2.2
_symmetry_space_group_name_H-M    P1
_symmetry_Int_Tables_number       1
_space_group_crystal_system       triclinic
_cell_length_a                    10.944922
_cell_length_b                    10.942376
_cell_length_c                    9.711713
_cell_angle_alpha                 87.785968
_cell_angle_beta                  90.980565
_cell_angle_gamma                 87.996061
_cell_volume                      1161.33064473

loop_
_atom_site_label
_atom_site_type_symbol
_atom_type_description
_atom_site_fract_x
_atom_site_fract_y
_atom_site_fract_z
_atom_type_partial_charge
C1    C     C_R   0.504396 0.264853 0.502651 0.614344
C2    C     C_2   0.490062 0.404121 0.078672 0.126168
C3    C     C_R   0.260157 0.492997 0.499660 0.628801
C4    C     C_R   0.501420 0.734355 0.497435 0.587271
C5    C     C_R   0.739319 0.502074 0.501885 0.588712
C6    C     C_3   0.074465 0.493602 0.662230 -0.036158
C7    C     C_3   0.931382 0.480806 0.658311 -0.108689
C8    C     C_3   0.065767 0.612726 0.411569 0.030792
C9    C     C_3   0.069575 0.369184 0.431013 -0.055679
C10   C     C_3   0.121448 0.491967 0.500647 -0.169340
C11   C     C_2   0.111539 0.609435 0.737853 0.626714
C12   C     C_3   0.876699 0.500292 0.506186 -0.050682
C13   C     C_2   0.095767 0.605384 0.255371 0.572020
C14   C     C_2   0.603300 0.299384 0.889435 0.604694
C15   C     C_2   0.125335 0.387637 0.762054 0.605226
C16   C     C_2   0.865918 0.543500 0.777689 0.664669
C17   C     C_2   0.121488 0.735545 0.447726 0.674645
C18   C     C_2   0.117824 0.338830 0.286356 0.621961
C19   C     C_2   0.109465 0.251900 0.515877 0.619194
C20   C     C_2   0.852356 0.273958 0.428310 0.599234
C21   C     C_3   0.921129 0.623650 0.436938 0.365543
C22   C     C_3   0.924677 0.390872 0.418096 -0.150461
C23   C     C_2   0.542021 0.935264 0.391857 0.246135
C24   C     C_2   0.491983 0.866201 0.491725 0.022115
C25   C     C_2   0.526046 0.069727 0.393073 -0.065413
C26   C     C_2   0.522056 0.131407 0.510344 0.197204
C27   C     C_2   0.526243 0.405192 0.930477 0.177661
Cu1   Cu    Cu3+1 0.500030 0.500020 0.638630 1.146385
Cu2   Cu    Cu3+1 0.499970 0.499980 0.361370 1.143622
H1    H     H_    0.901004 0.424984 0.311762 0.234786
H2    H     H_    0.636202 0.946006 0.224878 0.355554
H3    H     H_    0.521380 0.122636 0.711188 0.369980
H4    H     H_    0.656287 0.122593 0.928357 0.375132
H5    H     H_    0.102753 0.286889 0.937504 0.380101
H6    H     H_    0.583559 0.643481 0.167729 0.412371
H7    H     H_    0.801757 0.526029 0.971061 0.374860
H8    H     H_    0.245993 0.828241 0.551184 0.332729
H9    H     H_    0.803225 0.739495 0.516567 0.369079
H10   H     H_    0.259738 0.291435 0.167673 0.326923
H11   H     H_    0.245908 0.128328 0.568148 0.349359
H12   H     H_    0.438570 0.906552 0.572200 0.119423
H13   H     H_    0.765723 0.152245 0.548731 0.380153
H14   H     H_    0.518466 0.118341 0.293459 0.136232
H15   H     H_    0.441236 0.565163 0.885184 0.283225
H16   H     H_    0.469541 0.317250 0.128421 0.126928
H17   H     H_    0.913178 0.383298 0.682465 0.217713
H18   H     H_    0.222982 0.684169 0.877761 0.356439
H19   H     H_    0.044261 0.566282 0.061419 0.391048
H20   H     H_    0.873435 0.734257 0.280127 0.386840
N1    N     N_2   0.498630 0.498660 0.846910 -0.318286
N2    N     N_2   0.498590 0.498630 0.153040 -0.082877
O1    O     O_R   0.500020 0.321960 0.617040 -0.476096
O2    O     O_R   0.209008 0.603172 0.833730 -0.670905
O3    O     O_2   0.193433 0.641473 0.212662 -0.457209
O4    O     O_R   0.012364 0.563243 0.158850 -0.628268
O5    O     O_3   0.856035 0.649229 0.311465 -0.646640
O6    O     O_3   0.604776 0.880601 0.286817 -0.665516
O7    O     O_3   0.548374 0.070735 0.635736 -0.716523
O8    O     O_2   0.678744 0.311374 0.799434 -0.405391
O9    O     O_R   0.595891 0.186841 0.961657 -0.727776
O10   O     O_2   0.222829 0.333313 0.744224 -0.470424
O11   O     O_R   0.062067 0.357791 0.881863 -0.607707
O12   O     O_R   0.499980 0.321920 0.382900 -0.526325
O13   O     O_3   0.555895 0.592702 0.092481 -0.610517
O14   O     O_2   0.826159 0.649180 0.765941 -0.414846
O15   O     O_R   0.847442 0.476707 0.900791 -0.589571
O16   O     O_2   0.075623 0.831154 0.397230 -0.422450
O17   O     O_R   0.226999 0.741101 0.529407 -0.688907
O18   O     O_3   0.892524 0.720124 0.524561 -0.586521
O19   O     O_2   0.046750 0.318840 0.191863 -0.439738
O20   O     O_R   0.242460 0.317747 0.264567 -0.631346
O21   O     O_2   0.039297 0.198074 0.591520 -0.447386
O22   O     O_R   0.230132 0.205844 0.508941 -0.644239
O23   O     O_R   0.317710 0.500000 0.617070 -0.434072
O24   O     O_2   0.844786 0.209720 0.328398 -0.433223
O25   O     O_R   0.797562 0.237869 0.551454 -0.635818
O26   O     O_R   0.317670 0.499960 0.382930 -0.430664
O27   O     O_R   0.500020 0.678080 0.617100 -0.492712
O28   O     O_R   0.499980 0.678040 0.382960 -0.461929
O29   O     O_R   0.682330 0.500040 0.617070 -0.460380
O30   O     O_R   0.682290 0.500000 0.382930 -0.480391
O31   O     O_2   0.054509 0.706796 0.720489 -0.400911

loop_
_geom_bond_atom_site_label_1
_geom_bond_atom_site_label_2
_ccdc_geom_bond_type
C18   O19   D    
H19   O4    S    
Cu2   O12   S    
C8    C13   S    
H3    O7    S    
Cu1   O23   S    
C25   H14   S    
Cu2   O30   S    
C14   O8    D    
Cu1   Cu2   S    
C4    C24   S    
H7    O15   S    
C9    C22   S    
H8    O17   S    
C12   C22   S    
H5    O11   S    
H11   O22   S    
C20   O25   S    
C3    O23   A    
C6    C15   S    
Cu1   N1    S    
C9    C19   S    
C23   C24   D    
C2    C27   S    
C14   C27   S    
Cu1   O27   S    
C9    C10   S    
C11   O2    S    
C27   N1    D    
H18   O2    S    
H9    O18   S    
C11   O31   D    
C24   H12   S    
C19   O21   D    
C1    O12   A    
C2    H16   S    
C7    C12   S    
C17   O16   D    
C7    H17   S    
C19   O22   S    
C5    C12   S    
C6    C11   S    
C25   C26   D    
C12   C21   S    
C20   O24   D    
C21   O18   S    
C4    O27   A    
C5    O30   A    
Cu2   O28   S    
C8    C21   S    
C15   O10   D    
C5    O29   A    
C26   O7    S    
H6    O13   S    
C4    O28   A    
C7    C16   S    
C20   C22   S    
H4    O9    S    
C1    C26   S    
C16   O15   S    
C3    O26   A    
C13   O3    D    
Cu2   N2    S    
H15   N1    S    
C18   O20   S    
C23   O6    S    
C17   O17   S    
C22   H1    S    
N2    O13   S    
C6    C10   S    
C21   O5    S    
C6    C7    S    
H20   O5    S    
C14   O9    S    
H13   O25   S    
C8    C17   S    
H2    O6    S    
C3    C10   S    
Cu1   O1    S    
C15   O11   S    
C23   C25   S    
Cu1   O29   S    
C1    O1    A    
C2    N2    D    
C9    C18   S    
Cu2   O26   S    
C8    C10   S    
H10   O20   S    
C16   O14   D    
C13   O4    S    
