data_mof_unit_11694.cif
_audit_creation_date              2013-03-05T16:20:47-0500
_audit_creation_method            fapswitch 2.2
_symmetry_space_group_name_H-M    P1
_symmetry_Int_Tables_number       1
_space_group_crystal_system       triclinic
_cell_length_a                    8.433141
_cell_length_b                    18.902212
_cell_length_c                    19.065149
_cell_angle_alpha                 104.7732
_cell_angle_beta                  93.164187
_cell_angle_gamma                 91.002509
_cell_volume                      2932.56763618

loop_
_atom_site_label
_atom_site_type_symbol
_atom_site_description
_atom_site_fract_x
_atom_site_fract_y
_atom_site_fract_z
_atom_type_partial_charge
P1    P     P_3+3 0.941030 0.670050 0.569830 0.516054
O1    O     O_2   0.114280 0.679350 0.549180 -0.379373
O2    O     O_3   0.866400 0.589600 0.543550 -0.306314
O3    O     O_3   0.362150 0.623490 0.415650 -0.424426
O4    O     O_2   0.243223 0.749684 0.477417 -0.339554
O5    O     O_3   0.971024 0.690201 0.664614 -0.555083
O6    O     O_3   0.307597 0.734031 0.344161 -0.463218
H1    H     H_    0.342841 0.629026 0.282643 0.093667
C1    C     C_3   0.333655 0.705299 0.216464 -0.868849
H2    H     H_    0.202732 0.699242 0.205817 0.282025
H3    H     H_    0.371833 0.762541 0.219314 0.278430
P2    P     P_3+3 0.370400 0.428500 0.331430 0.630243
P3    P     P_3+3 0.893841 0.593755 0.290550 0.496816
O7    O     O_2   0.197490 0.449210 0.322030 -0.332885
O8    O     O_3   0.950520 0.583920 0.376610 -0.349789
O9    O     O_2   0.005525 0.543496 0.239939 -0.359458
O10   O     O_3   0.358588 0.332377 0.307265 -0.430974
O11   O     O_3   0.949612 0.681179 0.284055 -0.521474
C2    C     C_3   0.894354 0.732995 0.343425 0.407473
H4    H     H_    0.766329 0.723323 0.349700 -0.010393
C3    C     C_3   0.915095 0.808659 0.330538 -0.776291
H5    H     H_    0.842269 0.811907 0.281183 0.238811
C4    C     C_3   0.838275 0.305569 0.274217 0.800594
C5    C     C_3   0.791836 0.235824 0.210608 -0.126571
H6    H     H_    0.700334 0.201463 0.226932 0.203374
Ba1   Ba    Ba6+2 0.155460 0.532000 0.467920 1.690849
C6    C     C_3   0.827230 0.708678 0.697687 0.436348
H7    H     H_    0.804783 0.670656 0.732081 0.143621
H8    H     H_    0.722511 0.704159 0.658823 0.073116
C7    C     C_3   0.842512 0.786049 0.746812 -1.021068
H9    H     H_    0.948419 0.791492 0.785344 0.276998
H10   H     H_    0.735074 0.798294 0.778371 0.266079
H11   H     H_    0.854421 0.826165 0.713760 0.254371
C8    C     C_3   0.312912 0.306443 0.366135 0.297074
H12   H     H_    0.211853 0.337578 0.392018 0.018717
C9    C     C_3   0.260371 0.224606 0.341836 -0.048262
H13   H     H_    0.130823 0.219439 0.331453 0.156638
H14   H     H_    0.287573 0.199209 0.387508 0.075026
P4    P     P_3+3 0.869270 0.329940 0.430110 0.590963
O12   O     O_2   0.696020 0.320600 0.450800 -0.334543
O13   O     O_3   0.943900 0.410390 0.456390 -0.317382
O14   O     O_3   0.448150 0.376500 0.584290 -0.365680
O15   O     O_3   0.894015 0.282895 0.336492 -0.646560
P5    P     P_3+3 0.884706 0.427451 0.717224 0.543252
O16   O     O_3   0.365880 0.544470 0.588730 -0.345220
O17   O     O_3   0.859790 0.416060 0.623340 -0.305756
O18   O     O_2   0.738384 0.468715 0.747747 -0.440219
O19   O     O_3   0.867811 0.341624 0.736360 -0.515512
Ba2   Ba    Ba6+2 0.654730 0.467990 0.532020 1.701339
P6    P     P_3+3 0.375135 0.717827 0.426938 0.476986
C10   C     C_3   0.381838 0.686638 0.287549 0.472237
H15   H     H_    0.512940 0.693270 0.296459 -0.000788
O20   O     O_3   0.444420 0.455520 0.411210 -0.385950
C11   C     C_3   0.381920 0.704191 0.657997 0.378669
C12   C     C_3   0.417436 0.786336 0.675910 -1.003021
H16   H     H_    0.544327 0.797854 0.669573 0.252282
H17   H     H_    0.346260 0.810657 0.637891 0.241929
H18   H     H_    0.387582 0.812603 0.732453 0.278433
P7    P     P_3+3 0.436946 0.578245 0.681166 0.471269
O21   O     O_2   0.612810 0.550740 0.677950 -0.320314
O22   O     O_3   0.468263 0.673552 0.706908 -0.597747
H19   H     H_    0.876592 0.851008 0.377576 0.209347
C13   C     C_3   0.865159 0.285216 0.671482 0.325632
H20   H     H_    0.762474 0.290020 0.635064 0.117056
H21   H     H_    0.968403 0.289319 0.639812 0.099423
C14   C     C_3   0.863829 0.208435 0.685998 -0.040847
H22   H     H_    0.772816 0.172850 0.648362 0.153354
H23   H     H_    0.979466 0.182713 0.673165 0.113160
P8    P     P_3+3 0.431393 0.283310 0.579188 0.510657
C15   C     C_3   0.449158 0.325887 0.722121 0.805004
O23   O     O_2   0.554751 0.247275 0.525377 -0.386854
O24   O     O_3   0.504678 0.271851 0.664103 -0.546895
H24   H     H_    0.488909 0.381303 0.718996 0.048224
H25   H     H_    0.455386 0.350134 0.840080 0.193245
C16   C     C_3   0.516001 0.314720 0.794660 -0.860849
H26   H     H_    0.643989 0.329162 0.803845 0.267464
H27   H     H_    0.496100 0.257117 0.796599 0.321999
C17   C     C_R   0.973795 0.961290 0.558673 0.139707
C18   C     C_R   0.054606 0.914981 0.595475 -0.099972
C19   C     C_R   0.187294 0.057502 0.586869 -0.239364
C20   C     C_R   0.035696 0.032410 0.557302 0.013305
C21   C     C_R   0.254358 0.123878 0.582205 0.387665
C22   C     C_R   0.168280 0.172186 0.548397 -0.173918
C23   C     C_R   0.013258 0.147764 0.516327 -0.063090
C24   C     C_R   0.949334 0.077332 0.520516 0.018878
C25   C     C_R   0.227156 0.242994 0.544991 0.265770
C26   C     C_R   0.127826 0.288255 0.514304 -0.449206
C27   C     C_R   0.977933 0.265178 0.479414 0.185267
C28   C     C_R   0.925011 0.190965 0.476273 -0.194090
C29   C     C_R   0.825824 0.935009 0.521748 0.017374
C30   C     C_R   0.768390 0.861440 0.516003 -0.008056
C31   C     C_R   0.864417 0.813565 0.545852 0.008960
C32   C     C_R   0.002465 0.842944 0.588107 -0.121279
H28   H     H_    0.172693 0.341991 0.514160 0.190756
H29   H     H_    0.071722 0.810692 0.616888 0.155719
C33   C     C_R   0.791263 0.155378 0.432398 0.432034
C34   C     C_R   0.728194 0.089805 0.440369 -0.151189
C35   C     C_R   0.800814 0.050731 0.485615 0.071548
C36   C     C_R   0.735845 0.981783 0.489537 0.032989
C37   C     C_R   0.581119 0.958696 0.462213 -0.225916
C38   C     C_R   0.616948 0.836057 0.479672 -0.190427
C39   C     C_R   0.522303 0.888101 0.455433 0.347045
C40   C     C_R   0.570224 0.760708 0.469765 0.184774
C41   C     C_R   0.673759 0.713714 0.495266 -0.497476
C42   C     C_R   0.819252 0.738264 0.533601 0.133932
H30   H     H_    0.263690 0.024212 0.611282 0.170696
H31   H     H_    0.160596 0.932220 0.630238 0.125027
H32   H     H_    0.629691 0.065981 0.402655 0.167668
H33   H     H_    0.499003 0.995790 0.446263 0.185873
C43   C     C_R   0.374209 0.536227 0.813426 -0.318560
H34   H     H_    0.481602 0.567827 0.834916 0.168933
C44   C     C_R   0.317502 0.539070 0.743207 0.096705
C45   C     C_R   0.133814 0.470877 0.826778 -0.329898
H35   H     H_    0.053696 0.445792 0.855173 0.160261
C46   C     C_R   0.071022 0.478748 0.760140 0.251906
C47   C     C_R   0.618444 0.563500 0.193555 -0.358522
H36   H     H_    0.671118 0.599961 0.165249 0.162228
C48   C     C_R   0.683760 0.564271 0.262779 0.221045
C49   C     C_R   0.435568 0.466192 0.200815 -0.220842
H37   H     H_    0.360590 0.418434 0.176324 0.186585
C50   C     C_R   0.472234 0.481200 0.275739 0.384322
C51   C     C_R   0.291521 0.494267 0.854041 0.092472
C52   C     C_R   0.164197 0.511457 0.718445 0.089267
C53   C     C_R   0.499287 0.510328 0.158617 0.059187
C54   C     C_R   0.597259 0.531243 0.306734 -0.340595
C55   C     C_R   0.162750 0.386808 0.941733 -0.158314
C56   C     C_R   0.053420 0.366379 0.985765 -0.039977
C57   C     C_R   0.053037 0.404591 0.058478 -0.064330
C58   C     C_R   0.173500 0.456895 0.088610 -0.197427
C59   C     C_R   0.299294 0.468776 0.046806 0.075010
C60   C     C_R   0.270562 0.446447 0.970182 0.056944
C61   C     C_R   0.453787 0.496576 0.077584 -0.040323
C62   C     C_R   0.570344 0.502209 0.027292 0.112672
C63   C     C_R   0.522467 0.496019 0.952721 0.070523
C64   C     C_R   0.362331 0.478494 0.925460 -0.072159
C65   C     C_R   0.735769 0.510091 0.047496 -0.167654
C66   C     C_R   0.844102 0.526168 0.000884 -0.122329
C67   C     C_R   0.795442 0.520822 0.929342 -0.072581
C68   C     C_R   0.640937 0.497628 0.904963 -0.174638
H38   H     H_    0.163371 0.355714 0.885564 0.200601
H39   H     H_    0.966156 0.322740 0.963052 0.183910
H40   H     H_    0.962041 0.392312 0.091763 0.185433
H41   H     H_    0.170512 0.485592 0.144831 0.187367
H42   H     H_    0.785428 0.502514 0.098217 0.163155
H43   H     H_    0.967584 0.538585 0.019026 0.140760
H44   H     H_    0.878467 0.530846 0.891835 0.124354
H45   H     H_    0.613966 0.476451 0.848482 0.178869
H46   H     H_    0.735568 0.252925 0.163675 0.144695
N1    N     N_R   0.926780 0.191609 0.182977 0.294254
O25   O     O_R   0.970707 0.189035 0.118011 -0.288489
O26   O     O_R   0.988482 0.146747 0.217477 -0.267797
H47   H     H_    0.413489 0.313638 0.407379 0.116709
N2    N     N_R   0.333241 0.182834 0.276571 0.325102
O27   O     O_R   0.317838 0.202743 0.216136 -0.226542
O28   O     O_R   0.378569 0.116802 0.273950 -0.288005
H48   H     H_    0.390481 0.667957 0.170768 0.201413
H49   H     H_    0.413788 0.680055 0.601155 0.119900
H50   H     H_    0.254767 0.695717 0.664529 0.163163
N3    N     N_R   0.834204 0.209284 0.761047 0.296223
O29   O     O_R   0.724743 0.165722 0.773848 -0.314837
O30   O     O_R   0.936053 0.241599 0.813707 -0.324933
N4    N     N_R   0.277415 0.321213 0.720315 0.186769
O31   O     O_R   0.199275 0.356719 0.680797 -0.516015
O32   O     O_R   0.206602 0.267956 0.739308 -0.392839
H51   H     H_    0.964429 0.731457 0.394064 0.147829
N5    N     N_R   0.415574 0.136387 0.609278 0.253679
O33   O     O_R   0.524787 0.120121 0.563053 -0.434522
O34   O     O_R   0.450700 0.134781 0.676182 -0.332015
N6    N     N_R   0.742733 0.171016 0.365827 0.234329
O35   O     O_R   0.786656 0.125573 0.307375 -0.351306
O36   O     O_R   0.608017 0.201968 0.361817 -0.398062
N7    N     N_R   0.365055 0.873182 0.422764 0.258118
O37   O     O_R   0.247341 0.886553 0.464858 -0.400264
O38   O     O_R   0.340745 0.877416 0.355952 -0.378445
H52   H     H_    0.637820 0.656823 0.487118 0.167034
N8    N     N_R   0.096725 0.518739 0.651245 0.236170
O39   O     O_R   0.123057 0.468419 0.592848 -0.333618
O40   O     O_R   0.964445 0.552644 0.653747 -0.356081
H53   H     H_    0.637124 0.538993 0.363180 0.166425
H54   H     H_    0.041721 0.819790 0.322945 0.313458
N9    N     N_R   0.700866 0.350086 0.288677 0.194313
O41   O     O_R   0.599364 0.347736 0.234221 -0.461633
O42   O     O_R   0.717016 0.409782 0.340587 -0.409794
N10   N     N_R   0.962381 0.347102 0.249536 0.207628
O43   O     O_R   0.925971 0.405788 0.229373 -0.387846
O44   O     O_R   0.094420 0.316460 0.229054 -0.339662

loop_
_geom_bond_atom_site_label_1
_geom_bond_atom_site_label_2
_geom_bond_distance
_ccdc_geom_bond_type
C14   H23   1.108825 S    
C26   C27   1.403748 A    
C13   H21   1.099195 S    
C55   C56   1.393636 A    
C6    H8    1.108618 S    
N6    O35   1.298241 A    
C2    H4    1.109907 S    
C1    C10   1.521272 S    
C12   H16   1.107531 S    
C57   C58   1.396519 A    
C34   C35   1.395380 A    
O2    Ba2   2.841500 S    
C67   C68   1.383903 A    
P4    O13   1.582008 S    
C49   C53   1.416438 A    
C17   C29   1.415098 A    
O17   Ba2   2.753863 S    
C55   H38   1.082580 S    
C38   C39   1.427230 A    
Ba2   O21   2.867168 S    
P3    O11   1.746682 S    
C66   H43   1.081384 S    
C9    H13   1.097640 S    
C2    C3    1.520425 S    
C18   C32   1.393504 A    
C60   C64   1.418687 A    
N1    O26   1.297917 A    
N3    O29   1.300181 A    
C7    H9    1.110742 S    
C8    H12   1.109980 S    
O12   Ba2   2.859047 S    
C26   H28   1.078405 S    
C19   H30   1.076161 S    
C4    O15   1.420993 S    
C47   H36   1.081196 S    
C53   C61   1.525711 S    
P1    O1    1.552530 D    
C56   H39   1.082090 S    
P8    O23   1.544313 D    
C43   H34   1.077109 S    
C14   N3    1.462123 S    
C24   C35   1.406991 A    
Ba1   O16   2.786884 S    
C45   H35   1.065118 S    
C34   H32   1.079670 S    
C3    H54   1.109182 S    
C45   C51   1.421403 A    
O5    C6    1.406047 S    
P5    C46   1.865085 S    
N7    O38   1.301819 A    
C61   C62   1.431549 A    
P2    O10   1.756460 S    
C54   H53   1.081912 S    
C62   C65   1.421583 A    
P6    C40   1.870270 S    
C4    C5    1.573591 S    
N3    O30   1.300958 A    
C48   C54   1.393742 A    
N2    O28   1.301341 A    
C1    H2    1.110102 S    
P2    O20   1.565837 S    
C30   C31   1.426874 A    
P5    O18   1.533331 D    
N9    O42   1.296717 A    
C14   H22   1.109685 S    
C13   C14   1.545210 S    
P7    O21   1.579360 D    
C38   C40   1.433327 A    
C3    H5    1.110555 S    
C6    C7    1.521237 S    
N5    O34   1.301535 A    
N6    O36   1.294332 A    
P4    C27   1.937215 S    
C30   C38   1.432639 A    
C15   N4    1.447457 S    
O13   Ba2   2.981906 S    
C41   C42   1.401086 A    
P5    O17   1.747760 S    
C9    N2    1.466173 S    
P3    C48   1.855005 S    
C41   H52   1.081939 S    
N4    O32   1.299944 A    
C49   C50   1.399298 A    
C39   N7    1.425524 S    
P7    O22   1.753342 S    
C46   C52   1.390742 A    
H25   C16   1.106557 S    
P2    C50   1.862062 S    
C10   H15   1.109276 S    
C23   C24   1.450271 A    
C1    H48   1.109573 S    
C44   C52   1.396457 A    
C19   C21   1.392674 A    
C5    H46   1.111897 S    
Ba1   Ba2   4.587952 S    
C63   C68   1.393414 A    
C8    H47   1.106345 S    
C17   C18   1.415709 A    
C65   C66   1.390808 A    
O19   C13   1.410949 S    
P4    O15   1.805031 S    
N9    O41   1.299858 A    
P1    Ba1   3.438254 S    
O14   P8    1.742045 S    
O7    Ba1   2.866928 S    
P1    O5    1.752056 S    
P2    Ba1   3.454412 S    
P1    O2    1.582005 S    
P8    O24   1.767158 S    
C59   C61   1.432577 A    
C16   H26   1.102095 S    
C50   C54   1.402461 A    
C11   H50   1.099954 S    
C16   H27   1.108992 S    
C22   C23   1.429233 A    
O16   Ba2   2.968057 S    
C68   H45   1.058987 S    
C33   C34   1.387156 A    
C15   H24   1.111256 S    
C37   C39   1.387499 A    
P7    C44   1.874600 S    
C18   H31   1.076409 S    
O1    Ba1   2.858489 S    
C5    H6    1.107341 S    
C1    H3    1.110499 S    
H1    C10   1.111280 S    
C3    H19   1.107063 S    
C47   C48   1.398222 A    
N8    O39   1.299306 A    
P4    Ba2   3.438783 S    
P2    O7    1.529229 D    
C21   C22   1.431046 A    
C33   N6    1.415603 S    
C12   H17   1.108422 S    
N5    O33   1.296443 A    
O4    P6    1.540251 D    
C12   H18   1.110573 S    
O10   C8    1.403602 S    
C56   C57   1.390471 A    
Ba1   O20   2.968845 S    
C29   C36   1.408375 A    
P4    O12   1.552907 D    
N7    O37   1.298718 A    
N4    O31   1.292611 A    
C21   N5    1.421185 S    
N10   O43   1.299597 A    
C11   C12   1.522912 S    
O16   P7    1.780091 S    
C47   C53   1.418779 A    
C7    H11   1.109134 S    
C25   C26   1.414981 A    
O2    Ba1   2.981118 S    
O6    P6    1.749915 S    
C19   C20   1.392850 A    
O8    Ba1   2.753027 S    
O3    Ba1   2.826157 S    
C49   H37   1.079464 S    
C4    N9    1.441512 S    
C63   C64   1.422192 A    
C58   H41   1.072710 S    
C11   O22   1.396562 S    
C66   C67   1.380382 A    
C36   C37   1.397672 A    
C28   C33   1.416598 A    
P3    O8    1.739879 S    
C59   C60   1.419100 A    
C58   C59   1.409722 A    
O6    C10   1.400191 S    
C4    N10   1.465312 S    
C65   H42   1.076565 S    
N1    O25   1.301625 A    
C43   C51   1.438183 A    
C11   H49   1.113135 S    
C7    H10   1.110398 S    
C17   C20   1.440585 A    
C29   C30   1.439901 A    
C62   C63   1.431113 A    
C55   C60   1.410506 A    
C67   H44   1.075729 S    
Ba2   O20   2.786337 S    
C9    H14   1.111882 S    
C31   C32   1.399424 A    
N10   O44   1.297335 A    
C8    C9    1.546524 S    
C43   C44   1.410920 A    
C51   C64   1.556583 S    
C5    N1    1.464918 S    
O14   Ba2   2.825575 S    
C13   H20   1.099431 S    
C31   C42   1.423804 A    
C37   H33   1.079856 S    
C22   C25   1.437616 A    
C27   C28   1.450137 A    
C15   C16   1.530326 S    
C32   H29   1.077754 S    
C35   C36   1.426027 A    
C23   C28   1.442340 A    
P3    O9    1.544284 D    
O3    P6    1.741519 S    
C40   C41   1.410065 A    
O11   C2    1.402305 S    
C15   O24   1.408441 S    
C2    H51   1.110888 S    
C45   C46   1.393381 A    
N2    O27   1.300930 A    
C57   H40   1.080783 S    
C20   C24   1.418530 A    
P8    C25   1.883895 S    
P5    O19   1.756373 S    
Ba1   O13   2.840932 S    
P1    C42   1.901717 S    
N8    O40   1.293338 A    
C6    H7    1.109788 S    
C52   N8    1.412911 S    
