data_mof_unit_44334.cif
_audit_creation_date              2012-10-26T20:33:58-0400
_audit_creation_method            fapswitch 2.2
_symmetry_space_group_name_H-M    P1
_symmetry_Int_Tables_number       1
_space_group_crystal_system       triclinic
_cell_length_a                    15.934881
_cell_length_b                    9.089294
_cell_length_c                    7.890547
_cell_angle_alpha                 90.021108
_cell_angle_beta                  88.346765
_cell_angle_gamma                 90.227738
_cell_volume                      1142.35694269

loop_
_atom_site_label
_atom_site_type_symbol
_atom_type_description
_atom_site_fract_x
_atom_site_fract_y
_atom_site_fract_z
_atom_type_partial_charge
C1    C     C_R   0.499982 0.220439 0.499982 0.559344
C2    C     C_3   0.051200 0.359681 0.412102 0.394209
C3    C     C_3   0.943976 0.486644 0.682271 0.421509
C4    C     C_3   0.953303 0.373449 0.380751 0.417697
C5    C     C_1   0.749081 0.503699 0.490789 0.086254
C6    C     C_1   0.250915 0.500423 0.508812 0.071047
C7    C     C_3   0.083404 0.507082 0.504990 -0.023891
C8    C     C_3   0.916727 0.509268 0.489723 -0.035398
C9    C     C_3   0.953541 0.666030 0.417841 -0.060861
C10   C     C_3   0.055099 0.653525 0.402170 -0.062341
C11   C     C_3   0.101084 0.799620 0.457441 -0.310072
C12   C     C_1   0.824355 0.506593 0.486708 0.095627
C13   C     C_3   0.088036 0.643981 0.214225 -0.316407
C14   C     C_3   0.924258 0.796933 0.534866 -0.312885
C15   C     C_3   0.913393 0.715469 0.247582 -0.313169
C16   C     C_1   0.175650 0.502587 0.511246 0.096544
C17   C     C_R   0.340197 0.499512 0.502476 0.543688
C18   C     C_R   0.659802 0.500723 0.497500 0.548262
C19   C     C_1   0.500004 0.934530 0.500024 -0.013838
C20   C     C_1   0.499993 0.065475 0.499973 -0.006981
C21   C     C_R   0.500016 0.779567 0.500018 0.542717
C22   C     C_3   0.043074 0.508499 0.692822 0.426025
Cl1   Cl    Cl    0.911181 0.310098 0.765600 -0.281517
Cl2   Cl    Cl    0.896261 0.202885 0.416291 -0.422957
Cl3   Cl    Cl    0.091788 0.377670 0.830113 -0.303953
Cl4   Cl    Cl    0.073882 0.193943 0.527596 -0.418715
Cl5   Cl    Cl    0.112964 0.312721 0.225241 -0.412634
Cl6   Cl    Cl    0.071703 0.668313 0.809624 -0.609748
Cl7   Cl    Cl    0.929562 0.384637 0.162319 -0.380852
Cl8   Cl    Cl    0.883351 0.599300 0.828319 -0.531563
Cu1   Cu    Cu3+1 0.500000 0.500010 0.669080 1.106133
Cu2   Cu    Cu3+1 0.500000 0.500010 0.330920 1.094290
H1    H     H_    0.082783 0.848512 0.579643 0.235007
H2    H     H_    0.843736 0.712690 0.256237 0.168516
H3    H     H_    0.932105 0.829945 0.213406 0.185417
H4    H     H_    0.932878 0.654037 0.135539 0.252403
H5    H     H_    0.170301 0.786069 0.456379 0.150890
H6    H     H_    0.088047 0.890747 0.368094 0.194522
H7    H     H_    0.077680 0.748454 0.145061 0.198585
H8    H     H_    0.156656 0.622835 0.205902 0.184235
H9    H     H_    0.056925 0.559882 0.139889 0.269838
H10   H     H_    0.953284 0.801464 0.658501 0.240680
H11   H     H_    0.940647 0.905285 0.477992 0.210111
H12   H     H_    0.854987 0.796040 0.555756 0.179665
N1    N     N_1   0.500000 0.499970 0.076820 -0.060549
N2    N     N_1   0.500000 0.499970 0.923180 -0.060377
O1    O     O_R   0.500000 0.288400 0.642760 -0.491147
O2    O     O_R   0.500000 0.288400 0.357240 -0.490104
O3    O     O_R   0.379440 0.500020 0.642850 -0.486332
O4    O     O_R   0.379440 0.500020 0.357150 -0.495721
O5    O     O_R   0.620560 0.500020 0.642850 -0.479602
O6    O     O_R   0.620560 0.500020 0.357150 -0.493918
O7    O     O_R   0.500000 0.711620 0.642810 -0.497544
O8    O     O_R   0.500000 0.711620 0.357190 -0.500140

loop_
_geom_bond_atom_site_label_1
_geom_bond_atom_site_label_2
_ccdc_geom_bond_type
C17   O4    A    
C8    C9    S    
C7    C10   S    
C2    C4    S    
C9    C14   S    
C1    O2    A    
C2    Cl5   S    
C8    C12   S    
C11   H6    S    
C7    C22   S    
Cu2   N1    S    
C15   H2    S    
C3    Cl1   S    
C19   C20   T    
C1    C20   S    
C14   H10   S    
C4    C8    S    
C13   H9    S    
C9    C15   S    
C18   O6    A    
C2    Cl4   S    
Cu1   O1    S    
N1    N2    T    
Cu1   O7    S    
C21   O7    A    
Cu2   O2    S    
Cu2   O4    S    
Cu1   O3    S    
C3    Cl8   S    
Cu2   O8    S    
C7    C16   S    
C19   C21   S    
C18   O5    A    
C21   O8    A    
C4    Cl2   S    
C13   H7    S    
C10   C11   S    
C6    C16   T    
Cu2   O6    S    
C15   H4    S    
C11   H1    S    
C22   Cl3   S    
C5    C12   T    
C14   H12   S    
C3    C8    S    
C9    C10   S    
C15   H3    S    
C11   H5    S    
C6    C17   S    
C1    O1    A    
C13   H8    S    
C22   Cl6   S    
C5    C18   S    
C10   C13   S    
Cu1   Cu2   S    
C17   O3    A    
C4    Cl7   S    
C2    C7    S    
Cu1   O5    S    
C14   H11   S    
C3    C22   S    
Cu1   N2    S    
