data_mof_unit_64688.cif
_audit_creation_date              2012-12-10T17:20:35-0500
_audit_creation_method            fapswitch 2.2
_symmetry_space_group_name_H-M    P1
_symmetry_Int_Tables_number       1
_space_group_crystal_system       triclinic
_cell_length_a                    18.735961
_cell_length_b                    18.689155
_cell_length_c                    18.740613
_cell_angle_alpha                 109.055803
_cell_angle_beta                  109.720379
_cell_angle_gamma                 109.214706
_cell_volume                      5077.62952018

loop_
_atom_site_label
_atom_site_type_symbol
_atom_type_description
_atom_site_fract_x
_atom_site_fract_y
_atom_site_fract_z
_atom_type_partial_charge
C1    C     C_R   0.618540 0.618644 0.499746 0.846372
C2    C     C_3   0.191102 0.416059 0.189480 0.324120
C3    C     C_3   0.215173 0.456523 0.286175 0.003494
C4    C     C_3   0.311990 0.498544 0.312311 -0.138777
C5    C     C_R   0.766728 0.740258 0.573555 -0.241789
C6    C     C_R   0.831638 0.803600 0.573667 -0.161588
C7    C     C_R   0.813862 0.813125 0.499488 -0.093853
C8    C     C_R   0.730982 0.758229 0.424896 -0.194988
C9    C     C_R   0.666307 0.693661 0.423953 0.368798
C10   C     C_R   0.684479 0.685044 0.498791 -0.087306
C11   C     C_R   0.668740 0.471976 0.742281 -0.197242
C12   C     C_R   0.380446 0.499704 0.380521 0.874685
C13   C     C_R   0.733944 0.471772 0.805619 -0.186749
C14   C     C_R   0.817672 0.501507 0.815127 -0.051358
C15   C     C_R   0.835303 0.532001 0.759312 0.003015
C16   C     C_R   0.768168 0.528559 0.694041 -0.230324
C17   C     C_R   0.685931 0.499529 0.686266 -0.005996
C18   C     C_R   0.315603 0.325643 0.578160 -0.184262
C19   C     C_R   0.252306 0.260834 0.578314 -0.183425
C20   C     C_R   0.185055 0.185966 0.499625 -0.008431
C21   C     C_R   0.181633 0.175367 0.420865 -0.189444
C22   C     C_R   0.246624 0.238810 0.421012 -0.149793
C23   C     C_R   0.380718 0.381121 0.499752 0.775712
C24   C     C_R   0.313392 0.314313 0.499615 -0.000944
C25   C     C_R   0.004240 0.618652 0.123447 0.773968
C26   C     C_R   0.123324 0.499202 0.122579 0.871229
C27   C     C_R   0.002743 0.381140 0.883911 0.807314
C28   C     C_R   0.884259 0.499887 0.883040 0.783722
C29   C     C_R   0.001516 0.881824 0.382003 0.787729
C30   C     C_R   0.881073 0.880707 0.499874 0.810357
C31   C     C_R   0.999539 0.119266 0.618093 0.791571
C32   C     C_R   0.118677 0.118858 0.499817 0.774274
C33   C     C_R   0.007535 0.758467 0.184037 -0.183657
C34   C     C_R   0.618417 0.498923 0.619546 0.774019
C35   C     C_R   0.005189 0.822424 0.245629 -0.175597
C36   C     C_R   0.001556 0.814554 0.316060 -0.022782
C37   C     C_R   0.998333 0.742158 0.324145 -0.207009
C38   C     C_R   0.996977 0.675658 0.261057 -0.000478
C39   C     C_R   0.003088 0.684673 0.190686 -0.055012
C40   C     C_R   0.075416 0.307600 0.831055 -0.153986
C41   C     C_R   0.075153 0.243585 0.766981 -0.168830
C42   C     C_R   0.999824 0.186719 0.685113 -0.046138
C43   C     C_R   0.924583 0.194074 0.667796 -0.204072
C44   C     C_R   0.923258 0.256516 0.732511 -0.004985
C45   C     C_3   0.312804 0.581174 0.312915 -0.177619
C46   C     C_R   0.999844 0.313960 0.814694 -0.047620
C47   C     C_3   0.214800 0.539149 0.285935 -0.309432
C48   C     C_3   0.191242 0.498317 0.189658 -0.134605
C49   C     C_3   0.287976 0.539783 0.216362 0.424646
C50   C     C_3   0.288679 0.457514 0.216067 -0.202010
Cu1   Cu    Cu3+1 0.500500 0.438200 0.438680 0.989988
Cu2   Cu    Cu3+1 0.499500 0.561800 0.561320 0.954836
Cu3   Cu    Cu3+1 0.942090 0.438180 0.003770 0.976430
Cu4   Cu    Cu3+1 0.065710 0.561750 0.003750 1.011845
Cu5   Cu    Cu3+1 0.062280 0.999890 0.562170 0.955112
Cu6   Cu    Cu3+1 0.937720 0.999930 0.437650 0.957542
H1    H     H_    0.184649 0.573803 0.313375 0.170448
H2    H     H_    0.604604 0.449408 0.735995 0.129956
H3    H     H_    0.719011 0.449045 0.847785 0.155531
H4    H     H_    0.780550 0.550699 0.650444 0.132902
H5    H     H_    0.367124 0.383701 0.639296 0.141944
H6    H     H_    0.254962 0.269502 0.639406 0.137663
H7    H     H_    0.129653 0.117518 0.359768 0.133091
H8    H     H_    0.243926 0.229863 0.359853 0.148001
H9    H     H_    0.011363 0.765862 0.130231 0.146498
H10   H     H_    0.363975 0.648942 0.364351 0.179618
H11   H     H_    0.007950 0.878764 0.239369 0.137364
H12   H     H_    0.994911 0.736599 0.378905 0.146209
H13   H     H_    0.134281 0.351547 0.893970 0.164114
H14   H     H_    0.134073 0.239124 0.781073 0.155816
H15   H     H_    0.866237 0.150072 0.604427 0.158889
H16   H     H_    0.320093 0.424482 0.188395 0.201859
H17   H     H_    0.780800 0.733551 0.631317 0.147252
H18   H     H_    0.895136 0.845831 0.631947 0.162264
H19   H     H_    0.716666 0.765019 0.367186 0.186983
O1    O     O_R   0.590610 0.537990 0.448230 -0.557001
O2    O     O_R   0.055400 0.642330 0.093210 -0.585725
O3    O     O_R   0.042570 0.447790 0.094640 -0.552334
O4    O     O_R   0.146970 0.552140 0.094620 -0.549786
O5    O     O_R   0.952400 0.357600 0.914310 -0.579172
O6    O     O_R   0.056800 0.461950 0.914290 -0.575391
O7    O     O_R   0.860830 0.447790 0.912900 -0.593043
O8    O     O_R   0.965230 0.552140 0.912880 -0.586261
O9    O     O_R   0.053290 0.909730 0.462990 -0.585013
O10   O     O_R   0.948100 0.909770 0.357840 -0.583785
O11   O     O_R   0.962410 0.909720 0.552480 -0.588507
O12   O     O_R   0.589770 0.642360 0.551790 -0.585467
O13   O     O_R   0.857220 0.909750 0.447330 -0.581873
O14   O     O_R   0.051900 0.090060 0.641980 -0.587047
O15   O     O_R   0.946710 0.090090 0.536830 -0.588590
O16   O     O_R   0.142780 0.090070 0.552500 -0.582505
O17   O     O_R   0.037590 0.090110 0.447350 -0.592170
O18   O     O_R   0.409550 0.447810 0.357350 -0.568269
O19   O     O_R   0.408710 0.552190 0.460910 -0.599537
O20   O     O_R   0.410230 0.357640 0.448210 -0.591062
O21   O     O_R   0.409390 0.462010 0.551770 -0.591276
O22   O     O_R   0.591290 0.447810 0.539090 -0.591581
O23   O     O_R   0.590450 0.552190 0.642650 -0.585633
O24   O     O_R   0.951000 0.537980 0.093230 -0.596835
Cl1   Cl    Cl    0.562627 0.626715 0.329419 -0.582746
C51   C     C_R   0.921982 0.568270 0.766417 0.124478
C52   C     C_R   0.986400 0.654749 0.829649 -0.094585
C53   C     C_R   0.067819 0.689510 0.835237 -0.137804
C54   C     C_R   0.084842 0.638694 0.776934 -0.105553
C55   C     C_R   0.020199 0.553316 0.712476 -0.129589
C56   C     C_R   0.938731 0.518410 0.706724 -0.151766
H20   H     H_    0.973680 0.694733 0.874873 0.119837
H21   H     H_    0.117633 0.755870 0.884624 0.128901
H22   H     H_    0.147849 0.665690 0.781256 0.127059
H23   H     H_    0.033020 0.514379 0.666628 0.126474
H24   H     H_    0.888546 0.453094 0.655415 0.119737
C57   C     C_R   0.991960 0.600276 0.273508 0.105786
C58   C     C_R   0.913809 0.520298 0.222869 -0.078031
C59   C     C_R   0.908172 0.450946 0.238548 -0.138340
C60   C     C_R   0.979399 0.461875 0.306681 -0.081488
C61   C     C_R   0.056050 0.542335 0.359514 -0.141698
C62   C     C_R   0.062545 0.611254 0.342924 -0.194516
H25   H     H_    0.857351 0.511808 0.171514 0.131920
H26   H     H_    0.848236 0.389076 0.198559 0.125842
H27   H     H_    0.974867 0.408421 0.319242 0.137102
H28   H     H_    0.110479 0.551537 0.413514 0.136183
H29   H     H_    0.122298 0.673367 0.384538 0.134629
C63   C     C_R   0.842594 0.262562 0.710728 0.076237
C64   C     C_R   0.790376 0.236749 0.746255 -0.090184
C65   C     C_R   0.713760 0.241863 0.724266 -0.133770
C66   C     C_R   0.688116 0.271347 0.665676 -0.091719
C67   C     C_R   0.738845 0.295417 0.628711 -0.126735
C68   C     C_R   0.815471 0.290365 0.650584 -0.177942
H30   H     H_    0.808662 0.212238 0.790439 0.145225
H31   H     H_    0.674077 0.222621 0.752362 0.126223
H32   H     H_    0.628842 0.275323 0.648742 0.133269
H33   H     H_    0.718749 0.317897 0.583063 0.139097
H34   H     H_    0.853754 0.307940 0.620703 0.127356
Cl2   Cl    Cl    0.338665 0.595199 0.170933 -0.534052
Cl3   Cl    Cl    0.112468 0.309139 0.099997 -0.644956
C69   C     C_R   0.181334 0.417375 0.334720 0.113014
C70   C     C_R   0.212733 0.470708 0.423428 -0.156373
C71   C     C_R   0.183879 0.436110 0.470519 -0.147580
C72   C     C_R   0.123077 0.347992 0.429447 -0.094563
C73   C     C_R   0.091183 0.294421 0.341279 -0.159162
C74   C     C_R   0.120275 0.328729 0.294087 -0.135871
H35   H     H_    0.259393 0.539334 0.456134 0.145119
H36   H     H_    0.208654 0.477675 0.538859 0.132232
H37   H     H_    0.100962 0.321119 0.465969 0.136113
H38   H     H_    0.044370 0.226002 0.309602 0.142343
H39   H     H_    0.095166 0.285433 0.226494 0.195632

loop_
_geom_bond_atom_site_label_1
_geom_bond_atom_site_label_2
_ccdc_geom_bond_type
C1    O12   A    
Cu5   Cu6   S    
Cu1   O22   S    
C66   C67   A    
C31   C42   S    
C41   C42   A    
C55   C56   A    
C35   C36   A    
C70   H35   S    
C59   C60   A    
C63   C68   A    
C33   H9    S    
C63   C64   A    
Cu3   Cu4   S    
C23   O21   A    
C40   C46   A    
C29   C36   S    
C33   C39   A    
C18   C24   A    
C5    C6    A    
C36   C37   A    
C55   H23   S    
C3    C69   S    
C2    C3    S    
C71   H36   S    
C54   H22   S    
Cu6   O13   S    
C32   O16   A    
C19   H6    S    
Cu4   O8    S    
C15   C16   A    
C37   H12   S    
C34   O22   A    
C61   C62   A    
C18   C19   A    
C16   H4    S    
Cu2   O23   S    
C50   H16   S    
C67   H33   S    
C57   C58   A    
Cu5   O16   S    
C2    C50   S    
C49   Cl2   S    
C33   C35   A    
C65   H31   S    
C25   O24   A    
C19   C20   A    
C16   C17   A    
C31   O14   A    
C23   C24   S    
Cu2   O19   S    
C53   H21   S    
C35   H11   S    
C30   O11   A    
C11   H2    S    
C9    C10   A    
C29   O10   A    
C59   H26   S    
C26   C48   S    
C56   H24   S    
Cu4   O2    S    
Cu6   O15   S    
C7    C30   S    
C21   C22   A    
C28   O8    A    
C12   O19   A    
C54   C55   A    
C44   C46   A    
C6    H18   S    
C4    C45   S    
C45   C47   S    
C73   C74   A    
C38   C39   A    
C40   H13   S    
C28   O7    A    
Cu1   Cu2   S    
C51   C52   A    
C27   O6    A    
Cu3   O5    S    
Cu1   O1    S    
C29   O9    A    
C27   O5    A    
C61   H28   S    
C8    C9    A    
C2    C48   S    
C8    H19   S    
Cu3   O24   S    
C3    C4    S    
C4    C50   S    
Cu3   O7    S    
C62   H29   S    
C37   C38   A    
C47   H1    S    
C72   H37   S    
C47   C48   S    
C45   C49   S    
C31   O15   A    
C52   H20   S    
C26   O3    A    
C15   C51   S    
C74   H39   S    
Cu1   O18   S    
C27   C46   S    
C48   C49   S    
C49   C50   S    
C9    Cl1   S    
C43   C44   A    
C65   C66   A    
C25   O2    A    
C12   O18   A    
C4    C12   S    
C42   C43   A    
C30   O13   A    
C67   C68   A    
C45   H10   S    
C58   C59   A    
C20   C32   S    
C51   C56   A    
C11   C17   A    
C43   H15   S    
C1    O1    A    
Cu2   O12   S    
C1    C10   S    
C2    Cl3   S    
C69   C70   A    
C73   H38   S    
C72   C73   A    
C18   H5    S    
C6    C7    A    
C13   H3    S    
C70   C71   A    
C44   C63   S    
C26   O4    A    
C57   C62   A    
Cu5   O11   S    
Cu3   O3    S    
C5    C10   A    
Cu5   O14   S    
C68   H34   S    
C25   C39   S    
C11   C13   A    
Cu6   O10   S    
C32   O17   A    
C66   H32   S    
C3    C47   S    
C34   O23   A    
C69   C74   A    
C23   O20   A    
C64   H30   S    
Cu2   O21   S    
C22   C24   A    
C5    H17   S    
C52   C53   A    
C21   H7    S    
C7    C8    A    
C71   C72   A    
Cu4   O4    S    
C22   H8    S    
C58   H25   S    
Cu6   O17   S    
C20   C21   A    
C60   H27   S    
C17   C34   S    
C53   C54   A    
C14   C15   A    
C41   H14   S    
C40   C41   A    
C14   C28   S    
Cu5   O9    S    
C13   C14   A    
C38   C57   S    
Cu4   O6    S    
C60   C61   A    
Cu1   O20   S    
C64   C65   A    
