data_mof_unit_55904.cif
_audit_creation_date              2013-03-05T15:44:31-0500
_audit_creation_method            fapswitch 2.2
_symmetry_space_group_name_H-M    P1
_symmetry_Int_Tables_number       1
_space_group_crystal_system       triclinic
_cell_length_a                    15.752146
_cell_length_b                    10.712445
_cell_length_c                    10.023294
_cell_angle_alpha                 89.136991
_cell_angle_beta                  90.224914
_cell_angle_gamma                 90.103028
_cell_volume                      1691.16325058

loop_
_atom_site_label
_atom_site_type_symbol
_atom_site_description
_atom_site_fract_x
_atom_site_fract_y
_atom_site_fract_z
_atom_type_partial_charge
O1    O     O_R   0.499990 0.319060 0.613040 -0.562652
O2    O     O_R   0.500010 0.319100 0.386900 -0.588433
C1    C     C_R   0.493799 0.262923 0.500799 0.886649
O3    O     O_R   0.377130 0.499990 0.613120 -0.622341
O4    O     O_R   0.377160 0.500030 0.386980 -0.581329
C2    C     C_R   0.338388 0.500411 0.499722 0.871153
Zn1   Zn    Zn3+2 0.499980 0.499970 0.650990 1.121244
Zn2   Zn    Zn3+2 0.500020 0.500030 0.349010 1.131699
O5    O     O_R   0.499990 0.680900 0.613100 -0.557630
O6    O     O_R   0.500010 0.680940 0.386960 -0.543022
O7    O     O_R   0.622840 0.499970 0.613020 -0.543816
O8    O     O_R   0.622870 0.500010 0.386880 -0.583477
C3    C     C_R   0.502593 0.737157 0.498707 0.943771
C4    C     C_R   0.661574 0.499864 0.500239 0.924675
C5    C     C_3   0.053235 0.431866 0.619323 0.255611
C6    C     C_3   0.048112 0.432984 0.367698 0.214174
C7    C     C_3   0.949179 0.429525 0.371485 -0.003889
H1    H     H_    0.072229 0.336129 0.379810 0.229969
H2    H     H_    0.923172 0.483783 0.285524 0.163197
C8    C     C_1   0.750235 0.498605 0.501041 0.020467
C9    C     C_3   0.082990 0.505611 0.491540 -0.362487
C10   C     C_3   0.954514 0.431342 0.629526 0.861705
C11   C     C_3   0.916926 0.496570 0.500586 -0.370361
C12   C     C_3   0.947967 0.634845 0.488732 0.339160
C13   C     C_3   0.045565 0.640783 0.503625 0.105971
C14   C     C_1   0.825440 0.497025 0.501540 0.248056
C15   C     C_1   0.174470 0.505445 0.494881 0.221381
C16   C     C_1   0.249676 0.502973 0.498268 -0.015365
H3    H     H_    0.059880 0.671708 0.606635 0.204408
H4    H     H_    0.081765 0.475871 0.708944 0.144290
H5    H     H_    0.928699 0.672993 0.389352 0.183013
C17   C     C_2   0.466096 0.933240 0.407107 0.508022
C18   C     C_2   0.516009 0.867900 0.491861 0.066119
C19   C     C_2   0.474587 0.065733 0.393525 0.500833
C20   C     C_2   0.471923 0.133609 0.503819 0.294090
C21   C     C_2   0.550703 0.569337 0.924007 0.591900
N1    N     N_2   0.500900 0.501330 0.852150 -0.254329
H6    H     H_    0.453267 0.451971 0.898505 0.115893
C22   C     C_2   0.546539 0.575406 0.074228 0.580708
N2    N     N_2   0.500920 0.501360 0.147810 -0.244035
H7    H     H_    0.467953 0.430675 0.102934 0.129940
F1    F     F_    0.925784 0.309162 0.635953 -0.504801
S1    S     S_3+6 0.921941 0.499544 0.786024 0.120783
O9    O     O_2   0.827997 0.523799 0.786415 -0.219745
O10   O     O_2   0.942485 0.408191 0.896680 -0.210979
O11   O     O_3   0.974046 0.633517 0.815667 -0.520199
H8    H     H_    0.947145 0.667447 0.896541 0.437355
F2    F     F_    0.403164 0.877291 0.335741 -0.580446
S2    S     S_3+6 0.610240 0.924501 0.569694 0.118356
O12   O     O_2   0.649134 0.029360 0.489278 -0.257080
O13   O     O_2   0.589948 0.969109 0.707364 -0.150667
O14   O     O_3   0.680687 0.807027 0.582747 -0.499686
H9    H     H_    0.728868 0.841520 0.634323 0.441113
F3    F     F_    0.489693 0.115237 0.269979 -0.581817
F4    F     F_    0.446624 0.081976 0.622391 -0.609599
F5    F     F_    0.609160 0.642304 0.860998 -0.525505
F6    F     F_    0.595415 0.662274 0.135312 -0.545301
F7    F     F_    0.083831 0.310290 0.619238 -0.552239
S3    S     S_3+6 0.088292 0.477766 0.204187 0.102272
O15   O     O_2   0.026024 0.558224 0.128485 -0.239050
O16   O     O_2   0.171748 0.545204 0.213413 -0.217206
O17   O     O_3   0.103208 0.346209 0.117952 -0.459031
H10   H     H_    0.119325 0.374835 0.027064 0.408940
S4    S     S_3+6 0.910103 0.272141 0.343675 0.165254
O18   O     O_2   0.959378 0.177603 0.424619 -0.100272
O19   O     O_2   0.817577 0.259648 0.377366 -0.230077
O20   O     O_3   0.922744 0.239521 0.181460 -0.409126
H11   H     H_    0.882897 0.295975 0.133515 0.391492
S5    S     S_3+6 0.090375 0.765586 0.402366 0.148769
O21   O     O_2   0.185520 0.757432 0.397456 -0.224765
O22   O     O_2   0.055151 0.765942 0.263046 -0.181792
O23   O     O_3   0.063901 0.901113 0.473655 -0.414427
H12   H     H_    0.089340 0.966823 0.415748 0.416579
F8    F     F_    0.909595 0.710449 0.581901 -0.542040

loop_
_geom_bond_atom_site_label_1
_geom_bond_atom_site_label_2
_geom_bond_distance
_ccdc_geom_bond_type
C10   F1    1.384771 S    
S5    O23   1.681680 S    
C11   C12   1.562018 S    
O6    C3    1.280147 A    
C12   C13   1.545320 S    
C3    C18   1.416735 S    
C6    C9    1.571676 S    
C21   F5    1.358269 S    
C19   C20   1.333153 D    
O4    Zn2   1.973842 S    
S1    O10   1.502745 D    
C10   S1    1.816541 S    
C1    C20   1.426794 S    
Zn2   O8    1.970563 S    
S2    O14   1.682595 S    
S4    O18   1.503160 D    
O23   H12   0.990683 S    
O2    C1    1.286483 A    
Zn1   N1    2.016553 S    
C12   H5    1.112281 S    
S3    O15   1.502733 D    
C7    S4    1.818827 S    
C6    H1    1.110330 S    
C7    C11   1.575717 S    
C17   C18   1.344842 D    
Zn1   O7    1.973839 S    
C17   F2    1.363380 S    
C12   F8    1.386489 S    
S1    O11   1.681770 S    
O17   H10   0.990723 S    
C8    C14   1.184784 T    
O3    Zn1   1.970566 S    
O4    C2    1.286704 A    
O3    C2    1.287933 A    
C21   N1    1.293927 D    
O7    C4    1.286712 A    
N1    H6    1.025837 S    
O8    C4    1.287338 A    
C19   F3    1.361391 S    
Zn1   O5    1.969439 S    
O1    Zn1   1.980581 S    
S1    O9    1.502954 D    
C13   H3    1.111237 S    
S5    O21   1.502469 D    
C9    C15   1.441268 S    
C5    F7    1.389525 S    
C2    C16   1.397722 S    
S3    O16   1.502090 D    
C13   S5    1.810292 S    
C22   N2    1.293839 D    
C18   S2    1.783661 S    
O20   H11   0.990406 S    
C22   F6    1.358110 S    
S4    O20   1.680866 S    
C4    C8    1.396670 S    
C5    C9    1.567524 S    
O14   H9    0.990692 S    
C5    H4    1.113523 S    
Zn2   O6    1.980581 S    
S2    O12   1.503652 D    
C11   C14   1.441197 S    
C15   C16   1.185347 T    
S5    O22   1.500566 D    
C9    C13   1.570952 S    
O11   H8    0.990404 S    
N2    H7    1.025849 S    
S3    O17   1.681641 S    
O5    C3    1.288025 A    
Zn2   N2    2.016629 S    
C7    H2    1.109523 S    
C10   C11   1.573978 S    
C20   F4    1.363948 S    
C21   C22   1.509774 S    
C5    C10   1.558823 S    
O2    Zn2   1.969439 S    
S2    O13   1.502843 D    
S4    O19   1.502656 D    
C6    C7    1.559386 S    
O1    C1    1.286912 A    
C6    S3    1.816633 S    
C17   C19   1.429883 S    
