data_mof_unit_58428.cif
_audit_creation_date              2012-12-10T18:13:48-0500
_audit_creation_method            fapswitch 2.2
_symmetry_space_group_name_H-M    P1
_symmetry_Int_Tables_number       1
_space_group_crystal_system       triclinic
_cell_length_a                    10.783975
_cell_length_b                    9.517952
_cell_length_c                    23.49554
_cell_angle_alpha                 90.244596
_cell_angle_beta                  90.506017
_cell_angle_gamma                 90.064337
_cell_volume                      2411.49644665

loop_
_atom_site_label
_atom_site_type_symbol
_atom_type_description
_atom_site_fract_x
_atom_site_fract_y
_atom_site_fract_z
_atom_type_partial_charge
C1    C     C_R   0.259991 0.500041 0.499381 0.743342
C2    C     C_R   0.435923 0.251150 0.967586 -0.227051
C3    C     C_R   0.426258 0.250120 0.026956 -0.033349
C4    C     C_R   0.460679 0.372057 0.058991 -0.041127
C5    C     C_R   0.493900 0.495841 0.029365 -0.030971
C6    C     C_R   0.524003 0.619876 0.059619 -0.003454
C7    C     C_R   0.555213 0.742515 0.029880 -0.161471
C8    C     C_R   0.557300 0.742808 0.970663 -0.160269
C9    C     C_R   0.467323 0.375313 0.119235 0.569944
C10   C     C_R   0.522936 0.618478 0.119132 0.549293
C11   C     C_R   0.582179 0.417657 0.238793 -0.116093
C12   C     C_R   0.498532 0.499727 0.391240 0.787398
C13   C     C_R   0.582203 0.416065 0.298145 -0.051397
C14   C     C_R   0.496007 0.499077 0.328497 -0.176821
C15   C     C_R   0.408443 0.581834 0.298010 -0.051913
C16   C     C_R   0.410281 0.580546 0.238289 -0.051419
C17   C     C_R   0.496381 0.499053 0.208764 0.270840
C18   C     C_R   0.383817 0.512612 0.760895 -0.017657
C19   C     C_R   0.380856 0.511659 0.700476 -0.055246
C20   C     C_R   0.494481 0.500133 0.670911 -0.094556
C21   C     C_R   0.606329 0.487088 0.700808 -0.148182
C22   C     C_R   0.608298 0.487143 0.759853 -0.056046
C23   C     C_R   0.739640 0.500036 0.503016 0.759714
C24   C     C_R   0.498031 0.499859 0.790030 0.255561
C25   C     C_3   0.074799 0.632948 0.532730 -0.379547
C26   C     C_3   0.074421 0.366620 0.531301 -0.377084
C27   C     C_3   0.932213 0.629431 0.538324 -0.180143
C28   C     C_3   0.931734 0.359046 0.529308 -0.166651
C29   C     C_3   0.067282 0.503131 0.439781 -0.391102
C30   C     C_3   0.122035 0.500425 0.500768 0.105126
C31   C     C_3   0.878197 0.499752 0.504701 0.052977
C32   C     C_3   0.924148 0.511066 0.442223 -0.396543
C33   C     C_3   0.605955 0.083808 0.535652 -0.099644
C34   C     C_3   0.612143 0.917196 0.531165 -0.087805
C35   C     C_3   0.380198 0.083439 0.522380 -0.081027
C36   C     C_3   0.384030 0.916615 0.526252 -0.087206
C37   C     C_3   0.514348 0.082608 0.442901 -0.234982
C38   C     C_3   0.506196 0.915971 0.442536 -0.236130
C39   C     C_R   0.499298 0.500144 0.608641 0.792527
C40   C     C_R   0.530460 0.618366 0.880174 0.549351
C41   C     C_R   0.473920 0.375769 0.878786 0.555081
C42   C     C_R   0.470117 0.373011 0.938471 -0.011779
C43   C     C_R   0.497569 0.496255 0.969246 -0.009814
C44   C     C_R   0.529080 0.620154 0.939877 -0.011086
Cu1   Cu    Cu3+1 0.499860 0.642410 0.500030 0.921408
Cu2   Cu    Cu3+1 0.499860 0.357590 0.500030 0.932256
H1    H     H_    0.411231 0.157061 0.943835 0.186273
H2    H     H_    0.692435 0.476047 0.678159 0.178889
H3    H     H_    0.695806 0.476579 0.782381 0.165685
H4    H     H_    0.100887 0.728944 0.508659 0.157771
H5    H     H_    0.111232 0.270268 0.510449 0.156967
H6    H     H_    0.121803 0.642659 0.574841 0.181691
H7    H     H_    0.110148 0.366978 0.575858 0.189820
H8    H     H_    0.894605 0.727936 0.519581 0.128115
H9    H     H_    0.904410 0.271249 0.500300 0.137766
H10   H     H_    0.103019 0.595604 0.416265 0.170844
H11   H     H_    0.095850 0.407166 0.416066 0.175204
H12   H     H_    0.892220 0.611761 0.423140 0.178437
H13   H     H_    0.884148 0.424794 0.415889 0.192897
H14   H     H_    0.694403 0.124533 0.518231 0.113035
H15   H     H_    0.695770 0.891795 0.505587 0.100137
H16   H     H_    0.441352 0.124651 0.413931 0.172974
H17   H     H_    0.423361 0.882582 0.417303 0.163021
H18   H     H_    0.604546 0.115800 0.424774 0.178566
H19   H     H_    0.587786 0.872718 0.419731 0.171302
H20   H     H_    0.305936 0.109619 0.490905 0.101111
H21   H     H_    0.303639 0.877921 0.500673 0.107704
H22   H     H_    0.578505 0.838805 0.052286 0.185847
H23   H     H_    0.581441 0.839351 0.949146 0.191482
H24   H     H_    0.649059 0.355297 0.215543 0.162769
H25   H     H_    0.343294 0.641227 0.214133 0.193742
N1    N     N_R   0.502320 0.497595 0.851068 -0.476568
N2    N     N_R   0.495340 0.497625 0.147587 -0.469707
N3    N     N_3   0.500250 0.143650 0.501250 -0.168101
N4    N     N_3   0.500250 0.856350 0.501250 -0.165209
O1    O     O_R   0.317570 0.620260 0.500030 -0.607900
O2    O     O_R   0.317570 0.379740 0.500030 -0.598095
O3    O     O_R   0.499840 0.620290 0.417900 -0.596166
O4    O     O_R   0.499840 0.379710 0.417900 -0.575295
O5    O     O_R   0.682190 0.620260 0.500010 -0.598853
O6    O     O_R   0.682190 0.379740 0.500010 -0.592901
O7    O     O_R   0.499920 0.620230 0.582140 -0.565295
O8    O     O_R   0.499920 0.379770 0.582140 -0.567670
O9    O     O_2   0.558543 0.736394 0.851368 -0.500254
O10   O     O_2   0.448319 0.258206 0.848560 -0.502604
O11   O     O_2   0.448920 0.257430 0.149575 -0.479135
O12   O     O_2   0.551455 0.736525 0.148518 -0.513484
C45   C     C_2   0.262371 0.518995 0.667335 0.424802
H26   H     H_    0.263555 0.504091 0.621754 0.030050
O13   O     O_2   0.162750 0.541953 0.689756 -0.520187
C46   C     C_1   0.899778 0.631275 0.599160 0.276206
N5    N     N_1   0.877640 0.633099 0.647241 -0.204692
C47   C     C_1   0.885109 0.321947 0.586140 0.230628
N6    N     N_1   0.851274 0.292470 0.631103 -0.243798
C48   C     C_1   0.605512 0.131471 0.595801 0.316179
N7    N     N_1   0.605391 0.164338 0.643319 -0.214493
C49   C     C_1   0.639068 0.851338 0.586770 0.297903
N8    N     N_1   0.660487 0.804875 0.631212 -0.231116
C50   C     C_2   0.372532 0.121168 0.051791 0.499626
H27   H     H_    0.401838 0.018989 0.036324 0.037020
O14   O     O_2   0.288042 0.127725 0.085938 -0.462610
C51   C     C_1   0.336636 0.150700 0.575495 0.296305
N9    N     N_1   0.301262 0.200822 0.617274 -0.275783
C52   C     C_1   0.360228 0.864053 0.584313 0.290121
N10   N     N_1   0.340164 0.825629 0.629985 -0.248407
C53   C     C_1   0.673571 0.329813 0.326607 0.262205
N11   N     N_1   0.746837 0.260067 0.349004 -0.316031
C54   C     C_2   0.311129 0.665067 0.327361 0.353560
H28   H     H_    0.296301 0.654449 0.372624 0.064504
O15   O     O_2   0.244909 0.746536 0.301023 -0.524526
C55   C     C_1   0.271904 0.525424 0.794100 0.397260
N12   N     N_1   0.182753 0.535614 0.820869 -0.216792

loop_
_geom_bond_atom_site_label_1
_geom_bond_atom_site_label_2
_ccdc_geom_bond_type
C37   N3    S    
C35   N3    S    
C47   N6    T    
C48   N7    T    
C1    O2    A    
C41   C42   A    
C40   O9    S    
Cu1   O7    S    
C32   H12   S    
C35   C51   S    
C49   N8    T    
C11   H24   S    
C7    C8    A    
Cu1   Cu2   S    
C8    H23   S    
C37   C38   S    
Cu1   O1    S    
C18   C24   A    
C29   C32   S    
C5    C6    A    
C10   N2    A    
C53   N11   T    
C15   C16   A    
C12   O4    A    
C34   C49   S    
C54   H28   S    
C18   C19   A    
C25   H4    S    
C7    H22   S    
C55   N12   T    
C16   C17   A    
C12   O3    A    
C27   C46   S    
Cu1   O3    S    
C23   O5    A    
C23   O6    A    
C34   N4    S    
C21   H2    S    
C5    C43   A    
C13   C14   A    
C17   N2    S    
C16   H25   S    
C9    N2    A    
C33   C48   S    
C52   N10   T    
C28   H9    S    
C37   H16   S    
C38   N4    S    
C28   C31   S    
C10   O12   S    
C27   H8    S    
C29   H11   S    
C27   C31   S    
C18   C55   S    
C19   C45   S    
C46   N5    T    
C20   C39   S    
C4    C5    A    
C35   H20   S    
C34   H15   S    
C28   C47   S    
C35   C36   S    
C23   C31   S    
C15   C54   S    
C43   C44   A    
C29   C30   S    
C36   N4    S    
C9    O11   S    
Cu2   O6    S    
C50   H27   S    
C38   H19   S    
C33   C34   S    
C45   H26   S    
C41   N1    A    
C50   O14   D    
C12   C14   S    
C26   C30   S    
C33   H14   S    
C22   H3    S    
C22   C24   A    
C42   C43   A    
C3    C4    A    
C26   H7    S    
Cu2   N3    S    
C37   H18   S    
C24   N1    S    
C38   H17   S    
C25   C30   S    
C11   C17   A    
C40   N1    A    
C1    O1    A    
C31   C32   S    
C8    C44   A    
C39   O7    A    
C45   O13   D    
C13   C53   S    
C6    C10   A    
Cu2   O2    S    
C6    C7    A    
C29   H10   S    
C2    H1    S    
C25   C27   S    
C41   O10   S    
C26   C28   S    
C36   C52   S    
Cu1   N4    S    
C19   C20   A    
C2    C3    A    
C25   H6    S    
C39   O8    A    
C26   H5    S    
C11   C13   A    
Cu2   O4    S    
C2    C42   A    
C1    C30   S    
C54   O15   D    
Cu1   O5    S    
C51   N9    T    
Cu2   O8    S    
C3    C50   S    
C33   N3    S    
C40   C44   A    
C20   C21   A    
C14   C15   A    
C32   H13   S    
C4    C9    A    
C21   C22   A    
C36   H21   S    
