data_mof_unit_66905.cif
_audit_creation_date              2013-03-05T15:57:26-0500
_audit_creation_method            fapswitch 2.2
_symmetry_space_group_name_H-M    P1
_symmetry_Int_Tables_number       1
_space_group_crystal_system       triclinic
_cell_length_a                    17.382406
_cell_length_b                    18.843425
_cell_length_c                    8.483061
_cell_angle_alpha                 90.015797
_cell_angle_beta                  102.091313
_cell_angle_gamma                 89.787978
_cell_volume                      2716.91462201

loop_
_atom_site_label
_atom_site_type_symbol
_atom_site_description
_atom_site_fract_x
_atom_site_fract_y
_atom_site_fract_z
_atom_type_partial_charge
P1    P     P_3+3 0.834140 0.419320 0.003900 0.438235
P2    P     P_3+3 0.834140 0.580680 0.503900 0.432208
P3    P     P_3+3 0.334140 0.919320 0.003900 0.430164
P4    P     P_3+3 0.334140 0.080680 0.503900 0.429052
O1    O     O_2   0.841960 0.394640 0.833410 -0.350254
O2    O     O_2   0.841960 0.605360 0.333410 -0.400276
O3    O     O_2   0.341960 0.894640 0.833410 -0.342088
O4    O     O_2   0.341960 0.105360 0.333410 -0.386819
O5    O     O_3   0.907950 0.463080 0.102990 -0.406722
O6    O     O_3   0.907950 0.536920 0.602990 -0.376809
O7    O     O_3   0.407950 0.963080 0.102990 -0.421713
O8    O     O_3   0.407950 0.036920 0.602990 -0.402241
O9    O     O_3   0.972780 0.329600 0.629720 -0.378109
O10   O     O_3   0.972780 0.670400 0.129720 -0.373009
O11   O     O_3   0.472780 0.829600 0.629720 -0.350069
O12   O     O_3   0.472780 0.170400 0.129720 -0.373338
O13   O     O_2   0.838541 0.277448 0.696063 -0.417584
O14   O     O_2   0.835225 0.718669 0.179703 -0.378882
O15   O     O_2   0.321433 0.813472 0.617400 -0.359606
O16   O     O_2   0.333517 0.216966 0.178314 -0.380897
O17   O     O_3   0.749085 0.470450 0.949921 -0.613892
O18   O     O_3   0.753267 0.524117 0.457193 -0.617309
O19   O     O_3   0.251607 0.973862 0.960584 -0.605707
O20   O     O_3   0.255020 0.023786 0.452501 -0.605196
O21   O     O_3   0.931051 0.184535 0.610723 -0.614999
O22   O     O_3   0.934730 0.814398 0.140949 -0.506726
O23   O     O_3   0.397875 0.700949 0.698764 -0.493982
O24   O     O_3   0.432405 0.313947 0.146591 -0.496366
H1    H     H_    0.930897 0.196424 0.854871 0.120200
H2    H     H_    0.054674 0.800433 0.199894 0.112461
H3    H     H_    0.479320 0.658636 0.577179 0.061946
H4    H     H_    0.551046 0.307934 0.156779 0.087050
C1    C     C_3   0.989532 0.102078 0.808356 -1.129396
C2    C     C_3   0.022320 0.898824 0.072131 -1.171447
C3    C     C_3   0.449969 0.584782 0.749048 -1.038877
C4    C     C_3   0.502225 0.407913 0.058033 -1.148217
H5    H     H_    0.494563 0.605051 0.850325 0.305987
H6    H     H_    0.553057 0.421666 0.004002 0.228610
H7    H     H_    0.039085 0.096900 0.911253 0.297177
H8    H     H_    0.079004 0.905890 0.033650 0.240349
H9    H     H_    0.939705 0.071169 0.831587 0.259844
H10   H     H_    0.022853 0.927705 0.185688 0.294575
H11   H     H_    0.397915 0.565135 0.790827 0.267019
H12   H     H_    0.509328 0.432366 0.178555 0.301820
P5    P     P_3+3 0.165830 0.418670 0.685610 0.461244
P6    P     P_3+3 0.165830 0.581330 0.185610 0.444495
P7    P     P_3+3 0.665830 0.918670 0.685610 0.447447
P8    P     P_3+3 0.665830 0.081330 0.185610 0.455676
P9    P     P_3+3 0.097027 0.264107 0.122432 0.399427
P10   P     P_3+3 0.095578 0.737397 0.610042 0.442358
P11   P     P_3+3 0.601409 0.766909 0.109860 0.458448
P12   P     P_3+3 0.600575 0.232907 0.614939 0.442761
O25   O     O_2   0.157990 0.394030 0.856030 -0.385909
O26   O     O_2   0.157990 0.605970 0.356030 -0.364952
O27   O     O_2   0.657990 0.894030 0.856030 -0.370087
O28   O     O_2   0.657990 0.105970 0.356030 -0.363563
O29   O     O_3   0.027110 0.329490 0.059550 -0.383473
O30   O     O_3   0.027110 0.670510 0.559550 -0.344927
O31   O     O_3   0.527110 0.829490 0.059550 -0.380882
O32   O     O_3   0.527110 0.170510 0.559550 -0.344983
O33   O     O_2   0.145459 0.258248 0.989871 -0.407473
O34   O     O_2   0.149839 0.730841 0.487464 -0.379870
O35   O     O_2   0.652739 0.773255 0.982861 -0.370551
O36   O     O_2   0.659559 0.220482 0.504810 -0.387282
O37   O     O_3   0.249108 0.472541 0.730095 -0.583355
O38   O     O_3   0.246003 0.522682 0.228963 -0.588299
O39   O     O_3   0.744625 0.977438 0.729854 -0.586707
O40   O     O_3   0.747266 0.023671 0.226895 -0.569920
O41   O     O_3   0.041302 0.187150 0.109572 -0.559968
O42   O     O_3   0.037447 0.812459 0.551813 -0.514353
O43   O     O_3   0.551238 0.687363 0.064932 -0.515672
O44   O     O_3   0.552048 0.310783 0.544307 -0.497809
C5    C     C_3   0.980259 0.200467 0.192507 0.303353
C6    C     C_3   0.993359 0.824556 0.669860 0.283645
C7    C     C_3   0.478861 0.693974 0.114841 0.446791
C8    C     C_3   0.505098 0.329048 0.654139 0.276786
H13   H     H_    0.938117 0.239128 0.123756 0.079632
H14   H     H_    0.967792 0.774787 0.706270 0.064817
H15   H     H_    0.435060 0.721691 0.020501 0.119543
H16   H     H_    0.475424 0.282321 0.695143 0.060372
H17   H     H_    0.003809 0.221611 0.315890 0.065877
H18   H     H_    0.031958 0.849236 0.775566 0.037712
H19   H     H_    0.485351 0.724039 0.230080 -0.004460
H20   H     H_    0.542428 0.356559 0.758195 0.028490
C9    C     C_3   0.934014 0.133079 0.210863 -0.403664
C10   C     C_3   0.925064 0.874377 0.605727 -0.369436
C11   C     C_3   0.446641 0.621278 0.146004 -0.482953
C12   C     C_3   0.440169 0.378812 0.574868 -0.344902
H21   H     H_    0.403076 0.603231 0.039631 0.165367
H22   H     H_    0.396018 0.347636 0.489823 0.200134
H23   H     H_    0.881568 0.130297 0.112086 0.145330
H24   H     H_    0.888634 0.851043 0.494870 0.212538
C13   C     C_3   0.221903 0.453501 0.259500 0.390927
C14   C     C_3   0.235628 0.532897 0.816681 0.339993
C15   C     C_3   0.724121 0.952055 0.231989 0.375208
C16   C     C_3   0.716108 0.045105 0.756128 0.438378
H25   H     H_    0.235366 0.444628 0.391464 0.070739
H26   H     H_    0.284088 0.536827 0.924560 0.072723
H27   H     H_    0.725083 0.937396 0.358443 0.049260
H28   H     H_    0.688034 0.043866 0.861890 0.091041
H29   H     H_    0.158521 0.442485 0.216342 0.132625
H30   H     H_    0.179564 0.532316 0.860028 0.127125
H31   H     H_    0.665076 0.939441 0.160366 0.151904
H32   H     H_    0.674189 0.065420 0.648542 0.153287
C17   C     C_3   0.267126 0.399670 0.179376 -0.916658
C18   C     C_3   0.238045 0.597063 0.710952 -0.868234
C19   C     C_3   0.781102 0.904854 0.165359 -0.884864
C20   C     C_3   0.785026 0.095109 0.789325 -1.039030
H33   H     H_    0.317912 0.378354 0.266073 0.257358
H34   H     H_    0.265060 0.642749 0.784232 0.225854
H35   H     H_    0.837056 0.897583 0.252063 0.262283
H36   H     H_    0.826408 0.074872 0.896619 0.250359
H37   H     H_    0.229973 0.353837 0.134930 0.267544
H38   H     H_    0.177171 0.609385 0.649511 0.282598
H39   H     H_    0.756035 0.851258 0.140426 0.254905
H40   H     H_    0.767190 0.149653 0.812958 0.251042
Ba1   Ba    Ba6+2 0.000000 0.447380 0.844850 1.520384
Ba2   Ba    Ba6+2 0.000000 0.552620 0.344850 1.536445
Ba3   Ba    Ba6+2 0.500000 0.947380 0.844850 1.534013
Ba4   Ba    Ba6+2 0.500000 0.052620 0.344850 1.537846
C21   C     C_3   0.763713 0.541769 0.925422 0.227863
C22   C     C_3   0.762644 0.480723 0.328130 0.437230
C23   C     C_3   0.274757 0.044960 0.961440 0.289428
C24   C     C_3   0.281824 0.959833 0.400086 0.408915
H41   H     H_    0.771677 0.548094 0.800252 0.115523
H42   H     H_    0.766197 0.512811 0.223670 0.093931
H43   H     H_    0.293591 0.056732 0.847394 0.078410
H44   H     H_    0.312475 0.969396 0.300452 0.072806
H45   H     H_    0.816736 0.562496 0.009240 0.116817
H46   H     H_    0.817079 0.448811 0.362673 0.086234
H47   H     H_    0.324273 0.058339 0.061441 0.142050
H48   H     H_    0.322317 0.932279 0.499682 0.141113
C25   C     C_3   0.690880 0.581841 0.954680 -0.395573
C26   C     C_3   0.691164 0.433266 0.275745 -0.610066
C27   C     C_3   0.205300 0.090308 0.984614 -0.375163
C28   C     C_3   0.210470 0.914194 0.337068 -0.497482
H49   H     H_    0.638415 0.546642 0.936221 0.205010
H50   H     H_    0.686046 0.416702 0.149049 0.188360
H51   H     H_    0.156536 0.056365 0.006476 0.204024
H52   H     H_    0.225882 0.870546 0.264489 0.147766
H53   H     H_    0.701226 0.599915 0.081314 0.158477
H54   H     H_    0.636693 0.461861 0.281656 0.228859
H55   H     H_    0.222855 0.123066 0.093259 0.185853
H56   H     H_    0.166363 0.945751 0.253836 0.185070
O45   O     O_3   0.092100 0.536880 0.086720 -0.408119
O46   O     O_3   0.092100 0.463120 0.586720 -0.379827
O47   O     O_3   0.592100 0.036880 0.086720 -0.418757
O48   O     O_3   0.592100 0.963120 0.586720 -0.414141
P13   P     P_3+3 0.896172 0.732028 0.074792 0.453075
P14   P     P_3+3 0.893870 0.270081 0.576214 0.410484
P15   P     P_3+3 0.395523 0.231625 0.076519 0.456677
P16   P     P_3+3 0.390290 0.773851 0.569760 0.455656
C29   C     C_3   0.969041 0.179033 0.772279 0.612448
C30   C     C_3   0.008512 0.821028 0.099957 0.558293
C31   C     C_3   0.427221 0.643431 0.625242 0.413988
C32   C     C_3   0.497066 0.328570 0.077340 0.571286
H57   H     H_    0.024010 0.210495 0.792207 0.161677
H58   H     H_    0.013801 0.791201 0.990080 -0.012766
H59   H     H_    0.381310 0.623048 0.525878 0.043534
H60   H     H_    0.493026 0.304342 0.957497 -0.032715
H61   H     H_    0.476502 0.539196 0.699740 0.228932
H62   H     H_    0.447472 0.428465 0.979096 0.273395
H63   H     H_    0.006413 0.078737 0.703550 0.269811
H64   H     H_    0.974093 0.920345 0.976901 0.275702
C33   C     C_R   0.136444 0.678965 0.924393 -0.473092
C34   C     C_R   0.142499 0.325653 0.425442 -0.504183
C35   C     C_R   0.637239 0.177769 0.928034 -0.475778
C36   C     C_R   0.643044 0.825752 0.420375 -0.495159
C37   C     C_R   0.856342 0.325959 0.266373 -0.517817
C38   C     C_R   0.860589 0.676079 0.763190 -0.493261
C39   C     C_R   0.366507 0.818452 0.252482 -0.472961
C40   C     C_R   0.362586 0.177448 0.763168 -0.481192
C41   C     C_R   0.785034 0.219045 0.305938 -0.244640
C42   C     C_R   0.794073 0.787048 0.795904 -0.266142
C43   C     C_R   0.291588 0.714100 0.294099 -0.250228
C44   C     C_R   0.295673 0.288303 0.797570 -0.261572
C45   C     C_R   0.839475 0.272468 0.366340 0.296452
C46   C     C_R   0.848261 0.733404 0.858851 0.173921
C47   C     C_R   0.351391 0.763419 0.351459 0.159953
C48   C     C_R   0.349452 0.234290 0.859874 0.173285
C49   C     C_R   0.812813 0.334345 0.109779 0.258090
C50   C     C_R   0.817499 0.668021 0.605611 0.279473
C51   C     C_R   0.319592 0.829802 0.099542 0.247919
C52   C     C_R   0.317932 0.168376 0.607132 0.274068
C53   C     C_R   0.751576 0.282685 0.050610 -0.021099
C54   C     C_R   0.760687 0.722721 0.540127 -0.034361
C55   C     C_R   0.259028 0.777807 0.037998 -0.052305
C56   C     C_R   0.259897 0.222384 0.544494 -0.042267
C57   C     C_R   0.245689 0.718345 0.136648 -0.032697
C58   C     C_R   0.248456 0.283201 0.641232 -0.051597
C59   C     C_R   0.740415 0.221911 0.147117 -0.080268
C60   C     C_R   0.748073 0.782775 0.638081 -0.044747
C61   C     C_R   0.184222 0.667236 0.077536 0.248618
C62   C     C_R   0.187146 0.334540 0.580604 0.289624
C63   C     C_R   0.682718 0.168121 0.083105 0.287572
C64   C     C_R   0.687616 0.834790 0.576777 0.281797
C65   C     C_R   0.151140 0.734352 0.824338 0.172865
C66   C     C_R   0.156988 0.270223 0.328056 0.228362
C67   C     C_R   0.648865 0.235220 0.832643 0.170603
C68   C     C_R   0.658159 0.770651 0.321164 0.196176
C69   C     C_R   0.211651 0.783056 0.881944 -0.234816
C70   C     C_R   0.211902 0.217185 0.389663 -0.201863
C71   C     C_R   0.701273 0.289664 0.898884 -0.258221
C72   C     C_R   0.714847 0.718803 0.381973 -0.206457
H65   H     H_    0.278285 0.674945 0.376420 0.182664
H66   H     H_    0.288296 0.331847 0.875498 0.189496
H67   H     H_    0.778753 0.175445 0.384607 0.202464
H68   H     H_    0.786700 0.830671 0.873202 0.190854
H69   H     H_    0.701879 0.338549 0.835621 0.164753
H70   H     H_    0.722310 0.675530 0.304166 0.172998
H71   H     H_    0.223464 0.823430 0.802069 0.205871
H72   H     H_    0.215783 0.171448 0.316957 0.170173
H73   H     H_    0.090155 0.641604 0.877553 0.168256
H74   H     H_    0.096687 0.363604 0.377443 0.160918
H75   H     H_    0.594941 0.137695 0.876489 0.156743
H76   H     H_    0.597875 0.864219 0.371899 0.163229
H77   H     H_    0.902620 0.363230 0.313964 0.168538
H78   H     H_    0.901746 0.635051 0.815904 0.167510
H79   H     H_    0.410223 0.857625 0.302678 0.161639
H80   H     H_    0.404655 0.136938 0.814860 0.166009
H81   H     H_    0.287900 0.423712 0.076531 0.264669
H82   H     H_    0.272447 0.585933 0.617603 0.266612
H83   H     H_    0.793365 0.928131 0.053061 0.273582
H84   H     H_    0.813073 0.096704 0.683406 0.291814
N1    N     N_2   0.673377 0.643188 0.853513 -0.044110
H85   H     H_    0.718146 0.678961 0.870537 0.231507
C73   C     C_3   0.637650 0.630639 0.687506 -0.856166
H86   H     H_    0.613437 0.681480 0.632209 0.247050
H87   H     H_    0.590743 0.590786 0.677140 0.245010
H88   H     H_    0.681073 0.609611 0.621695 0.244442
N2    N     N_2   0.698057 0.370649 0.373508 -0.104008
H89   H     H_    0.658734 0.331577 0.327605 0.227920
C74   C     C_3   0.703589 0.383171 0.541997 -0.549237
H90   H     H_    0.714410 0.332143 0.601300 0.249930
H91   H     H_    0.649666 0.409014 0.564913 0.208778
H92   H     H_    0.754926 0.415849 0.592015 0.265119
N3    N     N_2   0.178188 0.136949 0.849759 -0.066479
H93   H     H_    0.214145 0.179135 0.844923 0.235182
C75   C     C_3   0.149773 0.104723 0.695637 -0.936814
H94   H     H_    0.107114 0.141405 0.621088 0.261601
H95   H     H_    0.123837 0.052673 0.711320 0.264796
H96   H     H_    0.197854 0.095212 0.633829 0.264116
N4    N     N_2   0.177631 0.882877 0.463663 -0.051771
H97   H     H_    0.129716 0.853619 0.411409 0.255156
C76   C     C_3   0.160391 0.928129 0.589457 -0.624205
H98   H     H_    0.137499 0.897144 0.679133 0.201969
H99   H     H_    0.113566 0.965334 0.538637 0.210518
H100  H     H_    0.213721 0.955130 0.655523 0.274518
H101  H     H_    0.413932 0.625908 0.244445 0.149747
H102  H     H_    0.411621 0.402062 0.668930 0.141253
H103  H     H_    0.912183 0.135548 0.324177 0.199982
H104  H     H_    0.888523 0.879683 0.697805 0.147462
N5    N     N_2   0.980450 0.069450 0.212013 -0.073269
H105  H     H_    0.986534 0.051010 0.101652 0.222385
C77   C     C_3   0.050080 0.064985 0.337628 -0.783041
H106  H     H_    0.087088 0.112894 0.344714 0.263035
H107  H     H_    0.086552 0.021084 0.311618 0.234803
H108  H     H_    0.032458 0.056436 0.453343 0.245418
N6    N     N_2   0.953391 0.943827 0.573971 -0.079237
H109  H     H_    0.990570 0.964946 0.673198 0.188182
C78   C     C_3   0.893086 0.992421 0.493685 -0.801628
H110  H     H_    0.906114 0.047633 0.530715 0.252511
H111  H     H_    0.835168 0.980020 0.521428 0.270675
H112  H     H_    0.891294 0.991554 0.363110 0.286437
N7    N     N_2   0.508950 0.568980 0.187489 -0.072315
H113  H     H_    0.529299 0.549061 0.090830 0.223995
C79   C     C_3   0.570782 0.584481 0.325696 -0.829919
H114  H     H_    0.627096 0.591653 0.286988 0.251311
H115  H     H_    0.577400 0.539975 0.412107 0.240132
H116  H     H_    0.557767 0.633287 0.387480 0.232462
N8    N     N_2   0.472199 0.434161 0.490312 -0.057964
H117  H     H_    0.523199 0.456237 0.555557 0.177361
C80   C     C_3   0.415908 0.485546 0.410037 -0.825431
H118  H     H_    0.443373 0.537911 0.420405 0.233303
H119  H     H_    0.364017 0.489358 0.466680 0.262285
H120  H     H_    0.399043 0.473106 0.280205 0.292289

loop_
_geom_bond_atom_site_label_1
_geom_bond_atom_site_label_2
_geom_bond_distance
_ccdc_geom_bond_type
C18   H82   1.107261 S    
C37   H77   1.082266 S    
C77   H107  1.090681 S    
P1    O17   1.740660 S    
O23   P16   1.743890 S    
P4    Ba4   3.468416 S    
C12   H22   1.107124 S    
P3    O19   1.737202 S    
C75   H94   1.107953 S    
C2    H10   1.104637 S    
C35   H75   1.082227 S    
O44   C8    1.403151 S    
C7    H19   1.115037 S    
C8    H20   1.109604 S    
P2    Ba2   3.468416 S    
P8    Ba4   3.474138 S    
O27   Ba3   2.903789 S    
O24   P15   1.737186 S    
C25   H49   1.113882 S    
C24   H48   1.107803 S    
C3    H61   1.096923 S    
C15   C19   1.522935 S    
C18   H38   1.101110 S    
P1    O1    1.551772 D    
C60   C64   1.448868 A    
C39   C51   1.396288 A    
C1    H63   1.085417 S    
C25   N1    1.433159 S    
O9    P14   1.759432 S    
C30   H58   1.108314 S    
P3    O3    1.551772 D    
C5    H17   1.115034 S    
O12   Ba4   2.848283 S    
C50   C54   1.452293 A    
C78   H110  1.097327 S    
P4    O20   1.729262 S    
C79   H116  1.104331 S    
C1    C29   1.508001 S    
O9    Ba1   2.850227 S    
P6    O45   1.613987 S    
C14   H26   1.109055 S    
C15   H27   1.104494 S    
Ba3   O47   2.873847 S    
N4    H97   1.021135 S    
P8    O47   1.613987 S    
O30   Ba2   2.849569 S    
C80   H120  1.104089 S    
P9    O29   1.731235 S    
P6    Ba2   3.474138 S    
C56   C58   1.446533 A    
P2    C50   1.907110 S    
C44   H66   1.077572 S    
P4    O4    1.552313 D    
P7    O27   1.551619 D    
C22   C26   1.522392 S    
C17   H33   1.098670 S    
P12   O32   1.730142 S    
C13   C17   1.525247 S    
C21   H41   1.105720 S    
H4    C32   1.103759 S    
C23   H43   1.107119 S    
C33   H73   1.082131 S    
O13   P14   1.544814 D    
N4    C76   1.444715 S    
O42   C6    1.400765 S    
O31   Ba3   2.847633 S    
C8    H16   1.114030 S    
O41   C5    1.412271 S    
C80   H119  1.109378 S    
P4    O8    1.604165 S    
O14   P13   1.541044 D    
C3    H11   1.103768 S    
N7    H113  1.028926 S    
C8    C12   1.509934 S    
C6    H14   1.110492 S    
C40   H80   1.082326 S    
C57   C61   1.450312 A    
C28   H52   1.092942 S    
N6    H109  1.028770 S    
C24   H44   1.104616 S    
C23   H47   1.104351 S    
C40   C48   1.395906 A    
P7    Ba3   3.470698 S    
C16   C20   1.506357 S    
C77   H108  1.099901 S    
P5    O25   1.551619 D    
O20   C24   1.396195 S    
P9    O41   1.737542 S    
C76   H98   1.098507 S    
C38   C50   1.397226 A    
C42   H68   1.075280 S    
O5    Ba2   2.873886 S    
O28   Ba4   2.910797 S    
C39   C47   1.394399 A    
P2    O2    1.552313 D    
P11   O43   1.738593 S    
C6    H18   1.104783 S    
C11   H101  1.107576 S    
O7    Ba4   2.873886 S    
P7    O39   1.743203 S    
O11   P16   1.767362 S    
P10   C65   1.872132 S    
C15   H31   1.104310 S    
C53   C59   1.444999 A    
C58   C62   1.448845 A    
C19   H83   1.109647 S    
P9    C66   1.838851 S    
C2    C30   1.512905 S    
C9    H23   1.102848 S    
C36   H76   1.082434 S    
O22   C30   1.403351 S    
O40   C15   1.412877 S    
P9    O33   1.543156 D    
C24   C28   1.514449 S    
O4    Ba4   2.900322 S    
O21   C29   1.394810 S    
P5    O46   1.609298 S    
P10   O30   1.727921 S    
O17   C21   1.392375 S    
O3    Ba3   2.907262 S    
P7    C64   1.906633 S    
Ba2   O46   2.867551 S    
P11   O35   1.540980 D    
C75   H95   1.100627 S    
C43   C57   1.407156 A    
P12   O36   1.542136 D    
C21   H45   1.111553 S    
C78   H111  1.106596 S    
P1    C49   1.911209 S    
C43   C47   1.405715 A    
O10   Ba2   2.848283 S    
Ba3   O48   2.986359 S    
O2    Ba2   2.900322 S    
C31   H59   1.102336 S    
C41   C59   1.407695 A    
P4    C52   1.917329 S    
C20   H36   1.102340 S    
O1    Ba1   2.907262 S    
O21   P14   1.736406 S    
C56   C70   1.404352 A    
C22   H42   1.085433 S    
C3    C31   1.517950 S    
C27   H51   1.109920 S    
C34   C66   1.386229 A    
P2    O18   1.745481 S    
P12   O44   1.733070 S    
C33   C65   1.402948 A    
C26   H54   1.097925 S    
O8    Ba3   2.867590 S    
N7    C79   1.445431 S    
C19   H35   1.097782 S    
C40   C52   1.397931 A    
C12   N8    1.443701 S    
C44   C58   1.409347 A    
C73   H86   1.108849 S    
C41   C45   1.405372 A    
C68   C72   1.404195 A    
C37   C49   1.392936 A    
P6    O26   1.551079 D    
C80   H118  1.093224 S    
C17   H37   1.098664 S    
P1    O5    1.608801 S    
C41   H67   1.078781 S    
P12   C67   1.862242 S    
C1    H7    1.094447 S    
C26   N2    1.432548 S    
C6    C10   1.519227 S    
C54   C60   1.446747 A    
C65   C69   1.406759 A    
C74   H91   1.107427 S    
C19   H39   1.104116 S    
P3    Ba3   3.471781 S    
C11   N7    1.449376 S    
P14   C45   1.833095 S    
C66   C70   1.402609 A    
C7    C11   1.525748 S    
O37   C14   1.399131 S    
C73   H87   1.100426 S    
C10   H104  1.109453 S    
C34   H74   1.082321 S    
C9    H103  1.105825 S    
H2    C30   1.107275 S    
C76   H99   1.090325 S    
P8    C63   1.904792 S    
P5    O37   1.746471 S    
O39   C16   1.400948 S    
P10   O34   1.547913 D    
Ba1   O45   2.873847 S    
C2    H8    1.109442 S    
H3    C31   1.106853 S    
C4    H12   1.104593 S    
C33   C61   1.404658 A    
P11   O31   1.731706 S    
C35   C67   1.392199 A    
C43   H65   1.074572 S    
O29   Ba1   2.847633 S    
C13   H29   1.106170 S    
C77   H106  1.104755 S    
P2    O6    1.604165 S    
O26   Ba2   2.910797 S    
C13   H25   1.107239 S    
C54   C72   1.411685 A    
C4    C32   1.509121 S    
P6    C61   1.921078 S    
C12   H102  1.113081 S    
C37   C45   1.388486 A    
C18   H34   1.108359 S    
P5    Ba1   3.470698 S    
P5    C62   1.891319 S    
N8    C80   1.439757 S    
C16   H32   1.109036 S    
C42   C46   1.405944 A    
P7    O48   1.609298 S    
C14   C18   1.511589 S    
C49   C53   1.454708 A    
C36   C68   1.394822 A    
C28   N4    1.444657 S    
C3    H5    1.099021 S    
O38   C13   1.411266 S    
C35   C63   1.397097 A    
Ba2   O45   2.985062 S    
C71   H69   1.067408 S    
C34   C62   1.391301 A    
C70   H72   1.069791 S    
N6    C78   1.447505 S    
C67   C71   1.410777 A    
C75   H96   1.089929 S    
C26   H50   1.104732 S    
C78   H112  1.101693 S    
O19   C23   1.399873 S    
Ba3   Ba4   4.682716 S    
P6    O38   1.752944 S    
C32   H60   1.103173 S    
P8    O28   1.551079 D    
C38   H78   1.082380 S    
C22   H46   1.105663 S    
C55   C69   1.408262 A    
C2    H64   1.110750 S    
O16   P15   1.541399 D    
P8    O40   1.757290 S    
C79   H114  1.104516 S    
C1    H9    1.097038 S    
C53   C71   1.402229 A    
P16   C47   1.844297 S    
N3    C75   1.432939 S    
P10   O42   1.745364 S    
H1    C29   1.109396 S    
C36   C64   1.399923 A    
C5    C9    1.530658 S    
O22   P13   1.738661 S    
O6    Ba1   2.867590 S    
C10   H24   1.109524 S    
Ba1   Ba2   4.682716 S    
C4    H6    1.108771 S    
O43   C7    1.414034 S    
C79   H115  1.103719 S    
C20   H40   1.102829 S    
P15   C48   1.845149 S    
N5    H105  1.024405 S    
C7    H15   1.111281 S    
C4    H62   1.111125 S    
C17   H81   1.109132 S    
N3    H93   1.019167 S    
C16   H28   1.107763 S    
O10   P13   1.751522 S    
C27   H55   1.098552 S    
P13   C46   1.846789 S    
N1    C73   1.435013 S    
O11   Ba3   2.850227 S    
O32   Ba4   2.849569 S    
O12   P15   1.753000 S    
O25   Ba1   2.903789 S    
C27   N3    1.440436 S    
Ba4   O48   2.867551 S    
C29   H57   1.108818 S    
C74   H92   1.095809 S    
C59   C63   1.451593 A    
C10   N6    1.445057 S    
C55   C57   1.446828 A    
C72   H70   1.073394 S    
P3    O7    1.608801 S    
P11   C68   1.857633 S    
N2    C74   1.431864 S    
C20   H84   1.108852 S    
C52   C56   1.450461 A    
C44   C48   1.405464 A    
C73   H88   1.101179 S    
C14   H30   1.111412 S    
Ba4   O47   2.985062 S    
C28   H56   1.100003 S    
N5    C77   1.437519 S    
C76   H100  1.103615 S    
C23   C27   1.522552 S    
N2    H89   1.026141 S    
O24   C32   1.401196 S    
C11   H21   1.104006 S    
C5    H13   1.106704 S    
Ba1   O46   2.986359 S    
O18   C22   1.402559 S    
C25   H53   1.105285 S    
C21   C25   1.535905 S    
C38   C46   1.393534 A    
P1    Ba1   3.471781 S    
P3    C51   1.912455 S    
C69   H71   1.067610 S    
C39   H79   1.082607 S    
C51   C55   1.455283 A    
N8    H117  1.030684 S    
C74   H90   1.082742 S    
C42   C60   1.410746 A    
C9    N5    1.441794 S    
N1    H85   1.018620 S    
O23   C31   1.397382 S    
O15   P16   1.532701 D    
