data_mof_unit_22806.cif
_audit_creation_date              2012-12-11T15:55:38-0500
_audit_creation_method            fapswitch 2.2
_symmetry_space_group_name_H-M    P1
_symmetry_Int_Tables_number       1
_space_group_crystal_system       triclinic
_cell_length_a                    6.939394
_cell_length_b                    14.551272
_cell_length_c                    16.099801
_cell_angle_alpha                 90.052509
_cell_angle_beta                  89.865105
_cell_angle_gamma                 90.105462
_cell_volume                      1625.70182438

loop_
_atom_site_label
_atom_site_type_symbol
_atom_type_description
_atom_site_fract_x
_atom_site_fract_y
_atom_site_fract_z
_atom_type_partial_charge
O1    O     O_R   0.505680 0.583900 0.413320 -0.539474
O2    O     O_R   0.176010 0.594950 0.586080 -0.543287
O3    O     O_R   0.005680 0.416100 0.586680 -0.536779
C1    C     C_R   0.345010 0.617131 0.615049 0.686525
O4    O     O_R   0.175960 0.594930 0.413930 -0.544726
O5    O     O_R   0.005640 0.416080 0.413300 -0.541075
C2    C     C_R   0.345319 0.617133 0.385228 0.709295
O6    O     O_R   0.505720 0.583920 0.586700 -0.540269
O7    O     O_3   0.339190 0.441320 0.500000 -0.371109
V1    V     V_3+5 0.064350 0.510890 0.500000 1.399461
O8    O     O_R   0.675920 0.405050 0.413920 -0.544365
C3    C     C_R   0.845007 0.382784 0.385002 0.683960
O9    O     O_R   0.675960 0.405070 0.586070 -0.543563
C4    C     C_R   0.844599 0.382991 0.614892 0.697335
V2    V     V_3+5 0.564340 0.489110 0.500000 1.396286
O10   O     O_3   0.839370 0.558680 0.500000 -0.369039
C5    C     C_R   0.006727 0.317677 0.741607 0.101459
C6    C     C_R   0.852436 0.317549 0.685542 -0.112451
C7    C     C_R   0.701201 0.255097 0.700946 -0.175870
H1    H     H_    0.578903 0.252400 0.659630 0.133725
C8    C     C_R   0.712677 0.190920 0.766339 -0.174418
H2    H     H_    0.598153 0.141066 0.773586 0.127415
C9    C     C_R   0.876080 0.186936 0.818177 -0.109803
C10   C     C_R   0.018532 0.253925 0.806071 0.101770
C11   C     C_3   0.230088 0.242453 0.794311 -0.409541
C12   C     C_3   0.217383 0.312306 0.724465 -0.396792
H3    H     H_    0.267250 0.172223 0.772440 0.167846
H4    H     H_    0.313689 0.267497 0.848640 0.175609
H5    H     H_    0.248094 0.282870 0.662104 0.172235
H6    H     H_    0.292787 0.377937 0.738584 0.168316
C13   C     C_R   0.046773 0.224554 0.217590 -0.151800
H7    H     H_    0.187442 0.206004 0.193730 0.116383
C14   C     C_R   0.035671 0.288111 0.282811 -0.151495
H8    H     H_    0.168341 0.316708 0.306997 0.118220
C15   C     C_R   0.856197 0.314429 0.316167 -0.046917
C16   C     C_R   0.688141 0.275400 0.282393 -0.156061
H9    H     H_    0.547472 0.293951 0.306252 0.116635
C17   C     C_R   0.699243 0.211842 0.217172 -0.147567
H10   H     H_    0.566573 0.183245 0.192986 0.119493
C18   C     C_R   0.878717 0.185529 0.183813 -0.048419
C19   C     C_R   0.188154 0.724412 0.717815 -0.156990
H11   H     H_    0.047520 0.705853 0.694049 0.117055
C20   C     C_R   0.199289 0.787974 0.783017 -0.154099
H12   H     H_    0.066654 0.816572 0.807284 0.117828
C21   C     C_R   0.378739 0.814306 0.816246 -0.044606
C22   C     C_R   0.546732 0.775270 0.782383 -0.159048
H13   H     H_    0.687366 0.793826 0.806149 0.115613
C23   C     C_R   0.535596 0.711706 0.717181 -0.151459
H14   H     H_    0.668231 0.683107 0.692916 0.118930
C24   C     C_R   0.356153 0.685412 0.683923 -0.046701
C25   C     C_R   0.190130 0.731118 0.290103 -0.169390
H15   H     H_    0.052886 0.718311 0.320213 0.139901
C26   C     C_R   0.196088 0.792665 0.223475 0.345853
C27   C     C_R   0.373779 0.812451 0.182778 -0.137393
C28   C     C_R   0.539603 0.765949 0.209750 -0.191372
H16   H     H_    0.676238 0.777395 0.179359 0.165322
C29   C     C_R   0.531373 0.703279 0.275580 -0.145982
H17   H     H_    0.662465 0.668570 0.293913 0.133503
C30   C     C_R   0.356281 0.685129 0.316561 -0.118678
O11   O     O_R   0.229200 0.915950 0.913350 -0.543976
O12   O     O_R   0.559090 0.905000 0.086080 -0.539028
O13   O     O_R   0.729280 0.083880 0.086680 -0.539116
C31   C     C_R   0.388835 0.881936 0.114530 0.713046
O14   O     O_R   0.558920 0.904980 0.913920 -0.546300
O15   O     O_R   0.729110 0.083860 0.913300 -0.541083
C32   C     C_R   0.389901 0.882692 0.885037 0.672207
O16   O     O_R   0.229360 0.915970 0.086730 -0.528041
O17   O     O_3   0.395680 0.058580 0.000030 -0.371452
V3    V     V_3+5 0.670570 0.989070 0.999990 1.410681
O18   O     O_R   0.058820 0.094950 0.913870 -0.541390
C33   C     C_R   0.889893 0.116845 0.884922 0.690487
O19   O     O_R   0.058990 0.094970 0.086020 -0.540901
C34   C     C_R   0.889909 0.117186 0.114971 0.709976
V4    V     V_3+5 0.170560 0.010930 0.999930 1.415410
O20   O     O_3   0.895590 0.941310 0.999960 -0.371869
O21   O     O_3   0.025548 0.832716 0.200411 -0.647104
H18   H     H_    0.002017 0.812813 0.142402 0.283017

loop_
_geom_bond_atom_site_label_1
_geom_bond_atom_site_label_2
_ccdc_geom_bond_type
C28   H16   S    
C19   H11   S    
C4    C6    S    
C15   C16   A    
C1    O6    A    
C26   C27   A    
C18   C34   S    
C11   H4    S    
C5    C12   S    
C16   H9    S    
C7    C8    A    
O5    C3    A    
C17   H10   S    
C29   C30   A    
C27   C31   S    
O17   V4    S    
V2    O10   S    
C13   C18   A    
C6    C7    A    
O12   C31   A    
C27   C28   A    
O8    V2    S    
C7    H1    S    
O15   C33   A    
O17   V3    S    
O18   V4    S    
C9    C10   A    
C13   C14   A    
O13   C34   A    
O18   C33   A    
O1    V2    S    
O7    V1    S    
C23   C24   A    
O11   C32   A    
C8    H2    S    
C19   C20   A    
C2    C30   S    
C5    C6    A    
C22   C23   A    
C8    C9    A    
C31   O16   A    
C5    C10   A    
V4    O20   S    
C25   H15   S    
C9    C33   S    
C10   C11   S    
O19   V4    S    
O4    C2    A    
C11   C12   S    
C21   C22   A    
O13   V3    S    
C1    C24   S    
C25   C26   A    
O14   C32   A    
O2    C1    A    
C20   H12   S    
C13   H7    S    
C14   H8    S    
O16   V4    S    
O14   V3    S    
O21   H18   S    
C3    C15   S    
C20   C21   A    
O3    C4    A    
C23   H14   S    
C12   H6    S    
O6    V2    S    
C28   C29   A    
C26   O21   S    
C25   C30   A    
C16   C17   A    
O2    V1    S    
C19   C24   A    
O12   V3    S    
C22   H13   S    
O1    C2    A    
O19   C34   A    
O5    V1    S    
O8    C3    A    
C11   H3    S    
O9    V2    S    
O7    V2    S    
O4    V1    S    
O3    V1    S    
V1    O10   S    
C17   C18   A    
C29   H17   S    
O15   V3    S    
O11   V4    S    
C14   C15   A    
V3    O20   S    
C12   H5    S    
C21   C32   S    
O9    C4    A    
