data_mof_unit_50719.cif
_audit_creation_date              2012-10-26T19:04:18-0400
_audit_creation_method            fapswitch 2.2
_symmetry_space_group_name_H-M    P1
_symmetry_Int_Tables_number       1
_space_group_crystal_system       triclinic
_cell_length_a                    14.891506
_cell_length_b                    15.724598
_cell_length_c                    9.583004
_cell_angle_alpha                 90.083137
_cell_angle_beta                  91.270042
_cell_angle_gamma                 89.726881
_cell_volume                      2243.40565519

loop_
_atom_site_label
_atom_site_type_symbol
_atom_type_description
_atom_site_fract_x
_atom_site_fract_y
_atom_site_fract_z
_atom_type_partial_charge
C1    C     C_R   0.385890 0.877183 0.500134 0.538388
C2    C     C_R   0.711259 0.223502 0.381201 -0.164851
C3    C     C_R   0.211785 0.276738 0.380573 -0.170353
C4    C     C_R   0.210199 0.724342 0.381134 -0.167711
C5    C     C_R   0.682083 0.810970 0.501397 0.016555
C6    C     C_R   0.682120 0.190696 0.508220 0.003282
C7    C     C_R   0.182348 0.309374 0.507809 -0.001829
C8    C     C_R   0.180344 0.691911 0.507971 -0.002948
C9    C     C_R   0.665466 0.999685 0.149339 -0.088418
C10   C     C_R   0.165518 0.499426 0.149145 -0.101345
C11   C     C_R   0.746063 0.999363 0.079287 -0.176273
C12   C     C_R   0.387493 0.123866 0.499955 0.548947
C13   C     C_R   0.246132 0.499772 0.079089 -0.184552
C14   C     C_R   0.745739 0.998770 0.935479 -0.160223
C15   C     C_R   0.245811 0.500133 0.935304 -0.160180
C16   C     C_R   0.664803 0.998968 0.860901 -0.080446
C17   C     C_R   0.164857 0.499915 0.860760 -0.087543
C18   C     C_R   0.581090 0.999736 0.927921 0.116018
C19   C     C_R   0.081128 0.499666 0.927771 0.117261
C20   C     C_R   0.581221 0.999826 0.077519 0.123475
C21   C     C_R   0.081240 0.499529 0.077357 0.118887
C22   C     C_R   0.421362 0.000762 0.069089 0.270882
C23   C     C_R   0.886870 0.376508 0.499946 0.538592
C24   C     C_R   0.922017 0.500484 0.071247 0.248744
C25   C     C_R   0.616133 0.121675 0.502058 0.529382
C26   C     C_R   0.618157 0.880727 0.500658 0.526156
C27   C     C_R   0.115527 0.622042 0.501949 0.535620
C28   C     C_R   0.116074 0.378271 0.501918 0.530547
C29   C     C_R   0.423142 0.999517 0.920959 0.045281
C30   C     C_R   0.922804 0.500899 0.922457 0.015118
C31   C     C_R   0.363807 0.235574 0.749307 -0.065861
C32   C     C_R   0.356753 0.769540 0.753905 -0.073064
C33   C     C_R   0.695710 0.576971 0.561513 -0.075091
C34   C     C_R   0.880783 0.618123 0.499151 0.539462
C35   C     C_R   0.862542 0.265720 0.749985 -0.068089
C36   C     C_R   0.332269 0.260198 0.880847 0.146014
C37   C     C_R   0.323996 0.745402 0.884469 0.156058
C38   C     C_R   0.606406 0.557503 0.591987 0.153764
C39   C     C_R   0.831494 0.240791 0.881357 0.146469
C40   C     C_R   0.542166 0.622795 0.591624 -0.121605
C41   C     C_R   0.742664 0.213945 0.890250 -0.128147
C42   C     C_R   0.242904 0.286348 0.889829 -0.124292
C43   C     C_R   0.235089 0.718470 0.890942 -0.110572
C44   C     C_R   0.566740 0.706323 0.563141 -0.139456
C45   C     C_R   0.281291 0.218650 0.378171 -0.169336
C46   C     C_R   0.690013 0.202118 0.769952 -0.146286
C47   C     C_R   0.189965 0.297617 0.769570 -0.136141
C48   C     C_R   0.184057 0.706059 0.769183 -0.131066
C49   C     C_R   0.656310 0.726943 0.533888 0.018216
C50   C     C_R   0.724648 0.217357 0.635885 0.015877
C51   C     C_R   0.225090 0.282993 0.635482 0.014094
C52   C     C_R   0.220850 0.720046 0.636084 0.012240
C53   C     C_R   0.306951 0.238742 0.628560 -0.005531
C54   C     C_R   0.302051 0.765033 0.630824 -0.009678
C55   C     C_R   0.721577 0.661413 0.532450 -0.011732
C56   C     C_R   0.278622 0.783198 0.379447 -0.166548
C57   C     C_R   0.805801 0.262370 0.629155 -0.009453
C58   C     C_R   0.327922 0.197552 0.501513 -0.006397
C59   C     C_R   0.324550 0.804898 0.503034 -0.013529
C60   C     C_R   0.810562 0.681875 0.497438 0.002045
C61   C     C_R   0.826670 0.303353 0.502040 -0.009255
C62   C     C_3   0.482135 0.243090 0.999178 -0.310388
C63   C     C_3   0.473269 0.754163 0.005138 -0.294192
C64   C     C_3   0.622282 0.429836 0.733152 -0.308901
C65   C     C_3   0.981345 0.258207 0.999277 -0.309915
C66   C     C_3   0.261384 0.045845 0.069422 -0.348752
C67   C     C_R   0.833774 0.764723 0.461324 -0.147336
C68   C     C_3   0.765856 0.453711 0.089539 -0.334463
C69   C     C_R   0.780225 0.281770 0.378910 -0.160308
C70   C     C_R   0.769881 0.828914 0.463291 -0.154108
Cu1   Cu    Cu3+1 0.499990 0.000000 0.640660 0.886755
Cu2   Cu    Cu3+1 0.999990 0.500000 0.640660 0.888538
Cu3   Cu    Cu3+1 0.500010 0.000000 0.359340 0.920662
Cu4   Cu    Cu3+1 0.000010 0.500000 0.359340 0.943338
H1    H     H_    0.297856 0.189640 0.279439 0.148166
H2    H     H_    0.860445 0.502907 0.862623 0.126465
H3    H     H_    0.432856 0.215645 0.740213 0.135130
H4    H     H_    0.425445 0.789739 0.748540 0.140898
H5    H     H_    0.743915 0.525408 0.556566 0.133088
H6    H     H_    0.931414 0.285486 0.741097 0.138742
H7    H     H_    0.472566 0.608941 0.612580 0.105401
H8    H     H_    0.714361 0.200364 0.990967 0.106057
H9    H     H_    0.214310 0.299597 0.990613 0.105959
H10   H     H_    0.205466 0.705297 0.990837 0.110905
H11   H     H_    0.514844 0.754276 0.561099 0.116397
H12   H     H_    0.295249 0.812072 0.280860 0.159417
H13   H     H_    0.621138 0.185009 0.785841 0.140921
H14   H     H_    0.120715 0.314199 0.785342 0.141357
H15   H     H_    0.114811 0.688990 0.782984 0.158734
H16   H     H_    0.789063 0.893102 0.436033 0.100409
H17   H     H_    0.679545 0.205427 0.282768 0.127770
H18   H     H_    0.179746 0.294580 0.282204 0.129680
H19   H     H_    0.179386 0.705563 0.282409 0.135732
H20   H     H_    0.673737 0.999726 0.259568 0.184065
H21   H     H_    0.173757 0.499345 0.259392 0.188798
H22   H     H_    0.809294 0.999531 0.137350 0.115532
H23   H     H_    0.902003 0.779843 0.433367 0.115734
H24   H     H_    0.309374 0.499801 0.137113 0.120334
H25   H     H_    0.364698 0.290966 0.088606 0.247891
H26   H     H_    0.512195 0.242865 0.106309 0.148086
H27   H     H_    0.511940 0.296034 0.939505 0.126833
H28   H     H_    0.498313 0.180963 0.950692 0.154338
H29   H     H_    0.352113 0.718834 0.094378 0.243872
H30   H     H_    0.502570 0.753422 0.112767 0.154687
H31   H     H_    0.496046 0.813480 0.954564 0.164851
H32   H     H_    0.498143 0.697504 0.948013 0.137110
H33   H     H_    0.511564 0.461775 0.608679 0.245715
H34   H     H_    0.797000 0.310121 0.280212 0.148189
H35   H     H_    0.598004 0.363350 0.738848 0.141101
H36   H     H_    0.604383 0.463269 0.830982 0.131385
H37   H     H_    0.696427 0.427881 0.723365 0.160579
H38   H     H_    0.864785 0.209447 0.088591 0.246232
H39   H     H_    0.011582 0.258230 0.106294 0.145682
H40   H     H_    0.996473 0.320570 0.951533 0.156071
H41   H     H_    0.011918 0.205658 0.938664 0.133664
H42   H     H_    0.333279 0.999042 0.239469 0.314396
H43   H     H_    0.205330 0.051180 0.143648 0.132474
H44   H     H_    0.235010 0.011816 0.975817 0.148200
H45   H     H_    0.808676 0.998771 0.880979 0.125430
H46   H     H_    0.282791 0.110944 0.041370 0.172810
H47   H     H_    0.819648 0.567328 0.161455 0.254117
H48   H     H_    0.714475 0.448043 0.171142 0.151673
H49   H     H_    0.789879 0.389003 0.062765 0.177662
H50   H     H_    0.733855 0.483744 0.996148 0.106546
H51   H     H_    0.308747 0.500378 0.880785 0.127370
H52   H     H_    0.671894 0.999333 0.750990 0.191701
H53   H     H_    0.171968 0.499904 0.750851 0.193860
H54   H     H_    0.361726 0.997503 0.859160 0.142075
N1    N     N_R   0.501200 0.000000 0.147910 -0.242345
N2    N     N_2   0.839212 0.505547 0.142153 -0.460386
N3    N     N_R   0.001200 0.500000 0.147910 -0.227013
N4    N     N_R   0.501270 0.000000 0.852040 -0.287828
N5    N     N_R   0.001270 0.500000 0.852040 -0.275976
N6    N     N_2   0.385796 0.253988 0.006431 -0.530323
N7    N     N_2   0.376186 0.752754 0.011174 -0.516594
N8    N     N_2   0.580017 0.471662 0.614239 -0.517489
N9    N     N_2   0.885187 0.246757 0.006774 -0.532611
N10   N     N_2   0.335482 0.998893 0.133577 -0.506765
O1    O     O_R   0.409820 0.909830 0.618810 -0.511323
O2    O     O_R   0.590170 0.909830 0.618760 -0.523459
O3    O     O_R   0.090170 0.590170 0.618760 -0.530040
O4    O     O_R   0.090170 0.409830 0.618760 -0.537699
O5    O     O_R   0.590190 0.090180 0.381190 -0.526453
O6    O     O_R   0.590190 0.909820 0.381190 -0.515405
O7    O     O_R   0.090190 0.590180 0.381190 -0.524821
O8    O     O_R   0.090190 0.409820 0.381190 -0.526754
O9    O     O_R   0.409820 0.090170 0.618810 -0.510637
O10   O     O_R   0.909820 0.409830 0.618810 -0.525179
O11   O     O_R   0.909820 0.590170 0.618810 -0.502803
O12   O     O_R   0.409840 0.909830 0.381240 -0.508396
O13   O     O_R   0.409840 0.090170 0.381240 -0.511209
O14   O     O_R   0.909840 0.409830 0.381240 -0.463265
O15   O     O_R   0.909840 0.590170 0.381240 -0.487409
O16   O     O_R   0.590170 0.090170 0.618760 -0.538612

loop_
_geom_bond_atom_site_label_1
_geom_bond_atom_site_label_2
_ccdc_geom_bond_type
C44   C49   A    
C33   C55   A    
Cu1   O9    S    
C23   O14   A    
C64   N8    S    
C22   C29   A    
Cu3   O12   S    
C65   H40   S    
Cu4   O7    S    
C36   C42   A    
C20   N1    A    
C4    C8    A    
C5    C49   A    
C68   H50   S    
C39   N9    S    
Cu2   N5    S    
C39   C41   A    
C25   O5    A    
Cu2   O4    S    
H33   N8    S    
C12   O9    A    
C19   C21   A    
C3    C7    A    
C1    C59   S    
C11   C14   A    
C6    C25   S    
C35   H6    S    
C28   O8    A    
C13   H24   S    
C11   H22   S    
H29   N7    S    
C21   N3    A    
C17   C19   A    
Cu1   N4    S    
C18   N4    A    
C34   O11   A    
C60   C67   A    
C66   H43   S    
C41   C46   A    
C37   N7    S    
C38   N8    S    
C63   H31   S    
C2    C69   A    
C43   C48   A    
C8    C52   A    
C40   C44   A    
C1    O1    A    
C62   H27   S    
C12   C58   S    
C66   H46   S    
C55   C60   A    
Cu3   O13   S    
C34   C60   S    
C43   H10   S    
C65   H41   S    
C12   O13   A    
Cu4   O14   S    
C2    C6    A    
C26   O6    A    
C64   H36   S    
C40   H7    S    
C68   H49   S    
C32   C54   A    
C69   H34   S    
C52   C54   A    
C31   H3    S    
H42   N10   S    
C54   C59   A    
C10   C21   A    
Cu2   O3    S    
Cu3   N1    S    
C45   C58   A    
Cu2   Cu4   S    
C68   H48   S    
Cu1   Cu3   S    
C33   H5    S    
C64   H37   S    
Cu1   O1    S    
C49   C55   A    
Cu1   O16   S    
C32   H4    S    
C3    C45   A    
C31   C53   A    
C7    C28   S    
C5    C26   S    
H25   N6    S    
C3    H18   S    
C51   C53   A    
C63   N7    S    
C37   C43   A    
C35   C39   A    
C5    C70   A    
C30   H2    S    
C9    C20   A    
C56   H12   S    
C66   N10   S    
C23   C61   S    
C27   O7    A    
C30   N5    A    
C1    O12   A    
H47   N2    S    
C32   C37   A    
C6    C50   A    
C63   H32   S    
C68   N2    S    
C9    C11   A    
C62   H26   S    
C14   H45   S    
C48   H15   S    
C13   C15   A    
C22   N1    A    
C15   H51   S    
C14   C16   A    
C28   O4    A    
C44   H11   S    
C46   H13   S    
Cu3   O5    S    
C34   O15   A    
C61   C69   A    
C15   C17   A    
C46   C50   A    
C25   O16   A    
C50   C57   A    
C65   H39   S    
H38   N9    S    
Cu4   O8    S    
C17   H53   S    
C42   H9    S    
C63   H30   S    
C10   C13   A    
C36   N6    S    
C47   C51   A    
C53   C58   A    
C57   C61   A    
Cu1   O2    S    
C19   N5    A    
C23   O10   A    
C22   N10   S    
C26   O2    A    
C33   C38   A    
C56   C59   A    
C45   H1    S    
C35   C57   A    
C67   C70   A    
C47   H14   S    
C62   N6    S    
C65   N9    S    
Cu2   O10   S    
C38   C40   A    
C24   N3    A    
C64   H35   S    
C10   H21   S    
C41   H8    S    
C70   H16   S    
C27   O3    A    
C18   C20   A    
C42   C47   A    
C2    H17   S    
C24   C30   A    
C67   H23   S    
C7    C51   A    
C4    H19   S    
C29   N4    A    
C24   N2    S    
C48   C52   A    
Cu4   O15   S    
C16   C18   A    
Cu2   O11   S    
C66   H44   S    
C29   H54   S    
C8    C27   S    
C31   C36   A    
Cu4   N3    S    
C16   H52   S    
C9    H20   S    
C4    C56   A    
C62   H28   S    
Cu3   O6    S    
