data_mof_unit_41687.cif
_audit_creation_date              2012-12-10T20:21:44-0500
_audit_creation_method            fapswitch 2.2
_symmetry_space_group_name_H-M    P1
_symmetry_Int_Tables_number       1
_space_group_crystal_system       triclinic
_cell_length_a                    19.423769
_cell_length_b                    18.502972
_cell_length_c                    8.905116
_cell_angle_alpha                 89.990784
_cell_angle_beta                  89.986803
_cell_angle_gamma                 90.197508
_cell_volume                      3200.45687522

loop_
_atom_site_label
_atom_site_type_symbol
_atom_type_description
_atom_site_fract_x
_atom_site_fract_y
_atom_site_fract_z
_atom_type_partial_charge
C1    C     C_R   0.365310 0.499868 0.499617 0.911825
C2    C     C_R   0.466810 0.199509 0.622296 0.174207
C3    C     C_R   0.502741 0.841718 0.497762 0.010496
C4    C     C_R   0.497438 0.159727 0.505853 0.046028
C5    C     C_R   0.444089 0.963778 0.425169 0.160805
C6    C     C_R   0.532912 0.041129 0.617880 0.116922
C7    C     C_R   0.526953 0.965000 0.629004 0.159664
C8    C     C_R   0.447114 0.041002 0.420352 0.132516
C9    C     C_R   0.495102 0.078787 0.509196 0.158070
C10   C     C_R   0.493118 0.924514 0.513723 0.033269
C11   C     C_R   0.500010 0.500004 0.218511 0.921502
C12   C     C_R   0.634779 0.500020 0.499283 0.910743
C13   C     C_R   0.500014 0.499996 0.781488 0.918828
C14   C     C_1   0.500016 0.500006 0.065360 -0.162933
C15   C     C_1   0.500018 0.499993 0.934639 -0.167549
C16   C     C_R   0.746975 0.433414 0.475175 0.105575
C17   C     C_R   0.252648 0.562589 0.453717 0.100810
C18   C     C_R   0.252748 0.434810 0.530879 0.097623
C19   C     C_R   0.748320 0.565668 0.508165 0.094961
C20   C     C_R   0.819092 0.433738 0.467991 0.125331
C21   C     C_R   0.180511 0.560368 0.443763 0.126586
C22   C     C_R   0.180736 0.434070 0.525955 0.127900
C23   C     C_R   0.542362 0.724954 0.596711 0.346776
C24   C     C_R   0.820532 0.565222 0.501689 0.131206
C25   C     C_R   0.854813 0.499320 0.482009 -0.056771
C26   C     C_R   0.145636 0.496560 0.482353 -0.064022
C27   C     C_R   0.710990 0.499718 0.494771 -0.206051
C28   C     C_R   0.289266 0.499311 0.495886 -0.208198
C29   C     C_R   0.964785 0.507599 0.616578 -0.179471
C30   C     C_R   0.035869 0.486380 0.346386 -0.183956
C31   C     C_R   0.035962 0.505416 0.616987 -0.192641
C32   C     C_R   0.964571 0.486570 0.346581 -0.203441
C33   C     C_R   0.071177 0.495735 0.481677 0.244959
C34   C     C_R   0.533978 0.273282 0.390787 0.379333
C35   C     C_R   0.929368 0.498313 0.481375 0.229736
C36   C     C_3   0.701295 0.327760 0.603117 -0.687699
C37   C     C_3   0.293038 0.678063 0.546882 -0.699632
C38   C     C_3   0.292730 0.315444 0.454827 -0.683020
C39   C     C_3   0.702753 0.676093 0.395738 -0.679451
C40   C     C_3   0.889974 0.338993 0.581668 -0.769095
C41   C     C_3   0.105241 0.662721 0.505003 -0.773626
C42   C     C_3   0.115796 0.328894 0.438025 -0.765313
C43   C     C_3   0.885016 0.662144 0.380602 -0.781180
C44   C     C_3   0.356311 0.934291 0.227318 -0.671715
C45   C     C_R   0.466292 0.725531 0.389455 0.355206
C46   C     C_3   0.643939 0.092111 0.678558 -0.791604
C47   C     C_3   0.488845 0.921518 0.870608 -0.783999
C48   C     C_3   0.336229 0.101311 0.408158 -0.801839
C49   C     C_R   0.465318 0.276092 0.612510 0.374802
C50   C     C_R   0.550164 0.801339 0.585698 0.226951
C51   C     C_R   0.529858 0.196355 0.386865 0.168031
C52   C     C_R   0.473077 0.801974 0.377853 0.202093
H1    H     H_    0.937205 0.515861 0.720907 0.130801
H2    H     H_    0.241424 0.698833 0.576983 0.222289
H3    H     H_    0.326255 0.724600 0.515561 0.218504
H4    H     H_    0.315967 0.651098 0.646407 0.241177
H5    H     H_    0.278189 0.350896 0.676648 0.210337
H6    H     H_    0.262917 0.266833 0.488911 0.204851
H7    H     H_    0.347176 0.299480 0.439252 0.245389
H8    H     H_    0.272932 0.335118 0.345009 0.229486
H9    H     H_    0.725157 0.660948 0.624858 0.219746
H10   H     H_    0.735615 0.725251 0.400909 0.211042
H11   H     H_    0.648237 0.693337 0.390288 0.249583
H12   H     H_    0.063548 0.478725 0.241997 0.129579
H13   H     H_    0.714596 0.645576 0.291298 0.221982
H14   H     H_    0.837092 0.330040 0.376421 0.217446
H15   H     H_    0.871158 0.283251 0.603696 0.221434
H16   H     H_    0.879959 0.372527 0.682974 0.237505
H17   H     H_    0.946299 0.336830 0.562415 0.249823
H18   H     H_    0.163032 0.651746 0.306654 0.214738
H19   H     H_    0.049417 0.661258 0.478602 0.259271
H20   H     H_    0.122713 0.719930 0.503528 0.219214
H21   H     H_    0.113257 0.640859 0.619988 0.237497
H22   H     H_    0.161825 0.339258 0.649993 0.220172
H23   H     H_    0.063726 0.512455 0.721510 0.128480
H24   H     H_    0.059293 0.323160 0.450853 0.244290
H25   H     H_    0.138876 0.274085 0.436513 0.223901
H26   H     H_    0.126670 0.355325 0.328305 0.234837
H27   H     H_    0.838694 0.668266 0.590431 0.222609
H28   H     H_    0.915390 0.711481 0.406952 0.231205
H29   H     H_    0.841876 0.677167 0.305486 0.238990
H30   H     H_    0.919167 0.624129 0.320415 0.249659
H31   H     H_    0.593496 0.716551 0.782693 0.324199
H32   H     H_    0.609732 0.281379 0.249731 0.319464
H33   H     H_    0.393478 0.718304 0.241343 0.314535
H34   H     H_    0.936764 0.478939 0.242304 0.135287
H35   H     H_    0.390253 0.288182 0.754392 0.321794
H36   H     H_    0.646713 0.797348 0.646837 0.338234
H37   H     H_    0.556812 0.185766 0.178202 0.344952
H38   H     H_    0.464835 0.799917 0.159548 0.338137
H39   H     H_    0.441214 0.193033 0.832462 0.346068
H40   H     H_    0.346873 0.917173 0.462043 0.199069
H41   H     H_    0.336148 0.881113 0.189649 0.235736
H42   H     H_    0.397529 0.951048 0.148102 0.255592
H43   H     H_    0.313022 0.973166 0.224106 0.205147
H44   H     H_    0.567165 0.066906 0.833855 0.247421
H45   H     H_    0.724672 0.334004 0.374694 0.213562
H46   H     H_    0.670035 0.127769 0.761268 0.236510
H47   H     H_    0.646601 0.118539 0.566627 0.263166
H48   H     H_    0.671266 0.039483 0.674439 0.246437
H49   H     H_    0.589804 0.949715 0.816739 0.254538
H50   H     H_    0.507289 0.892119 0.971311 0.271469
H51   H     H_    0.446985 0.889263 0.817869 0.232994
H52   H     H_    0.468467 0.974909 0.906086 0.237430
H53   H     H_    0.395116 0.068377 0.222326 0.244282
H54   H     H_    0.304903 0.136021 0.333068 0.230118
H55   H     H_    0.346877 0.131953 0.512641 0.275605
H56   H     H_    0.751122 0.306588 0.644264 0.222460
H57   H     H_    0.306131 0.052119 0.436703 0.240491
H58   H     H_    0.665675 0.281508 0.584941 0.223800
H59   H     H_    0.678667 0.363599 0.690111 0.240400
H60   H     H_    0.275570 0.652691 0.321977 0.212663
N1    N     N_R   0.500000 0.689440 0.500000 -0.134233
N2    N     N_2   0.859375 0.630528 0.518598 -0.297407
N3    N     N_2   0.382600 0.927276 0.378969 -0.262380
N4    N     N_2   0.573062 0.081348 0.722841 -0.283058
N5    N     N_2   0.545320 0.931074 0.766726 -0.237650
N6    N     N_2   0.399866 0.082359 0.333560 -0.282340
N7    N     N_R   0.500000 0.310560 0.500000 -0.139604
N8    N     N_2   0.710582 0.366538 0.463276 -0.252273
N9    N     N_2   0.288463 0.628217 0.421908 -0.246001
N10   N     N_2   0.288453 0.370443 0.570547 -0.253164
N11   N     N_2   0.713168 0.632429 0.528900 -0.250930
N12   N     N_2   0.856732 0.368113 0.449164 -0.300379
N13   N     N_2   0.142338 0.621568 0.392798 -0.301224
N14   N     N_2   0.142896 0.370215 0.563242 -0.296174
O1    O     O_R   0.398180 0.560840 0.499960 -0.569188
O2    O     O_3   0.572111 0.312229 0.288166 -0.719244
O3    O     O_3   0.427830 0.685975 0.288500 -0.718636
O4    O     O_3   0.428281 0.317578 0.712209 -0.717421
O5    O     O_3   0.610454 0.834213 0.632326 -0.753547
O6    O     O_3   0.556675 0.155938 0.270511 -0.765991
O7    O     O_3   0.464738 0.836098 0.241500 -0.759820
O8    O     O_3   0.438234 0.162305 0.741641 -0.778536
O9    O     O_R   0.601820 0.439160 0.500040 -0.570663
O10   O     O_R   0.601820 0.560840 0.500040 -0.560237
O11   O     O_R   0.398180 0.439160 0.499960 -0.569565
O12   O     O_R   0.500000 0.560800 0.285330 -0.568665
O13   O     O_R   0.500000 0.439200 0.714670 -0.563350
O14   O     O_R   0.500000 0.560800 0.714670 -0.576988
O15   O     O_R   0.500000 0.439200 0.285330 -0.568038
O16   O     O_3   0.579278 0.684674 0.698738 -0.723095
Zn1   Zn    Zn3+2 0.500000 0.581210 0.500000 1.040249
Zn2   Zn    Zn3+2 0.500000 0.418790 0.500000 1.042609

loop_
_geom_bond_atom_site_label_1
_geom_bond_atom_site_label_2
_ccdc_geom_bond_type
H32   O2    S    
C7    C10   A    
C30   C32   A    
C46   H47   S    
C45   O3    S    
N7    Zn2   S    
C30   H12   S    
C36   H56   S    
C7    N5    S    
O14   Zn1   S    
C21   C26   A    
C6    C9    A    
C8    N6    S    
C49   N7    A    
C24   N2    S    
C19   N11   S    
C34   C51   A    
C2    O8    S    
H37   O6    S    
C13   O13   A    
H35   O4    S    
C11   O12   A    
O10   Zn1   S    
O12   Zn1   S    
C16   N8    S    
C43   N2    S    
C11   C14   S    
C22   N14   S    
C48   H55   S    
C20   C25   A    
C39   N11   S    
C22   C26   A    
C44   H41   S    
H33   O3    S    
H5    N10   S    
C38   H6    S    
C37   H4    S    
C48   H54   S    
C44   N3    S    
C8    C9    A    
C12   O9    A    
C1    C28   S    
C31   C33   A    
C23   O16   S    
C19   C27   A    
C41   H19   S    
C16   C27   A    
C48   H57   S    
C46   H46   S    
C47   H50   S    
C5    N3    S    
C52   O7    S    
C39   H13   S    
C3    C50   A    
C40   N12   S    
C47   H51   S    
C40   H17   S    
C4    C51   A    
C13   O14   A    
C41   N13   S    
C18   C28   A    
C24   C25   A    
O15   Zn2   S    
H38   O7    S    
C23   C50   A    
C48   N6    S    
C12   C27   S    
C45   C52   A    
C43   H28   S    
C40   H15   S    
C17   C21   A    
N1    Zn1   S    
C2    C4    A    
C32   C35   A    
C2    C49   A    
C23   N1    A    
O13   Zn2   S    
C26   C33   S    
C31   H23   S    
C47   N5    S    
C16   C20   A    
C32   H34   S    
C36   H59   S    
O1    Zn1   S    
C11   O15   A    
C6    N4    S    
C38   N10   S    
C25   C35   S    
C41   H20   S    
C38   H8    S    
C37   H2    S    
H18   N13   S    
C17   N9    S    
O9    Zn2   S    
O11   Zn2   S    
C18   N10   S    
C42   H26   S    
C13   C15   S    
C12   O10   A    
C43   H29   S    
C37   N9    S    
H53   N6    S    
C5    C8    A    
C21   N13   S    
C1    O11   A    
C34   N7    A    
C39   H10   S    
C46   H48   S    
C47   H52   S    
C30   C33   A    
C18   C22   A    
C17   C28   A    
C1    O1    A    
H31   O16   S    
C51   O6    S    
C6    C7    A    
C39   H11   S    
C49   O4    S    
C29   C35   A    
C42   H24   S    
C46   N4    S    
H9    N11   S    
H49   N5    S    
H45   N8    S    
C19   C24   A    
H60   N9    S    
C29   C31   A    
C44   H43   S    
C3    C52   A    
C36   H58   S    
H22   N14   S    
H39   O8    S    
C29   H1    S    
H14   N12   S    
C36   N8    S    
H40   N3    S    
C20   N12   S    
C44   H42   S    
C50   O5    S    
C42   N14   S    
C41   H21   S    
C38   H7    S    
C37   H3    S    
C45   N1    A    
C5    C10   A    
C42   H25   S    
C34   O2    S    
C40   H16   S    
H27   N2    S    
C3    C10   S    
C43   H30   S    
C14   C15   T    
H44   N4    S    
H36   O5    S    
C4    C9    S    
