data_mof_unit_11845.cif
_audit_creation_date              2012-12-10T16:52:41-0500
_audit_creation_method            fapswitch 2.2
_symmetry_space_group_name_H-M    P1
_symmetry_Int_Tables_number       1
_space_group_crystal_system       triclinic
_cell_length_a                    7.910435
_cell_length_b                    8.543194
_cell_length_c                    13.556316
_cell_angle_alpha                 94.447828
_cell_angle_beta                  92.788994
_cell_angle_gamma                 94.01348
_cell_volume                      909.793614385

loop_
_atom_site_label
_atom_site_type_symbol
_atom_type_description
_atom_site_fract_x
_atom_site_fract_y
_atom_site_fract_z
_atom_type_partial_charge
C1    C     C_R   0.044782 0.794358 0.497885 0.943057
C2    C     C_R   0.937457 0.487334 0.316982 0.908204
C3    C     C_R   0.102087 0.558303 0.788375 -0.166698
C4    C     C_R   0.910102 0.479762 0.209218 -0.157442
C5    C     C_R   0.097788 0.740883 0.934194 -0.300209
C6    C     C_R   0.955580 0.366967 0.044237 -0.297186
C7    C     C_R   0.025684 0.680922 0.840949 0.544849
C8    C     C_R   0.006918 0.389121 0.145036 0.527942
C9    C     C_R   0.248151 0.500601 0.828071 -0.340828
C10   C     C_R   0.775684 0.558196 0.171330 -0.348616
C11   C     C_R   0.336451 0.577902 0.911399 0.097790
C12   C     C_R   0.955344 0.205699 0.502634 0.961278
C13   C     C_R   0.723517 0.537442 0.070875 0.092119
C14   C     C_R   0.255420 0.693898 0.968000 0.095128
C15   C     C_R   0.812720 0.436153 0.007740 0.096635
C16   C     C_R   0.502480 0.541153 0.939870 0.079597
C17   C     C_R   0.574254 0.600850 0.034088 0.073275
C18   C     C_3   0.290208 0.355263 0.149356 -0.241659
C19   C     C_3   0.924373 0.895078 0.775040 -0.265402
C20   C     C_R   0.491628 0.717967 0.089064 -0.243027
C21   C     C_R   0.599881 0.448612 0.876456 -0.150344
C22   C     C_R   0.335156 0.764403 0.055832 -0.205431
C23   C     C_R   0.753708 0.398660 0.909862 -0.187071
C24   C     C_2   0.068138 0.958189 0.496977 -0.366660
C25   C     C_2   0.932203 0.041984 0.504510 -0.384581
C26   C     C_R   0.063584 0.516682 0.682819 0.872462
H1    H     H_    0.275993 0.855154 0.099380 0.168088
H2    H     H_    0.803945 0.991018 0.511805 0.202669
H3    H     H_    0.331017 0.473830 0.185685 0.184751
H4    H     H_    0.289615 0.356233 0.067473 0.139922
H5    H     H_    0.386069 0.273419 0.170057 0.204688
H6    H     H_    0.032806 0.898350 0.725563 0.145901
H7    H     H_    0.952859 0.978555 0.841822 0.141784
H8    H     H_    0.813991 0.936403 0.733613 0.205410
H9    H     H_    0.823242 0.324947 0.859931 0.133593
H10   H     H_    0.704859 0.625433 0.223398 0.180457
H11   H     H_    0.296307 0.399855 0.788621 0.166429
H12   H     H_    0.035619 0.830128 0.977216 0.160432
H13   H     H_    0.020849 0.287388 0.995651 0.146079
H14   H     H_    0.547237 0.778521 0.156983 0.161910
H15   H     H_    0.561533 0.415475 0.799774 0.162367
H16   H     H_    0.196444 0.009165 0.489901 0.207778
I1    I     I_    0.497976 0.261243 0.385691 -0.264780
I2    I     I_    0.501682 0.731727 0.620531 -0.250230
N1    N     N_2   0.440860 0.456490 0.474790 0.025369
N2    N     N_2   0.559140 0.543510 0.525210 0.029572
O1    O     O_R   0.891570 0.738930 0.506190 -0.599823
O2    O     O_3   0.881708 0.741053 0.801281 -0.579347
O3    O     O_R   0.108430 0.261070 0.493810 -0.594452
O4    O     O_R   0.174650 0.711050 0.490030 -0.605853
O5    O     O_R   0.825350 0.288950 0.509970 -0.607708
O6    O     O_R   0.909850 0.521900 0.644940 -0.568006
O7    O     O_R   0.090150 0.478100 0.355060 -0.570976
O8    O     O_R   0.192930 0.494020 0.628780 -0.603221
O9    O     O_R   0.807070 0.505980 0.371220 -0.609721
O10   O     O_3   0.132100 0.301627 0.182873 -0.601164
Zn1   Zn    Zn3+2 0.810990 0.518620 0.510790 1.024100
Zn2   Zn    Zn3+2 0.189010 0.481380 0.489210 1.026802

loop_
_geom_bond_atom_site_label_1
_geom_bond_atom_site_label_2
_ccdc_geom_bond_type
C2    C4    S    
O7    Zn2   S    
C10   C13   A    
C16   C21   A    
C3    C9    A    
C26   O6    A    
O1    Zn1   S    
C9    C11   A    
C11   C16   A    
C23   H9    S    
C13   C15   A    
C18   O10   S    
C12   C25   S    
C2    O9    A    
C7    O2    S    
C8    O10   S    
C15   C23   A    
C12   O3    A    
N2    Zn1   S    
C18   H3    S    
C5    H12   S    
C25   H2    S    
I1    N1    S    
C14   C22   A    
C5    C14   A    
C18   H4    S    
C19   H6    S    
C26   O8    A    
C9    H11   S    
C20   C22   A    
C3    C7    A    
C22   H1    S    
O9    Zn1   S    
C21   C23   A    
C19   H7    S    
C20   H14   S    
C11   C14   A    
C21   H15   S    
N1    Zn2   S    
O6    Zn1   S    
C4    C10   A    
C13   C17   A    
O4    Zn2   S    
N1    N2    D    
O5    Zn1   S    
C12   O5    A    
C24   H16   S    
C24   C25   D    
C1    C24   S    
C1    O4    A    
O8    Zn2   S    
C4    C8    A    
C5    C7    A    
C6    H13   S    
C1    O1    A    
C6    C8    A    
C18   H5    S    
C6    C15   A    
C19   O2    S    
C17   C20   A    
C2    O7    A    
C3    C26   S    
O3    Zn2   S    
I2    N2    S    
C16   C17   A    
C10   H10   S    
C19   H8    S    
