data_mof_unit_5228.cif
_audit_creation_date              2012-12-11T15:17:39-0500
_audit_creation_method            fapswitch 2.2
_symmetry_space_group_name_H-M    P1
_symmetry_Int_Tables_number       1
_space_group_crystal_system       triclinic
_cell_length_a                    6.930984
_cell_length_b                    19.994148
_cell_length_c                    22.438449
_cell_angle_alpha                 90.0
_cell_angle_beta                  90.008096
_cell_angle_gamma                 90.000024
_cell_volume                      3109.50048289

loop_
_atom_site_label
_atom_site_type_symbol
_atom_type_description
_atom_site_fract_x
_atom_site_fract_y
_atom_site_fract_z
_atom_type_partial_charge
O1    O     O_R   0.620180 0.810610 0.187990 -0.539269
O2    O     O_R   0.379820 0.189390 0.812010 -0.539269
O3    O     O_R   0.379820 0.189390 0.687990 -0.539299
O4    O     O_R   0.620180 0.810610 0.312010 -0.539299
O5    O     O_R   0.120180 0.689390 0.312010 -0.539298
O6    O     O_R   0.879820 0.310610 0.687990 -0.539299
O7    O     O_R   0.879820 0.310610 0.812010 -0.539269
O8    O     O_R   0.120180 0.689390 0.187990 -0.539269
O9    O     O_R   0.290420 0.818570 0.311590 -0.541663
O10   O     O_R   0.709580 0.181430 0.688410 -0.541663
O11   O     O_R   0.709580 0.181430 0.811590 -0.543532
O12   O     O_R   0.290420 0.818570 0.188410 -0.543532
O13   O     O_R   0.790420 0.681430 0.188410 -0.543532
O14   O     O_R   0.209580 0.318570 0.811590 -0.543532
O15   O     O_R   0.209580 0.318570 0.688410 -0.541663
O16   O     O_R   0.790420 0.681430 0.311590 -0.541663
H1    H     H_    0.599193 0.516601 0.599659 0.136832
H2    H     H_    0.400808 0.483399 0.400341 0.136831
H3    H     H_    0.576352 0.473430 0.088354 0.136841
H4    H     H_    0.423644 0.526572 0.911645 0.136839
H5    H     H_    0.923642 0.973428 0.911644 0.136840
H6    H     H_    0.076357 0.026572 0.088356 0.136839
H7    H     H_    0.900808 0.016601 0.400341 0.136831
H8    H     H_    0.099192 0.983399 0.599659 0.136831
C1    C     C_R   0.459373 0.834683 0.332215 0.706117
C2    C     C_R   0.540627 0.165317 0.667784 0.706117
C3    C     C_R   0.540576 0.165509 0.832381 0.703059
C4    C     C_R   0.459424 0.834491 0.167619 0.703059
C5    C     C_R   0.959424 0.665509 0.167619 0.703059
C6    C     C_R   0.040576 0.334491 0.832381 0.703059
C7    C     C_R   0.040627 0.334683 0.667784 0.706117
C8    C     C_R   0.959373 0.665317 0.332215 0.706117
H9    H     H_    0.760723 0.426303 0.647634 0.121616
H10   H     H_    0.239277 0.573697 0.352366 0.121616
H11   H     H_    0.705262 0.566871 0.140549 0.119754
H12   H     H_    0.294738 0.433128 0.859451 0.119755
H13   H     H_    0.794736 0.066871 0.859450 0.119754
H14   H     H_    0.205264 0.933129 0.140550 0.119754
H15   H     H_    0.739278 0.926303 0.352366 0.121616
H16   H     H_    0.260722 0.073697 0.647633 0.121616
H17   H     H_    0.294540 0.351704 0.579249 0.116105
H18   H     H_    0.705460 0.648295 0.420750 0.116105
H19   H     H_    0.237086 0.655829 0.085319 0.117334
H20   H     H_    0.762914 0.344171 0.914681 0.117333
H21   H     H_    0.262916 0.155830 0.914682 0.117333
H22   H     H_    0.737084 0.844170 0.085318 0.117333
H23   H     H_    0.205460 0.851704 0.420750 0.116106
H24   H     H_    0.794539 0.148296 0.579249 0.116106
O17   O     O_3   0.453640 0.707610 0.250000 -0.368557
O18   O     O_3   0.546360 0.292390 0.750000 -0.368557
O19   O     O_3   0.953640 0.792390 0.250000 -0.368557
O20   O     O_3   0.046360 0.207610 0.750000 -0.368557
V1    V     V_3+5 0.178800 0.757860 0.250000 1.392232
V2    V     V_3+5 0.821200 0.242140 0.750000 1.392232
V3    V     V_3+5 0.678800 0.742140 0.250000 1.392232
V4    V     V_3+5 0.321200 0.257860 0.750000 1.392232
C9    C     C_R   0.175923 0.386511 0.575103 -0.227831
C10   C     C_R   0.824077 0.613489 0.424896 -0.227831
C11   C     C_R   0.128010 0.617954 0.078485 -0.220624
C12   C     C_R   0.871990 0.382045 0.921516 -0.220620
C13   C     C_R   0.371991 0.117955 0.921516 -0.220622
C14   C     C_R   0.628009 0.882045 0.078484 -0.220623
C15   C     C_R   0.324077 0.886511 0.424896 -0.227830
C16   C     C_R   0.675923 0.113489 0.575103 -0.227831
C17   C     C_R   0.030334 0.384052 0.618494 -0.071424
C18   C     C_R   0.969666 0.615948 0.381506 -0.071424
C19   C     C_R   0.970964 0.616507 0.118037 -0.073506
C20   C     C_R   0.029037 0.383492 0.881963 -0.073506
C21   C     C_R   0.529036 0.116507 0.881963 -0.073506
C22   C     C_R   0.470964 0.883493 0.118037 -0.073506
C23   C     C_R   0.469666 0.884052 0.381506 -0.071425
C24   C     C_R   0.530334 0.115948 0.618494 -0.071425
C25   C     C_R   0.873371 0.427957 0.614124 -0.216223
C26   C     C_R   0.126629 0.572043 0.385876 -0.216223
C27   C     C_R   0.826505 0.568380 0.110036 -0.216507
C28   C     C_R   0.173495 0.431619 0.889964 -0.216509
C29   C     C_R   0.673493 0.068380 0.889963 -0.216507
C30   C     C_R   0.326506 0.931620 0.110037 -0.216507
C31   C     C_R   0.626629 0.927957 0.385876 -0.216223
C32   C     C_R   0.373371 0.072043 0.614124 -0.216222
C33   C     C_R   0.862209 0.474738 0.567585 0.061392
C34   C     C_R   0.137791 0.525262 0.432415 0.061391
C35   C     C_R   0.838443 0.521612 0.063509 0.070084
C36   C     C_R   0.161558 0.478387 0.936491 0.070082
C37   C     C_R   0.661556 0.021612 0.936491 0.070084
C38   C     C_R   0.338444 0.978388 0.063509 0.070085
C39   C     C_R   0.637791 0.974738 0.432415 0.061393
C40   C     C_R   0.362209 0.025262 0.567585 0.061393
C41   C     C_R   0.007165 0.476627 0.523524 0.024487
C42   C     C_R   0.992835 0.523373 0.476475 0.024487
C43   C     C_R   0.995520 0.523418 0.023533 0.014703
C44   C     C_R   0.004482 0.476581 0.976467 0.014702
C45   C     C_R   0.504481 0.023418 0.976467 0.014701
C46   C     C_R   0.495519 0.976582 0.023533 0.014702
C47   C     C_R   0.492835 0.976627 0.476475 0.024486
C48   C     C_R   0.507165 0.023373 0.523524 0.024486
C49   C     C_R   0.165940 0.431745 0.526639 0.037095
C50   C     C_R   0.834059 0.568255 0.473361 0.037095
C51   C     C_R   0.142462 0.572309 0.030526 0.039274
C52   C     C_R   0.857540 0.427690 0.969475 0.039273
C53   C     C_R   0.357539 0.072309 0.969474 0.039273
C54   C     C_R   0.642461 0.927691 0.030526 0.039273
C55   C     C_R   0.334060 0.931745 0.473361 0.037095
C56   C     C_R   0.665940 0.068255 0.526639 0.037095
C57   C     C_R   0.706872 0.519457 0.564913 -0.183533
C58   C     C_R   0.293128 0.480543 0.435087 -0.183533
C59   C     C_R   0.694067 0.473233 0.056764 -0.175477
C60   C     C_R   0.305933 0.526767 0.943235 -0.175475
C61   C     C_R   0.805931 0.973233 0.943235 -0.175476
C62   C     C_R   0.194069 0.026767 0.056765 -0.175477
C63   C     C_R   0.793128 0.019457 0.435087 -0.183533
C64   C     C_R   0.206872 0.980543 0.564912 -0.183533
C65   C     C_R   0.690124 0.566899 0.518624 0.133868
C66   C     C_R   0.309876 0.433101 0.481376 0.133868
C67   C     C_R   0.700939 0.425458 0.010536 0.124135
C68   C     C_R   0.299064 0.574541 0.989465 0.124137
C69   C     C_R   0.799063 0.925458 0.989464 0.124136
C70   C     C_R   0.200938 0.074542 0.010536 0.124135
C71   C     C_R   0.809876 0.066899 0.481376 0.133868
C72   C     C_R   0.190124 0.933101 0.518624 0.133868
C73   C     C_3   0.523038 0.616760 0.517066 -0.348986
C74   C     C_3   0.376804 0.612281 0.567981 -0.756584
H25   H     H_    0.307360 0.562330 0.568830 0.233441
H26   H     H_    0.447992 0.622486 0.611385 0.222273
H27   H     H_    0.262106 0.650307 0.561147 0.220332
H28   H     H_    0.583644 0.668230 0.517582 0.174248
H29   H     H_    0.442610 0.610139 0.474710 0.187994
C75   C     C_3   0.476961 0.383240 0.482933 -0.348986
C76   C     C_3   0.623196 0.387719 0.432019 -0.756582
H30   H     H_    0.552007 0.377514 0.388615 0.222273
H31   H     H_    0.692641 0.437670 0.431170 0.233441
H32   H     H_    0.737893 0.349692 0.438852 0.220331
H33   H     H_    0.557389 0.389861 0.525290 0.187994
H34   H     H_    0.416354 0.331770 0.482418 0.174248
C77   C     C_3   0.545373 0.371685 0.004584 -0.349693
C78   C     C_3   0.385299 0.372159 0.051553 -0.752623
H35   H     H_    0.446517 0.363368 0.096622 0.221802
H36   H     H_    0.305737 0.420283 0.050739 0.233295
H37   H     H_    0.280949 0.331461 0.041736 0.218569
H38   H     H_    0.475792 0.376769 0.960264 0.185257
H39   H     H_    0.615783 0.321783 0.006670 0.173191
C79   C     C_3   0.454635 0.628312 0.995419 -0.349693
C80   C     C_3   0.614725 0.627832 0.948455 -0.752628
H40   H     H_    0.694256 0.579702 0.949266 0.233296
H41   H     H_    0.553529 0.636634 0.903385 0.221802
H42   H     H_    0.719098 0.668520 0.958280 0.218573
H43   H     H_    0.384234 0.678215 0.993329 0.173191
H44   H     H_    0.524204 0.623227 0.039741 0.185257
C81   C     C_3   0.954634 0.871688 0.995418 -0.349692
C82   C     C_3   0.114722 0.872167 0.948454 -0.752627
H45   H     H_    0.053525 0.863367 0.903384 0.221802
H46   H     H_    0.194257 0.920296 0.949266 0.233296
H47   H     H_    0.219094 0.831479 0.958279 0.218573
H48   H     H_    0.024203 0.876773 0.039740 0.185257
H49   H     H_    0.884233 0.821785 0.993329 0.173191
C83   C     C_3   0.045369 0.128313 0.004582 -0.349692
C84   C     C_3   0.885282 0.127834 0.051547 -0.752620
H50   H     H_    0.805741 0.079706 0.050734 0.233295
H51   H     H_    0.946484 0.136632 0.096617 0.221801
H52   H     H_    0.780915 0.168526 0.041725 0.218571
H53   H     H_    0.115772 0.178216 0.006671 0.173190
H54   H     H_    0.975797 0.123229 0.960261 0.185256
C85   C     C_3   0.976961 0.116761 0.482933 -0.348986
C86   C     C_3   0.123197 0.112281 0.432019 -0.756583
H55   H     H_    0.192642 0.062330 0.431171 0.233442
H56   H     H_    0.052010 0.122484 0.388615 0.222273
H57   H     H_    0.237893 0.150308 0.438852 0.220332
H58   H     H_    0.916354 0.168230 0.482417 0.174249
H59   H     H_    0.057387 0.110140 0.525290 0.187994
C87   C     C_3   0.023038 0.883240 0.517066 -0.348989
C88   C     C_3   0.876801 0.887720 0.567980 -0.756586
H60   H     H_    0.947987 0.877515 0.611385 0.222273
H61   H     H_    0.807360 0.937671 0.568828 0.233442
H62   H     H_    0.762103 0.849694 0.561146 0.220333
H63   H     H_    0.942612 0.889860 0.474710 0.187994
H64   H     H_    0.083644 0.831770 0.517583 0.174249

loop_
_geom_bond_atom_site_label_1
_geom_bond_atom_site_label_2
_ccdc_geom_bond_type
C80   H42   S    
O14   V4    S    
C88   H60   S    
C40   C48   A    
C45   C46   A    
C14   C54   A    
C22   C30   A    
C11   C51   A    
C21   C29   A    
C47   C48   A    
H8    C64   S    
C60   C68   A    
C72   C87   S    
C75   C76   S    
C62   C70   A    
C23   C31   A    
O4    C1    A    
O9    C1    A    
C77   C78   S    
C87   H64   S    
C88   H61   S    
H11   C27   S    
O18   V2    S    
C58   C66   A    
C53   C70   A    
C57   C65   A    
C86   H55   S    
C38   C62   A    
C26   C34   A    
C73   H29   S    
C75   H34   S    
H23   C15   S    
H24   C16   S    
C39   C63   A    
C87   C88   S    
C80   H40   S    
C18   C26   A    
C17   C25   A    
C14   C22   A    
C16   C56   A    
C25   C33   A    
H12   C28   S    
C11   C19   A    
C5    C19   S    
C37   C45   A    
C10   C18   A    
C84   H50   S    
C55   C72   A    
C47   C55   A    
H6    C62   S    
C82   H47   S    
C10   C50   A    
O1    C4    A    
H16   C32   S    
C70   C83   S    
O2    C3    A    
C1    C23   S    
C15   C55   A    
C38   C46   A    
O12   V1    S    
C3    C21   S    
H19   C11   S    
C76   H32   S    
C33   C41   A    
C30   C38   A    
C34   C58   A    
O6    C7    A    
C83   H54   S    
C84   H51   S    
O7    C6    A    
H18   C10   S    
C52   C67   A    
O6    V2    S    
C78   H37   S    
C85   H59   S    
C31   C39   A    
O20   V2    S    
C87   H63   S    
C86   H57   S    
C77   H38   S    
C88   H62   S    
C33   C57   A    
C28   C36   A    
C61   C69   A    
C79   H44   S    
C78   H36   S    
C71   C85   S    
C51   C68   A    
C64   C72   A    
C7    C17   S    
C50   C65   A    
H14   C30   S    
O17   V3    S    
H13   C29   S    
O5    C8    A    
O18   V4    S    
C41   C49   A    
O19   V1    S    
H15   C31   S    
C13   C53   A    
C81   H48   S    
H2    C58   S    
H1    C57   S    
C66   C75   S    
O3    V4    S    
O11   C3    A    
C9    C49   A    
O10   C2    A    
C65   C73   S    
O8    C5    A    
C2    C24   S    
O11   V2    S    
C59   C67   A    
C73   C74   S    
C81   H49   S    
C54   C69   A    
H10   C26   S    
C68   C79   S    
C63   C71   A    
H9    C25   S    
H22   C14   S    
C83   H53   S    
C84   H52   S    
C48   C56   A    
O4    V3    S    
C82   H46   S    
O9    V1    S    
O13   C5    A    
C45   C53   A    
C41   C42   A    
C43   C44   A    
H7    C63   S    
C44   C52   A    
C8    C18   S    
C76   H30   S    
C13   C21   A    
C80   H41   S    
C39   C47   A    
C83   C84   S    
C79   C80   S    
C79   H43   S    
O3    C2    A    
C4    C22   S    
C15   C23   A    
C78   H35   S    
C12   C52   A    
O8    V1    S    
H5    C61   S    
O15   C7    A    
C6    C20   S    
O16   C8    A    
C35   C43   A    
C37   C61   A    
C34   C42   A    
C12   C20   A    
O15   V4    S    
C56   C71   A    
C74   H27   S    
C86   H56   S    
C85   H58   S    
O5    V1    S    
O16   V3    S    
H17   C9    S    
C73   H28   S    
C32   C40   A    
O2    V4    S    
C75   H33   S    
C20   C28   A    
C27   C35   A    
C67   C77   S    
H20   C12   S    
O17   V1    S    
C9    C17   A    
H21   C13   S    
C36   C60   A    
C35   C59   A    
O19   V3    S    
C16   C24   A    
O1    V3    S    
O10   V2    S    
O13   V3    S    
C85   C86   S    
C29   C37   A    
C40   C64   A    
C77   H39   S    
C19   C27   A    
O12   C4    A    
C24   C32   A    
C74   H25   S    
C82   H45   S    
C69   C81   S    
C36   C44   A    
O7    V2    S    
C43   C51   A    
C49   C66   A    
C81   C82   S    
C74   H26   S    
C42   C50   A    
O14   C6    A    
O20   V4    S    
C46   C54   A    
H4    C60   S    
C76   H31   S    
H3    C59   S    
