data_mof_unit_32923.cif
_audit_creation_date              2012-12-10T17:44:36-0500
_audit_creation_method            fapswitch 2.2
_symmetry_space_group_name_H-M    P1
_symmetry_Int_Tables_number       1
_space_group_crystal_system       triclinic
_cell_length_a                    9.956036
_cell_length_b                    10.728888
_cell_length_c                    15.525925
_cell_angle_alpha                 92.659193
_cell_angle_beta                  67.45845
_cell_angle_gamma                 88.327721
_cell_volume                      1528.10078737

loop_
_atom_site_label
_atom_site_type_symbol
_atom_type_description
_atom_site_fract_x
_atom_site_fract_y
_atom_site_fract_z
_atom_type_partial_charge
C1    C     C_R   0.496995 0.740571 0.499532 0.901887
C2    C     C_R   0.740662 0.504710 0.028968 0.173613
C3    C     C_R   0.594572 0.543303 0.085651 0.095133
C4    C     C_R   0.408575 0.500336 0.675888 0.871062
C5    C     C_R   0.840713 0.476644 0.069895 -0.219330
C6    C     C_R   0.795020 0.479472 0.166805 -0.202105
C7    C     C_R   0.551530 0.544635 0.182470 -0.265504
C8    C     C_R   0.214316 0.902177 0.555372 -0.191738
C9    C     C_R   0.087192 0.974180 0.606922 -0.152615
C10   C     C_R   0.095696 0.093275 0.642599 -0.141176
C11   C     C_R   0.230902 0.144434 0.619256 -0.153564
C12   C     C_R   0.424517 0.542447 0.909882 0.088808
C13   C     C_R   0.359705 0.075226 0.560911 0.101634
C14   C     C_R   0.353833 0.947908 0.539174 0.098549
C15   C     C_R   0.488514 0.875092 0.500993 -0.129047
C16   C     C_R   0.497807 0.261644 0.507023 0.865562
C17   C     C_R   0.621633 0.932428 0.472344 -0.194525
C18   C     C_R   0.624246 0.059745 0.478857 -0.219239
C19   C     C_R   0.493994 0.130928 0.520266 -0.121524
C20   C     C_R   0.781046 0.655002 0.642876 0.474246
C21   C     C_R   0.815328 0.708687 0.715913 -0.299241
C22   C     C_R   0.954876 0.701883 0.712267 -0.277052
C23   C     C_R   0.283728 0.596432 0.963777 0.177914
C24   C     C_R   0.062399 0.639869 0.636732 -0.196376
C25   C     C_R   0.031748 0.570052 0.568446 0.086028
C26   C     C_R   0.886461 0.573423 0.569427 0.112035
C27   C     C_R   0.969545 0.431496 0.435009 -0.144333
C28   C     C_R   0.591460 0.501503 0.324229 0.866036
C29   C     C_R   0.112243 0.431892 0.434882 -0.093901
C30   C     C_R   0.352893 0.515844 0.777567 -0.058153
C31   C     C_R   0.648825 0.509678 0.223032 -0.057709
C32   C     C_R   0.179242 0.608827 0.923967 -0.223020
C33   C     C_R   0.214548 0.570324 0.830514 -0.224915
C34   C     C_R   0.533169 0.537166 0.947946 0.061311
C35   C     C_R   0.451964 0.494461 0.819406 -0.248037
C36   C     C_R   0.492828 0.569183 0.044326 0.068927
C37   C     C_R   0.351934 0.624626 0.096194 -0.233961
C38   C     C_R   0.249875 0.638816 0.056069 -0.243977
C39   C     C_R   0.681204 0.503356 0.892592 -0.226090
C40   C     C_R   0.783550 0.490205 0.932512 -0.242689
H1    H     H_    0.143459 0.682138 0.097823 0.150452
H2    H     H_    0.734976 0.765401 0.773025 0.157989
H3    H     H_    0.439529 0.565328 0.227916 0.158965
H4    H     H_    0.981725 0.752484 0.765050 0.178375
H5    H     H_    0.170289 0.653916 0.631236 0.222977
H6    H     H_    0.199036 0.375821 0.381485 0.149421
H7    H     H_    0.872083 0.453299 0.197432 0.154836
H8    H     H_    0.895463 0.463237 0.887954 0.152718
H9    H     H_    0.072216 0.652042 0.964157 0.146489
H10   H     H_    0.136289 0.587008 0.799140 0.157843
H11   H     H_    0.552329 0.442320 0.778625 0.148540
H12   H     H_    0.952575 0.447460 0.027037 0.150267
H13   H     H_    0.318802 0.662055 0.167359 0.147848
H14   H     H_    0.722367 0.489052 0.817607 0.157910
H15   H     H_    0.592639 0.749681 0.696390 0.311263
H16   H     H_    0.724673 0.878831 0.441674 0.169360
H17   H     H_    0.198559 0.815726 0.524008 0.180560
H18   H     H_    0.981794 0.937438 0.619016 0.158677
H19   H     H_    0.997400 0.147956 0.684997 0.137258
H20   H     H_    0.233915 0.238541 0.646534 0.150041
H21   H     H_    0.728111 0.102550 0.448938 0.166816
H22   H     H_    0.949710 0.375271 0.381830 0.137363
N1    N     N_R   0.856800 0.501200 0.500850 -0.103803
N2    N     N_R   0.142390 0.501280 0.500880 -0.111810
O1    O     O_R   0.385310 0.683220 0.500000 -0.664047
O2    O     O_R   0.614640 0.683250 0.500010 -0.537994
O3    O     O_R   0.319840 0.499980 0.632240 -0.653041
O4    O     O_R   0.549160 0.500000 0.632250 -0.559958
O5    O     O_R   0.385360 0.316750 0.499990 -0.611149
O6    O     O_R   0.614690 0.316780 0.500000 -0.622638
O7    O     O_R   0.450840 0.500000 0.367750 -0.616698
O8    O     O_R   0.680160 0.500020 0.367760 -0.620283
O9    O     O_3   0.651423 0.695285 0.640205 -0.724654
Zn1   Zn    Zn3+2 0.346880 0.499980 0.499990 0.923302
Zn2   Zn    Zn3+2 0.653120 0.500020 0.500010 0.973881

loop_
_geom_bond_atom_site_label_1
_geom_bond_atom_site_label_2
_ccdc_geom_bond_type
C27   C29   A    
O4    Zn2   S    
C12   C23   A    
N1    Zn2   S    
C30   C35   A    
C24   H5    S    
C36   C37   A    
C18   C19   A    
C3    C7    A    
C5    C6    A    
C39   H14   S    
C40   H8    S    
C9    H18   S    
C22   H4    S    
C8    C9    A    
C1    O1    A    
C5    H12   S    
C1    C15   S    
C7    H3    S    
C9    C10   A    
C37   H13   S    
C6    C31   A    
C29   N2    A    
C13   C14   A    
C28   O8    A    
O8    Zn2   S    
C1    O2    A    
C7    C31   A    
C6    H7    S    
C13   C19   A    
C34   C39   A    
C16   O6    A    
C24   C25   A    
C38   H1    S    
C39   C40   A    
C4    O4    A    
C25   C26   A    
O1    Zn1   S    
C25   N2    A    
H15   O9    S    
C26   N1    A    
C37   C38   A    
C27   H22   S    
C8    H17   S    
C4    O3    A    
C17   C18   A    
O5    Zn1   S    
O3    Zn1   S    
C12   C35   A    
C17   H16   S    
C27   N1    A    
C35   H11   S    
C22   C24   A    
C2    C5    A    
C12   C34   A    
C11   H20   S    
C15   C17   A    
C8    C14   A    
C30   C33   A    
C28   C31   S    
C16   O5    A    
O7    Zn1   S    
C18   H21   S    
C23   C38   A    
C29   H6    S    
C23   C32   A    
C2    C3    A    
C33   H10   S    
C32   C33   A    
C11   C13   A    
C20   C26   A    
C3    C36   A    
C16   C19   S    
O2    Zn2   S    
C20   O9    S    
C10   H19   S    
C34   C36   A    
C32   H9    S    
C10   C11   A    
C21   H2    S    
C28   O7    A    
C2    C40   A    
C20   C21   A    
O6    Zn2   S    
N2    Zn1   S    
C14   C15   A    
C21   C22   A    
C4    C30   S    
