data_mof_unit_67778.cif
_audit_creation_date              2012-12-10T16:52:06-0500
_audit_creation_method            fapswitch 2.2
_symmetry_space_group_name_H-M    P1
_symmetry_Int_Tables_number       1
_space_group_crystal_system       triclinic
_cell_length_a                    7.907607
_cell_length_b                    8.738842
_cell_length_c                    14.868406
_cell_angle_alpha                 90.260861
_cell_angle_beta                  86.892297
_cell_angle_gamma                 91.605734
_cell_volume                      1025.53774291

loop_
_atom_site_label
_atom_site_type_symbol
_atom_type_description
_atom_site_fract_x
_atom_site_fract_y
_atom_site_fract_z
_atom_type_partial_charge
C1    C     C_R   0.543363 0.793158 0.500241 0.835595
C2    C     C_R   0.457022 0.206971 0.502368 0.850766
C3    C     C_R   0.747470 0.677815 0.941883 0.446494
C4    C     C_R   0.365019 0.243264 0.057147 0.485475
C5    C     C_2   0.565140 0.954611 0.511107 0.161129
C6    C     C_2   0.435178 0.045595 0.494457 0.159970
C7    C     C_R   0.502608 0.492245 0.672582 0.861877
C8    C     C_R   0.497488 0.505998 0.327643 0.872012
C9    C     C_R   0.427114 0.384779 0.190731 -0.292745
C10   C     C_R   0.632102 0.570887 0.808244 -0.297597
C11   C     C_R   0.492333 0.513116 0.231839 -0.087688
C12   C     C_R   0.513226 0.476816 0.768216 -0.069625
C13   C     C_R   0.573869 0.633696 0.182598 0.192695
C14   C     C_R   0.414080 0.367643 0.818629 0.152631
C15   C     C_R   0.610088 0.612404 0.088669 0.053146
C16   C     C_R   0.444642 0.352201 0.910962 0.051124
C17   C     C_R   0.529947 0.484426 0.046792 -0.106176
C18   C     C_R   0.538480 0.469860 0.953077 -0.105104
C19   C     C_R   0.437298 0.372161 0.098192 0.006557
C20   C     C_R   0.638684 0.573934 0.900972 -0.017266
C21   C     C_R   0.727797 0.705761 0.035013 0.112356
C22   C     C_R   0.382760 0.226947 0.963560 0.057797
H1    H     H_    0.371452 0.292953 0.232204 0.171682
H2    H     H_    0.708795 0.651764 0.767276 0.176954
N1    N     N_2   0.950330 0.457950 0.475660 0.001316
N2    N     N_2   0.049670 0.542050 0.524340 -0.009691
O1    O     O_R   0.389250 0.738570 0.505970 -0.571068
O2    O     O_R   0.610750 0.261430 0.494030 -0.580162
O3    O     O_R   0.678390 0.711620 0.490370 -0.633625
O4    O     O_R   0.321610 0.288380 0.509630 -0.608572
O5    O     O_R   0.355420 0.513510 0.639950 -0.628855
O6    O     O_R   0.644580 0.486490 0.360050 -0.615139
O7    O     O_R   0.644560 0.486560 0.624350 -0.651611
O8    O     O_R   0.355440 0.513440 0.375650 -0.644780
Zn1   Zn    Zn3+2 0.306940 0.517990 0.510420 0.947546
Zn2   Zn    Zn3+2 0.693060 0.482010 0.489580 0.938514
C23   C     C_3   0.602566 0.784996 0.230141 -0.933392
H3    H     H_    0.547927 0.878900 0.192009 0.260372
H4    H     H_    0.539411 0.788070 0.298276 0.209162
H5    H     H_    0.738048 0.806351 0.239989 0.245870
C24   C     C_3   0.265510 0.285342 0.776864 -0.921053
H6    H     H_    0.310905 0.201535 0.725379 0.238377
H7    H     H_    0.178115 0.227851 0.827223 0.242472
H8    H     H_    0.183707 0.368451 0.745639 0.254172
C25   C     C_3   0.847609 0.822200 0.074263 -0.908098
H9    H     H_    0.777926 0.922583 0.100162 0.246510
H10   H     H_    0.921445 0.767722 0.126193 0.232097
H11   H     H_    0.941778 0.870745 0.023952 0.263049
C26   C     C_3   0.367950 0.069168 0.924222 -0.887995
H12   H     H_    0.232998 0.035918 0.919516 0.244396
H13   H     H_    0.433668 0.064389 0.856641 0.255429
H14   H     H_    0.429706 0.985329 0.966878 0.263638
O9    O     O_3   0.885768 0.739690 0.892271 -0.641055
C27   C     C_3   0.012573 0.627807 0.885731 0.110228
H15   H     H_    0.003801 0.563914 0.821318 0.145909
H16   H     H_    0.001951 0.541279 0.941283 0.088579
C28   C     C_3   0.186812 0.704767 0.890619 -0.335856
H17   H     H_    0.187353 0.785533 0.948104 0.221690
H18   H     H_    0.277923 0.616659 0.904567 0.196830
C29   C     C_3   0.244899 0.783907 0.802891 -0.850218
H19   H     H_    0.378252 0.824827 0.806068 0.242133
H20   H     H_    0.162488 0.880658 0.788801 0.274483
H21   H     H_    0.242415 0.701030 0.747311 0.264477
O10   O     O_3   0.287937 0.128532 0.110123 -0.661777
C30   C     C_3   0.109794 0.132737 0.105222 0.044305
H22   H     H_    0.057045 0.031205 0.142245 0.184099
H23   H     H_    0.069785 0.123190 0.034926 0.149369
C31   C     C_3   0.033450 0.275720 0.149813 -0.419981
H24   H     H_    0.081673 0.290921 0.217777 0.222145
H25   H     H_    0.070045 0.378964 0.109100 0.218099
C32   C     C_3   0.841057 0.261866 0.158458 -0.932629
H26   H     H_    0.788718 0.247854 0.090980 0.272574
H27   H     H_    0.792026 0.367602 0.190291 0.283891
H28   H     H_    0.799279 0.162991 0.201640 0.260759
O11   O     O_3   0.723907 0.013316 0.531917 -0.636709
C33   C     C_3   0.759896 0.977374 0.621667 0.104139
H29   H     H_    0.893825 0.942066 0.620996 0.180808
H30   H     H_    0.680478 0.881151 0.651945 0.089562
C34   C     C_3   0.741126 0.119494 0.681376 -0.325137
H31   H     H_    0.820433 0.215335 0.651526 0.254070
H32   H     H_    0.606814 0.153480 0.684820 0.201290
C35   C     C_3   0.795339 0.089627 0.776549 -0.947531
H33   H     H_    0.720183 0.992256 0.807397 0.283728
H34   H     H_    0.774874 0.193251 0.818848 0.268164
H35   H     H_    0.931746 0.062653 0.774913 0.271095
O12   O     O_3   0.276265 0.988268 0.473934 -0.608842
C36   C     C_3   0.249799 0.015401 0.382049 0.131262
H36   H     H_    0.311884 0.926430 0.339564 0.148102
H37   H     H_    0.300933 0.128774 0.357995 0.065251
C37   C     C_3   0.060176 0.010341 0.368486 -0.377673
H38   H     H_    0.994514 0.082830 0.420181 0.272044
H39   H     H_    0.036073 0.056024 0.301203 0.169578
C38   C     C_3   0.987378 0.848222 0.375590 -0.688705
H40   H     H_    0.040867 0.776785 0.319650 0.209282
H41   H     H_    0.848663 0.851987 0.371337 0.249840
H42   H     H_    0.015010 0.798103 0.441262 0.301176
C39   C     C_3   0.016739 0.408643 0.388942 -0.525683
H43   H     H_    0.918024 0.337904 0.357076 0.191441
H44   H     H_    0.048287 0.508508 0.344921 0.192987
H45   H     H_    0.125430 0.334810 0.395549 0.212082
C40   C     C_3   0.981302 0.596977 0.609432 -0.523622
H46   H     H_    0.075612 0.676300 0.637387 0.182320
H47   H     H_    0.869917 0.666330 0.601201 0.214179
H48   H     H_    0.954981 0.500254 0.656696 0.182514

loop_
_geom_bond_atom_site_label_1
_geom_bond_atom_site_label_2
_ccdc_geom_bond_type
C36   H36   S    
C38   H40   S    
C24   H7    S    
C24   H6    S    
C33   C34   S    
C26   H13   S    
C39   H43   S    
C37   H38   S    
C25   H9    S    
O3    Zn2   S    
C40   H46   S    
O4    Zn1   S    
C29   H21   S    
C1    C5    S    
O6    Zn2   S    
C33   H30   S    
C23   H5    S    
C8    C11   S    
N2    C40   S    
C5    C6    D    
C28   H18   S    
O7    Zn2   S    
C29   H20   S    
O8    Zn1   S    
C4    C19   A    
C9    C19   A    
C10   C20   A    
C31   H24   S    
C30   H23   S    
C13   C23   S    
C30   C31   S    
C38   H41   S    
C3    O9    S    
C7    O7    A    
C2    C6    S    
C39   H44   S    
C21   C25   S    
C25   H10   S    
C7    C12   S    
C27   H16   S    
C7    O5    A    
C8    O6    A    
C33   H29   S    
C34   H32   S    
O12   C36   S    
C9    H1    S    
C28   C29   S    
O1    Zn1   S    
N1    N2    D    
O9    C27   S    
C35   H33   S    
C29   H19   S    
C5    O11   S    
O11   C33   S    
C23   H3    S    
C32   H28   S    
C4    C22   A    
C37   H39   S    
C26   H14   S    
C1    O3    A    
C17   C18   A    
C3    C20   A    
C8    O8    A    
C9    C11   A    
C10   C12   A    
C14   C24   S    
N1    C39   S    
C12   C14   A    
C30   H22   S    
C40   H48   S    
C35   H34   S    
C13   C15   A    
C24   H8    S    
C14   C16   A    
C3    C21   A    
C39   H45   S    
C37   C38   S    
C32   H27   S    
C40   H47   S    
C25   H11   S    
C22   C26   S    
C15   C17   A    
C27   H15   S    
C16   C22   A    
C34   C35   S    
C38   H42   S    
C35   H35   S    
C4    O10   S    
C6    O12   S    
C2    O4    A    
C10   H2    S    
O10   C30   S    
C36   H37   S    
C32   H26   S    
C23   H4    S    
C11   C13   A    
C28   H17   S    
C31   C32   S    
O5    Zn1   S    
C17   C19   A    
C18   C20   A    
N1    Zn2   S    
C34   H31   S    
N2    Zn1   S    
C15   C21   A    
O2    Zn2   S    
C16   C18   A    
C26   H12   S    
C36   C37   S    
C1    O1    A    
C31   H25   S    
C2    O2    A    
C27   C28   S    
