data_mof_unit_63129.cif
_audit_creation_date              2012-12-10T21:32:48-0500
_audit_creation_method            fapswitch 2.2
_symmetry_space_group_name_H-M    P1
_symmetry_Int_Tables_number       1
_space_group_crystal_system       triclinic
_cell_length_a                    11.555545
_cell_length_b                    16.111043
_cell_length_c                    16.940953
_cell_angle_alpha                 87.600864
_cell_angle_beta                  90.129403
_cell_angle_gamma                 92.167875
_cell_volume                      3148.90850684

loop_
_atom_site_label
_atom_site_type_symbol
_atom_type_description
_atom_site_fract_x
_atom_site_fract_y
_atom_site_fract_z
_atom_type_partial_charge
C1    C     C_R   0.501534 0.488778 0.652701 0.904639
C2    C     C_R   0.499366 0.511209 0.347270 0.904441
C3    C     C_R   0.491678 0.404668 0.778352 -0.253483
C4    C     C_R   0.519359 0.594981 0.221808 -0.253153
C5    C     C_R   0.449059 0.763474 0.458599 -0.020946
C6    C     C_R   0.550860 0.236527 0.541453 -0.020872
C7    C     C_R   0.451958 0.850605 0.461104 -0.327826
C8    C     C_R   0.547974 0.149395 0.538949 -0.327719
C9    C     C_R   0.522625 0.890869 0.517131 0.208190
C10   C     C_R   0.477404 0.109132 0.482868 0.208097
C11   C     C_R   0.588362 0.841015 0.568847 0.559601
C12   C     C_R   0.411748 0.158984 0.431101 0.559516
C13   C     C_R   0.582804 0.754113 0.564217 -0.105585
C14   C     C_R   0.417293 0.245886 0.435729 -0.106096
C15   C     C_R   0.718282 0.499736 0.500016 0.910663
C16   C     C_R   0.281718 0.500264 0.499986 0.911618
C17   C     C_1   0.838613 0.499334 0.500002 -0.163691
C18   C     C_1   0.161385 0.500666 0.500003 -0.164034
C19   C     C_1   0.940708 0.499655 0.500002 0.027599
C20   C     C_1   0.059290 0.500344 0.500005 0.027624
C21   C     C_R   0.511419 0.481564 0.737938 -0.108704
C22   C     C_R   0.496100 0.518261 0.261783 -0.108943
C23   C     C_R   0.543670 0.552173 0.779243 -0.206807
C24   C     C_R   0.469998 0.447155 0.219614 -0.206759
C25   C     C_R   0.551699 0.546918 0.860466 -0.185010
C26   C     C_R   0.471066 0.451814 0.138224 -0.185185
C27   C     C_R   0.525693 0.470873 0.901769 0.242818
C28   C     C_R   0.499745 0.527847 0.097632 0.243207
C29   C     C_R   0.499122 0.399231 0.860273 0.395863
C30   C     C_R   0.520848 0.599862 0.139712 0.395891
H1    H     H_    0.449269 0.387638 0.249396 0.189301
H2    H     H_    0.562371 0.611714 0.748942 0.188701
H3    H     H_    0.450486 0.395712 0.107181 0.208626
H4    H     H_    0.576141 0.602690 0.890969 0.207743
H5    H     H_    0.468510 0.349395 0.746680 0.200727
H6    H     H_    0.538378 0.650554 0.254051 0.200959
H7    H     H_    0.605141 0.267115 0.584408 0.164358
H8    H     H_    0.394703 0.732886 0.415686 0.164330
H9    H     H_    0.600490 0.114371 0.580435 0.216738
H10   H     H_    0.399371 0.885629 0.419662 0.216629
H11   H     H_    0.633664 0.716227 0.604335 0.166113
H12   H     H_    0.366503 0.283772 0.395568 0.166880
N1    N     N_2   0.521205 0.465378 0.984783 -0.136277
N2    N     N_2   0.507556 0.533573 0.014727 -0.135659
N3    N     N_R   0.513820 0.716920 0.509720 -0.122888
N4    N     N_R   0.486180 0.283080 0.490280 -0.122951
N5    N     N_2   0.530519 0.979595 0.523822 -0.108406
N6    N     N_2   0.469516 0.020405 0.476180 -0.108441
O1    O     O_R   0.495050 0.422540 0.612660 -0.622978
O2    O     O_R   0.504950 0.577460 0.387340 -0.623012
O3    O     O_R   0.503930 0.561840 0.618900 -0.621688
O4    O     O_R   0.496070 0.438160 0.381100 -0.621941
O5    O     O_R   0.661110 0.430350 0.496870 -0.608078
O6    O     O_R   0.338890 0.569650 0.503130 -0.607824
O7    O     O_R   0.669990 0.569650 0.503110 -0.607914
O8    O     O_R   0.330010 0.430350 0.496890 -0.607451
Zn1   Zn    Zn3+2 0.494070 0.406980 0.495830 0.972413
Zn2   Zn    Zn3+2 0.505930 0.593020 0.504170 0.972387
Cl1   Cl    Cl    0.469299 0.302890 0.910254 -0.538829
Cl2   Cl    Cl    0.553498 0.696212 0.090511 -0.537646
F1    F     F_    0.657675 0.876550 0.623746 -0.629437
F2    F     F_    0.342529 0.123448 0.376150 -0.629439

loop_
_geom_bond_atom_site_label_1
_geom_bond_atom_site_label_2
_ccdc_geom_bond_type
C2    C22   S    
C7    H10   S    
C16   O8    A    
C1    C21   S    
C8    H9    S    
C27   N1    S    
C25   C27   A    
C4    C22   A    
C26   H3    S    
C26   C28   A    
C19   C20   S    
C12   F2    S    
C3    H5    S    
C25   H4    S    
C14   H12   S    
C23   H2    S    
C16   O6    A    
C4    H6    S    
C6    H7    S    
C5    C7    A    
C28   C30   A    
C14   N4    A    
C16   C18   S    
C5    N3    A    
C5    H8    S    
C13   N3    A    
C1    O3    A    
C3    C29   A    
C30   Cl2   S    
C2    O4    A    
C10   C12   A    
N4    Zn1   S    
C13   H11   S    
C17   C19   T    
C12   C14   A    
C9    N5    S    
C18   C20   T    
C9    C11   A    
N1    N2    D    
C10   N6    S    
C22   C24   A    
N3    Zn2   S    
C24   H1    S    
C3    C21   A    
O4    Zn1   S    
O2    Zn2   S    
N5    N6    D    
C15   O5    A    
C2    O2    A    
C11   C13   A    
C23   C25   A    
O1    Zn1   S    
O8    Zn1   S    
C8    C10   A    
O6    Zn2   S    
O7    Zn2   S    
O3    Zn2   S    
C27   C29   A    
C7    C9    A    
O5    Zn1   S    
C6    C8    A    
C6    N4    A    
C15   C17   S    
C1    O1    A    
C21   C23   A    
C28   N2    S    
C4    C30   A    
C29   Cl1   S    
C24   C26   A    
C11   F1    S    
C15   O7    A    
