data_mof_unit_35504.cif
_audit_creation_date              2012-12-10T18:32:54-0500
_audit_creation_method            fapswitch 2.2
_symmetry_space_group_name_H-M    P1
_symmetry_Int_Tables_number       1
_space_group_crystal_system       triclinic
_cell_length_a                    14.996705
_cell_length_b                    15.455555
_cell_length_c                    15.735584
_cell_angle_alpha                 91.244501
_cell_angle_beta                  104.428675
_cell_angle_gamma                 80.692269
_cell_volume                      3485.02843817

loop_
_atom_site_label
_atom_site_type_symbol
_atom_type_description
_atom_site_fract_x
_atom_site_fract_y
_atom_site_fract_z
_atom_type_partial_charge
C1    C     C_R   0.440970 0.662345 0.486187 0.868255
C2    C     C_R   0.597714 0.243062 0.520872 -0.120333
C3    C     C_R   0.290979 0.872090 0.381025 0.111210
C4    C     C_R   0.501064 0.500447 0.661546 0.892825
C5    C     C_R   0.315842 0.784540 0.411953 -0.241553
C6    C     C_R   0.468270 0.813171 0.488430 -0.256585
C7    C     C_R   0.450007 0.896876 0.450782 0.061126
C8    C     C_R   0.358748 0.928665 0.400346 0.149695
C9    C     C_R   0.520295 0.950363 0.465967 0.087590
C10   C     C_R   0.495400 0.040983 0.445321 0.092489
C11   C     C_R   0.403602 0.071957 0.394868 -0.237954
C12   C     C_3   0.396731 0.516213 0.022798 -0.399545
C13   C     C_R   0.337451 0.016239 0.371306 -0.230465
C14   C     C_R   0.615084 0.915382 0.501010 -0.256579
C15   C     C_R   0.680415 0.969620 0.531143 -0.215327
C16   C     C_R   0.559449 0.337464 0.514154 0.863209
C17   C     C_R   0.653612 0.060598 0.527468 0.140110
C18   C     C_R   0.562280 0.096952 0.479737 0.051128
C19   C     C_R   0.715864 0.114705 0.573883 0.069042
C20   C     C_R   0.687113 0.206833 0.573863 0.054069
C21   C     C_R   0.538711 0.188001 0.473518 -0.296901
C22   C     C_R   0.856952 0.610481 0.648192 0.036131
C23   C     C_3   0.497541 0.502276 0.082075 0.352714
C24   C     C_R   0.762346 0.603386 0.619595 0.188600
C25   C     C_R   0.790308 0.513657 0.501119 -0.095727
C26   C     C_R   0.887261 0.512555 0.530961 -0.067826
C27   C     C_R   0.920382 0.552687 0.612592 0.077107
C28   C     C_R   0.498860 0.499728 0.338420 0.908590
C29   C     C_R   0.953292 0.470551 0.485644 0.086058
C30   C     C_R   0.049166 0.470090 0.524716 0.050561
C31   C     C_R   0.076781 0.482889 0.614931 -0.284217
C32   C     C_R   0.013975 0.526148 0.659130 0.087942
C33   C     C_R   0.928985 0.429263 0.404019 -0.231529
C34   C     C_3   0.549049 0.412996 0.059205 -0.461757
C35   C     C_R   0.998145 0.391371 0.362879 -0.208494
C36   C     C_R   0.091146 0.402832 0.396773 0.152010
C37   C     C_R   0.115551 0.449817 0.474637 0.003658
C38   C     C_R   0.159490 0.371177 0.352560 -0.330287
C39   C     C_R   0.249092 0.391413 0.383206 -0.009020
C40   C     C_3   0.399191 0.519040 0.925410 -0.406593
C41   C     C_R   0.202460 0.481447 0.494429 0.165852
C42   C     C_3   0.552115 0.576377 0.965582 -0.446849
C43   C     C_3   0.550862 0.575882 0.064021 -0.033642
C44   C     C_1   0.496195 0.499947 0.248766 -0.187587
C45   C     C_3   0.551021 0.413235 0.961572 -0.398593
C46   C     C_3   0.501525 0.502789 0.917640 0.352719
C47   C     C_3   0.748520 0.263001 0.635592 -0.399195
C48   C     C_3   0.821978 0.291773 0.594384 -0.306477
C49   C     C_3   0.891144 0.336464 0.661716 -0.875354
C50   C     C_3   0.216200 0.563655 0.548336 -0.390012
C51   C     C_3   0.147501 0.644392 0.504534 -0.367018
C52   C     C_3   0.165405 0.727172 0.556334 -0.884700
C53   C     C_3   0.887208 0.680796 0.713782 -0.372895
C54   C     C_3   0.844563 0.773712 0.676644 -0.360530
C55   C     C_3   0.877362 0.843055 0.742445 -0.895173
C56   C     C_1   0.495809 0.500784 0.173281 -0.089513
C57   C     C_1   0.503158 0.502477 0.826473 -0.117070
C58   C     C_1   0.503134 0.501723 0.751054 -0.200645
C59   C     C_R   0.405088 0.755204 0.465075 -0.088839
H1    H     H_    0.355279 0.577697 0.039332 0.169670
H2    H     H_    0.363079 0.584043 0.895687 0.163501
H3    H     H_    0.380418 0.138671 0.371218 0.142037
H4    H     H_    0.640603 0.845728 0.506004 0.149843
H5    H     H_    0.302547 0.366165 0.349857 0.139832
H6    H     H_    0.978055 0.357400 0.301825 0.140219
H7    H     H_    0.760868 0.477780 0.444434 0.140558
H8    H     H_    0.625714 0.565931 0.960193 0.155416
H9    H     H_    0.147096 0.457688 0.651721 0.145726
H10   H     H_    0.857765 0.424086 0.371465 0.135056
H11   H     H_    0.143648 0.331921 0.294487 0.145322
H12   H     H_    0.360590 0.468333 0.888974 0.167959
H13   H     H_    0.518272 0.640923 0.933370 0.166813
H14   H     H_    0.624394 0.560343 0.103925 0.140449
H15   H     H_    0.515717 0.359465 0.927522 0.173619
H16   H     H_    0.624658 0.400286 0.956327 0.166906
H17   H     H_    0.513429 0.358678 0.072295 0.178305
H18   H     H_    0.854919 0.398015 0.683838 0.266977
H19   H     H_    0.925153 0.292259 0.719370 0.250318
H20   H     H_    0.946340 0.352128 0.631794 0.261037
H21   H     H_    0.861403 0.234806 0.568453 0.206763
H22   H     H_    0.787621 0.337459 0.538235 0.238991
H23   H     H_    0.360538 0.461555 0.033807 0.166149
H24   H     H_    0.706225 0.321012 0.657035 0.210831
H25   H     H_    0.783669 0.226695 0.698024 0.184380
H26   H     H_    0.155474 0.855667 0.327267 0.181534
H27   H     H_    0.203384 0.910411 0.264007 0.173261
H28   H     H_    0.858563 0.099509 0.608720 0.193156
H29   H     H_    0.808527 0.083410 0.692543 0.178896
H30   H     H_    0.064480 0.469486 0.779734 0.188925
H31   H     H_    0.101187 0.565104 0.767620 0.171487
H32   H     H_    0.154780 0.720760 0.623166 0.259912
H33   H     H_    0.237764 0.738858 0.561812 0.265992
H34   H     H_    0.621763 0.400282 0.101054 0.165616
H35   H     H_    0.116056 0.784520 0.522141 0.255090
H36   H     H_    0.155028 0.653489 0.436931 0.220109
H37   H     H_    0.074500 0.635464 0.499910 0.234617
H38   H     H_    0.286011 0.578207 0.555253 0.265117
H39   H     H_    0.214159 0.556356 0.617231 0.176738
H40   H     H_    0.857197 0.833976 0.804572 0.263169
H41   H     H_    0.954327 0.838704 0.756520 0.259739
H42   H     H_    0.844406 0.909354 0.715028 0.260337
H43   H     H_    0.865831 0.783950 0.615245 0.220081
H44   H     H_    0.767262 0.783275 0.660766 0.236467
H45   H     H_    0.268531 0.043155 0.332396 0.165039
H46   H     H_    0.867121 0.669774 0.775599 0.210407
H47   H     H_    0.963525 0.679269 0.729968 0.220782
H48   H     H_    0.639620 0.676980 0.630530 0.212378
H49   H     H_    0.688832 0.597150 0.710897 0.211610
H50   H     H_    0.555700 0.706418 0.087558 0.182064
H51   H     H_    0.447059 0.685108 0.046572 0.190814
H52   H     H_    0.471998 0.218292 0.434300 0.165599
H53   H     H_    0.751421 0.939314 0.560683 0.176027
H54   H     H_    0.266669 0.739217 0.392908 0.158805
H55   H     H_    0.532942 0.791205 0.536212 0.148889
N1    N     N_R   0.731690 0.552720 0.548990 -0.116929
N2    N     N_R   0.268300 0.447240 0.450950 -0.114211
N3    N     N_3   0.198482 0.902855 0.328469 -0.474296
N4    N     N_3   0.805273 0.073807 0.626015 -0.495223
N5    N     N_3   0.043114 0.532913 0.752668 -0.487128
N6    N     N_3   0.701084 0.644209 0.670657 -0.483218
N7    N     N_3   0.510755 0.662094 0.090796 -0.459587
O1    O     O_R   0.383120 0.605620 0.475300 -0.632356
O2    O     O_R   0.531890 0.639510 0.506740 -0.621278
O3    O     O_R   0.425580 0.483050 0.607130 -0.627680
O4    O     O_R   0.574360 0.516930 0.638570 -0.630536
O5    O     O_R   0.468110 0.360490 0.493260 -0.610632
O6    O     O_R   0.616880 0.394380 0.524700 -0.616675
O7    O     O_R   0.425640 0.483070 0.361430 -0.618402
O8    O     O_R   0.574420 0.516950 0.392870 -0.609861
Zn1   Zn    Zn3+2 0.400660 0.477370 0.479010 0.922795
Zn2   Zn    Zn3+2 0.599340 0.522630 0.520990 0.917978

loop_
_geom_bond_atom_site_label_1
_geom_bond_atom_site_label_2
_ccdc_geom_bond_type
C43   H14   S    
C38   H11   S    
C8    C13   A    
C40   H12   S    
C18   C21   A    
H49   N6    S    
C19   C20   A    
C34   H34   S    
C11   H3    S    
C23   C56   S    
N1    Zn2   S    
C53   C54   S    
C48   H22   S    
C40   C46   S    
C39   H5    S    
C12   C23   S    
C26   C27   A    
C4    O4    A    
C36   C37   A    
C1    C59   S    
H51   N7    S    
C30   C31   A    
C35   H6    S    
C29   C33   A    
C23   C43   S    
C49   H19   S    
C4    O3    A    
C15   C17   A    
C28   O8    A    
C42   C46   S    
C44   C56   T    
C1    O1    A    
C6    H55   S    
C3    N3    S    
C17   C19   A    
C53   H47   S    
H30   N5    S    
C19   N4    S    
C55   H41   S    
C52   H35   S    
C47   H24   S    
C2    C16   S    
C9    C10   A    
C43   N7    S    
C33   H10   S    
C51   H37   S    
O2    Zn2   S    
C6    C59   A    
C21   H52   S    
C50   C51   S    
C22   C53   S    
C31   H9    S    
C24   N6    S    
C50   H39   S    
C5    C59   A    
C2    C20   A    
C51   C52   S    
C54   H44   S    
C7    C8    A    
H28   N4    S    
C3    C8    A    
C25   C26   A    
C45   C46   S    
C28   C44   S    
C40   H2    S    
C49   H20   S    
C30   C37   A    
C45   H15   S    
C35   C36   A    
C41   C50   S    
C12   C40   S    
C9    C14   A    
C1    O2    A    
C29   C30   A    
O4    Zn2   S    
C47   C48   S    
C23   C34   S    
C2    C21   A    
C42   H13   S    
C17   C18   A    
O3    Zn1   S    
C34   C45   S    
C47   H25   S    
C13   H45   S    
H26   N3    S    
C24   N1    A    
C48   C49   S    
C22   C27   A    
C46   C57   S    
C42   H8    S    
C22   C24   A    
C52   H33   S    
C34   H17   S    
C42   C43   S    
C41   N2    A    
H29   N4    S    
H48   N6    S    
C7    C9    A    
C54   C55   S    
C50   H38   S    
C5    H54   S    
C27   C32   A    
C15   H53   S    
C54   H43   S    
C31   C32   A    
C25   H7    S    
C3    C5    A    
O7    Zn1   S    
C6    C7    A    
C55   H42   S    
C45   H16   S    
H31   N5    S    
C48   H21   S    
C25   N1    A    
C11   C13   A    
H50   N7    S    
C57   C58   T    
C38   C39   A    
C10   C18   A    
C14   H4    S    
C36   C38   A    
C33   C35   A    
C49   H18   S    
H27   N3    S    
C37   C41   A    
C16   O6    A    
O6    Zn2   S    
C20   C47   S    
C10   C11   A    
C4    C58   S    
C12   H1    S    
C53   H46   S    
C12   H23   S    
N2    Zn1   S    
C26   C29   A    
C39   N2    A    
C55   H40   S    
O5    Zn1   S    
C14   C15   A    
C52   H32   S    
C32   N5    S    
C16   O5    A    
O1    Zn1   S    
C28   O7    A    
C51   H36   S    
O8    Zn2   S    
