data_mof_unit_57525.cif
_audit_creation_date              2012-12-10T17:05:52-0500
_audit_creation_method            fapswitch 2.2
_symmetry_space_group_name_H-M    P1
_symmetry_Int_Tables_number       1
_space_group_crystal_system       triclinic
_cell_length_a                    26.001244
_cell_length_b                    25.908622
_cell_length_c                    18.269646
_cell_angle_alpha                 89.965542
_cell_angle_beta                  135.050668
_cell_angle_gamma                 90.072165
_cell_volume                      8694.98422595

loop_
_atom_site_label
_atom_site_type_symbol
_atom_type_description
_atom_site_fract_x
_atom_site_fract_y
_atom_site_fract_z
_atom_type_partial_charge
C1    C     C_R   0.890208 0.750440 0.779936 0.767400
C2    C     C_R   0.888793 0.251090 0.779886 0.782980
C3    C     C_R   0.390079 0.250230 0.779904 0.782581
C4    C     C_R   0.389128 0.750729 0.779938 0.778274
C5    C     C_R   0.540729 0.793574 0.677416 -0.162196
C6    C     C_R   0.544520 0.239284 0.693502 -0.164810
C7    C     C_R   0.860415 0.299824 0.331069 -0.200033
C8    C     C_R   0.045157 0.744769 0.694490 -0.173033
C9    C     C_R   0.515925 0.774124 0.584558 0.025064
C10   C     C_R   0.520597 0.240217 0.596359 0.014676
C11   C     C_R   0.928691 0.276760 0.412641 0.046163
C12   C     C_R   0.021226 0.742770 0.597486 0.029988
C13   C     C_R   0.555568 0.786372 0.561354 -0.143666
C14   C     C_R   0.567865 0.224201 0.587595 -0.110442
C15   C     C_R   0.983637 0.279202 0.413099 -0.130273
C16   C     C_R   0.069966 0.727602 0.591059 -0.103930
C17   C     C_R   0.549379 0.753817 0.492857 -0.198145
C18   C     C_R   0.552649 0.243633 0.499535 -0.172880
C19   C     C_R   0.051188 0.253534 0.494745 -0.184372
C20   C     C_R   0.053338 0.744313 0.500695 -0.173367
C21   C     C_R   0.490678 0.718632 0.429503 0.504491
C22   C     C_R   0.483528 0.264930 0.414340 0.503649
C23   C     C_R   0.064525 0.229451 0.575867 0.513291
C24   C     C_R   0.983051 0.763065 0.413233 0.508301
C25   C     C_R   0.439740 0.717346 0.434551 -0.323270
C26   C     C_R   0.430986 0.266591 0.416224 -0.305362
C27   C     C_R   0.011499 0.230567 0.576932 -0.297417
C28   C     C_R   0.930273 0.764323 0.414708 -0.313277
C29   C     C_R   0.451687 0.744702 0.511497 -0.131220
C30   C     C_R   0.449234 0.254845 0.506680 -0.121388
C31   C     C_R   0.943584 0.252202 0.495078 -0.091428
C32   C     C_R   0.948990 0.754632 0.506137 -0.117142
C33   C     C_R   0.456699 0.767556 0.108881 -0.156478
C34   C     C_R   0.608043 0.331537 0.108114 -0.185821
C35   C     C_R   0.953372 0.253335 0.107286 -0.130937
C36   C     C_R   0.145963 0.783197 0.107297 -0.175755
C37   C     C_R   0.383981 0.774761 0.054962 -0.126476
C38   C     C_R   0.606601 0.370317 0.053696 -0.148758
C39   C     C_R   0.880031 0.253410 0.052817 -0.137397
C40   C     C_R   0.161835 0.799966 0.052511 -0.138092
C41   C     C_R   0.330370 0.775693 0.947261 -0.165036
C42   C     C_R   0.552678 0.370382 0.945802 -0.157476
C43   C     C_R   0.826781 0.257127 0.945545 -0.161803
C44   C     C_R   0.107280 0.801626 0.944775 -0.160343
C45   C     C_R   0.609189 0.750898 0.220050 0.779321
C46   C     C_R   0.610229 0.249991 0.220107 0.785033
C47   C     C_R   0.108647 0.251299 0.220011 0.802274
C48   C     C_R   0.110396 0.750196 0.220099 0.788486
C49   C     C_R   0.349086 0.769158 0.892778 -0.201581
C50   C     C_R   0.499619 0.331802 0.891541 -0.187436
C51   C     C_R   0.846561 0.259028 0.891953 -0.202056
C52   C     C_R   0.036732 0.785865 0.891079 -0.174353
C53   C     C_R   0.422153 0.760098 0.945578 0.102792
C54   C     C_R   0.500007 0.292175 0.945049 0.099724
C55   C     C_R   0.920448 0.255235 0.945022 0.095345
C56   C     C_R   0.019596 0.768015 0.944801 0.106226
C57   C     C_R   0.476919 0.759733 0.055312 0.088409
C58   C     C_R   0.554992 0.292016 0.054779 0.096905
C59   C     C_R   0.975019 0.253749 0.054685 0.078125
C60   C     C_R   0.074764 0.767173 0.054451 0.095138
C61   C     C_R   0.550540 0.753456 0.107951 -0.073941
C62   C     C_R   0.556143 0.251650 0.107988 -0.060357
C63   C     C_R   0.049334 0.254136 0.107792 -0.082802
C64   C     C_R   0.056363 0.752084 0.107987 -0.066784
C65   C     C_R   0.569290 0.749670 0.053010 -0.209850
C66   C     C_R   0.505107 0.211754 0.053783 -0.194930
C67   C     C_R   0.068236 0.257279 0.052961 -0.207560
C68   C     C_R   0.984646 0.739706 0.054130 -0.192894
C69   C     C_R   0.515778 0.749470 0.946007 -0.215915
C70   C     C_R   0.451312 0.211920 0.946487 -0.194808
C71   C     C_R   0.014959 0.257064 0.946110 -0.210088
C72   C     C_R   0.930949 0.739899 0.946926 -0.219181
C73   C     C_R   0.442592 0.753320 0.892051 -0.066335
C74   C     C_R   0.447866 0.251991 0.892045 -0.058600
C75   C     C_R   0.941621 0.254522 0.891857 -0.085876
C76   C     C_R   0.948132 0.752809 0.892096 -0.053242
C77   C     C_R   0.690066 0.952745 0.570421 -0.144863
C78   C     C_R   0.656938 0.055452 0.511582 -0.144639
C79   C     C_R   0.359787 0.446421 0.699705 -0.170994
C80   C     C_R   0.359982 0.554028 0.699307 -0.193444
C81   C     C_R   0.650627 0.981000 0.582268 -0.153340
C82   C     C_R   0.631300 0.031544 0.548568 -0.139888
C83   C     C_R   0.408917 0.473540 0.792793 -0.145154
C84   C     C_R   0.409148 0.527145 0.792578 -0.148775
C85   C     C_R   0.702810 0.028763 0.508252 0.081694
C86   C     C_R   0.712816 0.975038 0.526196 0.070921
C87   C     C_R   0.307866 0.527479 0.603822 0.099527
C88   C     C_R   0.307877 0.472742 0.603972 0.101577
C89   C     C_R   0.749915 0.610059 0.500013 0.845241
C90   C     C_R   0.750021 0.389872 0.500161 0.799191
C91   C     C_R   0.250122 0.110132 0.498699 0.850703
C92   C     C_R   0.250038 0.889920 0.499748 0.809433
C93   C     C_R   0.744993 0.946929 0.499007 -0.085660
C94   C     C_R   0.739186 0.054533 0.487849 -0.079275
C95   C     C_R   0.257616 0.446104 0.508011 -0.073438
C96   C     C_R   0.257440 0.553929 0.507796 -0.079446
C97   C     C_R   0.772617 0.973646 0.466352 -0.212492
C98   C     C_R   0.772089 0.026891 0.464397 -0.208249
C99   C     C_R   0.211114 0.473274 0.414612 -0.212296
C100  C     C_R   0.211023 0.526617 0.414506 -0.198676
C101  C     C_R   0.810483 0.553433 0.683954 -0.383289
C102  C     C_R   0.809430 0.446037 0.683077 -0.381270
C103  C     C_R   0.316467 0.053465 0.446077 -0.361885
C104  C     C_R   0.314626 0.946072 0.443556 -0.377068
C105  C     C_R   0.839615 0.526582 0.773812 0.530470
C106  C     C_R   0.841480 0.472560 0.774569 0.508505
C107  C     C_R   0.351083 0.026698 0.424153 0.508224
C108  C     C_R   0.347725 0.972782 0.418153 0.520750
C109  C     C_R   0.780433 0.472656 0.592940 0.010134
C110  C     C_R   0.780617 0.527051 0.593160 -0.010996
C111  C     C_R   0.283222 0.972678 0.471822 0.007828
C112  C     C_R   0.283721 0.027116 0.472303 -0.021306
C113  C     C_R   0.749400 0.553843 0.501802 -0.110333
C114  C     C_R   0.749903 0.445993 0.501898 -0.107540
C115  C     C_R   0.250810 0.053971 0.497907 -0.106381
C116  C     C_R   0.250129 0.946100 0.497720 -0.103843
C117  C     C_R   0.717429 0.526956 0.410793 0.149802
C118  C     C_R   0.717981 0.472941 0.410948 0.126797
C119  C     C_R   0.219332 0.027321 0.525341 0.171598
C120  C     C_R   0.218536 0.973367 0.524765 0.120580
C121  C     C_R   0.748414 0.890377 0.499327 0.799469
C122  C     C_R   0.747382 0.110127 0.497060 0.796546
C123  C     C_R   0.252249 0.390068 0.502332 0.758216
C124  C     C_R   0.251889 0.609937 0.501984 0.800684
C125  C     C_R   0.891035 0.751511 0.502125 0.820532
C126  C     C_R   0.889881 0.250061 0.499683 0.807472
C127  C     C_R   0.391155 0.251641 0.502394 0.818404
C128  C     C_R   0.392260 0.747778 0.504611 0.810527
C129  C     C_R   0.607937 0.751848 0.496497 0.853446
C130  C     C_R   0.609145 0.248111 0.499090 0.857299
C131  C     C_R   0.109292 0.250840 0.498696 0.972942
C132  C     C_R   0.109437 0.748415 0.499608 0.859615
C133  C     C_R   0.597140 0.832450 0.604355 0.579228
C134  C     C_R   0.624575 0.188482 0.664951 0.518755
C135  C     C_R   0.969313 0.308335 0.333613 0.482712
C136  C     C_R   0.130409 0.695707 0.673693 0.524627
C137  C     C_R   0.622026 0.852137 0.696653 0.177712
C138  C     C_R   0.640738 0.181459 0.757356 0.139810
C139  C     C_R   0.900479 0.331406 0.253684 0.184171
C140  C     C_R   0.150349 0.694413 0.769586 0.134818
C141  C     C_R   0.595162 0.831036 0.734650 -0.310331
C142  C     C_R   0.605552 0.211449 0.774241 -0.289270
C143  C     C_R   0.846361 0.325979 0.252224 -0.289595
C144  C     C_R   0.110758 0.722943 0.780500 -0.286427
H1    H     H_    0.274134 0.782220 0.905719 0.132580
H2    H     H_    0.552034 0.400407 0.903932 0.135779
H3    H     H_    0.769940 0.259026 0.903701 0.136926
H4    H     H_    0.119552 0.815549 0.902634 0.133779
H5    H     H_    0.305882 0.772226 0.809337 0.135765
H6    H     H_    0.458984 0.332949 0.807756 0.109194
H7    H     H_    0.803289 0.264194 0.809012 0.141790
H8    H     H_    0.995482 0.788966 0.807613 0.118906
H9    H     H_    0.531456 0.745171 0.904919 0.148721
H10   H     H_    0.411738 0.180856 0.905564 0.146895
H11   H     H_    0.031203 0.257542 0.905432 0.166931
H12   H     H_    0.875876 0.729119 0.906394 0.139163
H13   H     H_    0.797748 0.953293 0.446450 0.166925
H14   H     H_    0.798618 0.046589 0.446059 0.167663
H15   H     H_    0.173232 0.453006 0.341166 0.164169
H16   H     H_    0.173091 0.546770 0.340975 0.167363
H17   H     H_    0.703359 0.914397 0.599966 0.238925
H18   H     H_    0.639904 0.094820 0.484977 0.173563
H19   H     H_    0.364267 0.404891 0.704189 0.148557
H20   H     H_    0.364715 0.595572 0.703480 0.145703
H21   H     H_    0.633208 0.963289 0.615286 0.195351
H22   H     H_    0.597831 0.052598 0.553337 0.167419
H23   H     H_    0.447748 0.452882 0.865415 0.146963
H24   H     H_    0.448370 0.548029 0.864963 0.135454
H25   H     H_    0.811434 0.595045 0.685662 0.167484
H26   H     H_    0.806000 0.404502 0.682253 0.163602
H27   H     H_    0.315535 0.095108 0.441748 0.176352
H28   H     H_    0.313861 0.904494 0.441598 0.171506
H29   H     H_    0.793065 0.342790 0.190062 0.167362
H30   H     H_    0.126754 0.723123 0.853644 0.178541
H31   H     H_    0.614087 0.845142 0.806162 0.164646
H32   H     H_    0.620046 0.208258 0.846143 0.168847
H33   H     H_    0.520316 0.779072 0.708400 0.180565
H34   H     H_    0.514383 0.258366 0.706268 0.160856
H35   H     H_    0.817116 0.298137 0.327570 0.146117
H36   H     H_    0.012613 0.762692 0.703827 0.150532
H37   H     H_    0.390639 0.694758 0.377595 0.191358
H38   H     H_    0.375574 0.276911 0.346381 0.181191
H39   H     H_    0.023092 0.213796 0.641713 0.153562
H40   H     H_    0.874328 0.772718 0.343859 0.177029
H41   H     H_    0.625674 0.745526 0.093320 0.154948
H42   H     H_    0.506594 0.180611 0.094894 0.147593
H43   H     H_    0.124829 0.258105 0.093171 0.165108
H44   H     H_    0.970502 0.728943 0.095443 0.159559
H45   H     H_    0.496511 0.769255 0.192452 0.154164
H46   H     H_    0.651277 0.332509 0.191898 0.116318
H47   H     H_    0.991998 0.253515 0.190456 0.206504
H48   H     H_    0.189570 0.783853 0.190997 0.130584
H49   H     H_    0.369329 0.780550 0.097008 0.139957
H50   H     H_    0.647687 0.400307 0.095437 0.136474
H51   H     H_    0.864540 0.251757 0.094321 0.135402
H52   H     H_    0.216459 0.812418 0.093884 0.129557
O1    O     O_3   0.750020 0.750020 0.500000 -0.487180
O2    O     O_3   0.750020 0.249980 0.500000 -0.483936
O3    O     O_3   0.250020 0.250020 0.500000 -0.489240
O4    O     O_3   0.250020 0.749980 0.500000 -0.481407
O5    O     O_R   0.689310 0.634210 0.439280 -0.639766
O6    O     O_R   0.689310 0.365790 0.439280 -0.642131
O7    O     O_R   0.189310 0.134210 0.439280 -0.627043
O8    O     O_R   0.189310 0.865790 0.439280 -0.657427
O9    O     O_R   0.750010 0.865830 0.560720 -0.657276
O10   O     O_R   0.750010 0.134170 0.560720 -0.672121
O11   O     O_R   0.250010 0.365830 0.560720 -0.656020
O12   O     O_R   0.250010 0.634170 0.560720 -0.664778
O13   O     O_R   0.896180 0.719660 0.731600 -0.641346
O14   O     O_R   0.896180 0.280340 0.731600 -0.641498
O15   O     O_R   0.396180 0.219660 0.731600 -0.642187
O16   O     O_R   0.396180 0.780340 0.731600 -0.637671
O17   O     O_R   0.664580 0.780370 0.268400 -0.634283
O18   O     O_R   0.664580 0.219630 0.268400 -0.638362
O19   O     O_R   0.164580 0.280370 0.268400 -0.638531
O20   O     O_R   0.164580 0.719630 0.268400 -0.639153
O21   O     O_R   0.835450 0.780390 0.731600 -0.647396
O22   O     O_R   0.835450 0.219610 0.731600 -0.670328
O23   O     O_R   0.335450 0.280390 0.731600 -0.632043
O24   O     O_R   0.335450 0.719610 0.731600 -0.685038
O25   O     O_R   0.603870 0.719650 0.268400 -0.647776
O26   O     O_R   0.603870 0.280350 0.268400 -0.635815
O27   O     O_R   0.103870 0.219650 0.268400 -0.646619
O28   O     O_R   0.103870 0.780350 0.268400 -0.628646
O29   O     O_R   0.810750 0.634210 0.560720 -0.637477
O30   O     O_R   0.810750 0.365790 0.560720 -0.643651
O31   O     O_R   0.310750 0.134210 0.560720 -0.650093
O32   O     O_R   0.310750 0.865790 0.560720 -0.637322
O33   O     O_R   0.750010 0.865820 0.439280 -0.638987
O34   O     O_R   0.750010 0.134180 0.439280 -0.637799
O35   O     O_R   0.250010 0.365820 0.439280 -0.636757
O36   O     O_R   0.250010 0.634180 0.439280 -0.634568
O37   O     O_R   0.896180 0.719650 0.560720 -0.631317
O38   O     O_R   0.896180 0.280350 0.560720 -0.630768
O39   O     O_R   0.396180 0.219650 0.560720 -0.647744
O40   O     O_R   0.396180 0.780350 0.560720 -0.653384
O41   O     O_R   0.664570 0.780390 0.560720 -0.614323
O42   O     O_R   0.664570 0.219610 0.560720 -0.627731
O43   O     O_R   0.164570 0.280390 0.560720 -0.625468
O44   O     O_R   0.164570 0.719610 0.560720 -0.621342
O45   O     O_R   0.835460 0.780370 0.439280 -0.652068
O46   O     O_R   0.835460 0.219630 0.439280 -0.642532
O47   O     O_R   0.335460 0.280370 0.439280 -0.647848
O48   O     O_R   0.335460 0.719630 0.439280 -0.649064
O49   O     O_R   0.603860 0.719660 0.439280 -0.605851
O50   O     O_R   0.603860 0.280340 0.439280 -0.603100
O51   O     O_R   0.103860 0.219660 0.439280 -0.633582
O52   O     O_R   0.103860 0.780340 0.439280 -0.609054
Zn1   Zn    Zn3+2 0.663270 0.706640 0.413250 0.968568
Zn2   Zn    Zn3+2 0.663270 0.293360 0.413250 0.965628
Zn3   Zn    Zn3+2 0.163270 0.206640 0.413250 0.994422
Zn4   Zn    Zn3+2 0.163270 0.793360 0.413250 0.973515
Zn5   Zn    Zn3+2 0.836780 0.706640 0.586750 0.969307
Zn6   Zn    Zn3+2 0.836780 0.293360 0.586750 0.956725
Zn7   Zn    Zn3+2 0.336780 0.206640 0.586750 0.953430
Zn8   Zn    Zn3+2 0.336780 0.793360 0.586750 0.946694
Zn9   Zn    Zn3+2 0.750020 0.793390 0.413240 0.962771
Zn10  Zn    Zn3+2 0.750020 0.206610 0.413240 0.966014
Zn11  Zn    Zn3+2 0.250020 0.293390 0.413240 0.962238
Zn12  Zn    Zn3+2 0.250020 0.706610 0.413240 0.965417
Zn13  Zn    Zn3+2 0.750010 0.793400 0.586760 0.957757
Zn14  Zn    Zn3+2 0.750010 0.206600 0.586760 0.934211
Zn15  Zn    Zn3+2 0.250010 0.293400 0.586760 0.982569
Zn16  Zn    Zn3+2 0.250010 0.706600 0.586760 0.937687
O53   O     O_3   0.478019 0.690292 0.353778 -0.587677
C145  C     C_3   0.489398 0.637497 0.380358 -0.259630
H53   H     H_    0.446185 0.621876 0.373266 0.146442
H54   H     H_    0.544201 0.630579 0.459776 0.146570
H55   H     H_    0.486807 0.615797 0.325481 0.188830
O54   O     O_3   0.464620 0.277427 0.323975 -0.586193
C146  C     C_3   0.448715 0.330635 0.303432 -0.241405
H56   H     H_    0.492424 0.354693 0.372529 0.148707
H57   H     H_    0.395224 0.339483 0.274972 0.146273
H58   H     H_    0.445176 0.341515 0.241239 0.194517
O55   O     O_3   0.132278 0.208388 0.658679 -0.602048
C147  C     C_3   0.125639 0.154276 0.657272 -0.347435
H59   H     H_    0.103986 0.137483 0.583748 0.170947
H60   H     H_    0.091193 0.142543 0.669779 0.165186
H61   H     H_    0.180502 0.137844 0.722114 0.199826
O56   O     O_3   0.963704 0.773340 0.321841 -0.591896
C148  C     C_3   0.944888 0.825926 0.295860 -0.261542
H62   H     H_    0.987374 0.851740 0.362303 0.150978
H63   H     H_    0.891058 0.833935 0.266906 0.146188
H64   H     H_    0.940509 0.835260 0.232346 0.192718
N1    N     N_2   0.689935 0.554528 0.321348 -0.308156
H65   H     H_    0.703927 0.539477 0.285116 0.237841
C149  C     C_3   0.614687 0.571052 0.249971 -0.709935
H66   H     H_    0.611074 0.612262 0.230193 0.253390
H67   H     H_    0.592288 0.566740 0.283668 0.243858
H68   H     H_    0.580592 0.548091 0.177406 0.214867
N2    N     N_2   0.688623 0.446007 0.319935 -0.313399
H69   H     H_    0.717850 0.414476 0.331478 0.203541
C150  C     C_3   0.610480 0.438266 0.241432 -0.728273
H70   H     H_    0.588329 0.448613 0.164563 0.230338
H71   H     H_    0.582987 0.462331 0.255844 0.241479
H72   H     H_    0.597609 0.397107 0.239566 0.254991
N3    N     N_2   0.189931 0.055244 0.556239 -0.289851
H73   H     H_    0.146448 0.038423 0.539080 0.244263
C151  C     C_3   0.242617 0.079243 0.657697 -0.798667
H74   H     H_    0.232233 0.121386 0.649317 0.242034
H75   H     H_    0.299563 0.073130 0.696217 0.242916
H76   H     H_    0.237430 0.062963 0.708496 0.225416
N4    N     N_2   0.188638 0.947097 0.556384 -0.319699
H77   H     H_    0.152556 0.917911 0.507764 0.241680
C152  C     C_3   0.241196 0.932848 0.664699 -0.791517
H78   H     H_    0.212337 0.916784 0.683954 0.230160
H79   H     H_    0.272794 0.967172 0.714389 0.263242
H80   H     H_    0.279108 0.903095 0.681459 0.233344
O57   O     O_3   0.872289 0.551399 0.865857 -0.561303
C153  C     C_3   0.833382 0.595737 0.848707 -0.305837
H81   H     H_    0.773313 0.589751 0.786783 0.139817
H82   H     H_    0.849423 0.629591 0.831167 0.158321
H83   H     H_    0.848304 0.604717 0.921172 0.198621
O58   O     O_3   0.869212 0.447485 0.863972 -0.579358
C154  C     C_3   0.907842 0.402162 0.884553 -0.253655
H84   H     H_    0.942175 0.407156 0.869347 0.161858
H85   H     H_    0.869859 0.369093 0.839852 0.148971
H86   H     H_    0.944922 0.392504 0.967835 0.199782
O59   O     O_3   0.382920 0.053264 0.398752 -0.577783
C155  C     C_3   0.447220 0.077391 0.488510 -0.267496
H87   H     H_    0.485357 0.048956 0.551806 0.150184
H88   H     H_    0.435134 0.108976 0.515683 0.169139
H89   H     H_    0.475310 0.095109 0.469249 0.200037
O60   O     O_3   0.382347 0.948440 0.394536 -0.584724
C156  C     C_3   0.349231 0.901219 0.341532 -0.358262
H90   H     H_    0.288680 0.903596 0.280797 0.162398
H91   H     H_    0.368863 0.869548 0.397267 0.171437
H92   H     H_    0.365964 0.891473 0.301725 0.190513
O61   O     O_3   0.607531 0.861257 0.551981 -0.618248
C157  C     C_3   0.539757 0.880789 0.459759 -0.352323
H93   H     H_    0.514113 0.905222 0.476839 0.212782
H94   H     H_    0.501963 0.849527 0.404584 0.158056
H95   H     H_    0.548891 0.905388 0.420140 0.203776
O62   O     O_3   0.648902 0.152847 0.637879 -0.626516
C158  C     C_3   0.724525 0.142844 0.719960 -0.167766
H96   H     H_    0.733785 0.105443 0.757271 0.170244
H97   H     H_    0.755796 0.174329 0.778320 0.145339
H98   H     H_    0.747544 0.138265 0.688030 0.230047
O63   O     O_3   0.020177 0.311580 0.329229 -0.648855
C159  C     C_3   0.057845 0.358885 0.372641 -0.286126
H99   H     H_    0.023964 0.391331 0.318663 0.187318
H100  H     H_    0.106107 0.356954 0.385046 0.178877
H101  H     H_    0.077526 0.366643 0.449099 0.162945
O64   O     O_3   0.152972 0.656829 0.648734 -0.595537
C160  C     C_3   0.228974 0.647997 0.727368 -0.136350
H102  H     H_    0.241477 0.614127 0.774822 0.162950
H103  H     H_    0.260977 0.682360 0.776754 0.143619
H104  H     H_    0.247576 0.637404 0.690787 0.220193
N5    N     N_2   0.672429 0.893806 0.749520 -0.316455
H105  H     H_    0.671869 0.914532 0.797161 0.220143
C161  C     C_3   0.745459 0.880390 0.800372 -0.759166
H106  H     H_    0.779486 0.915802 0.832430 0.233057
H107  H     H_    0.745229 0.862553 0.744888 0.276960
H108  H     H_    0.770013 0.852951 0.864819 0.231881
N6    N     N_2   0.687515 0.141493 0.829627 -0.315012
H109  H     H_    0.718303 0.151666 0.905633 0.225813
C162  C     C_3   0.651245 0.092368 0.803175 -0.782983
H110  H     H_    0.691936 0.062558 0.859279 0.233722
H111  H     H_    0.623996 0.080045 0.724306 0.251353
H112  H     H_    0.610111 0.095211 0.806183 0.243928
N7    N     N_2   0.885250 0.358901 0.172707 -0.281461
H113  H     H_    0.844238 0.341981 0.101276 0.228542
C163  C     C_3   0.872117 0.413565 0.169262 -0.782818
H114  H     H_    0.870972 0.432771 0.113784 0.259009
H115  H     H_    0.915903 0.431506 0.246727 0.240640
H116  H     H_    0.818873 0.419994 0.142995 0.227005
N8    N     N_2   0.206526 0.661849 0.853126 -0.326095
H117  H     H_    0.240399 0.680021 0.924220 0.230303
C164  C     C_3   0.180813 0.612672 0.854593 -0.745180
H118  H     H_    0.228113 0.588193 0.917158 0.231393
H119  H     H_    0.148690 0.592245 0.779585 0.265263
H120  H     H_    0.146458 0.618377 0.869412 0.245721

loop_
_geom_bond_atom_site_label_1
_geom_bond_atom_site_label_2
_ccdc_geom_bond_type
C128  O40   A    
C133  C137  A    
C162  H110  S    
C55   C59   A    
C108  O60   S    
C122  O10   A    
N2    H69   S    
C136  C140  A    
N4    C152  S    
C129  O49   A    
C148  H64   S    
C135  C139  A    
C46   C62   S    
C93   C121  S    
C138  N6    S    
C95   C99   A    
C146  H56   S    
C33   H45   S    
C3    C74   S    
C9    C13   A    
O13   Zn5   S    
O32   Zn8   S    
C23   O55   S    
C12   C16   A    
O60   C156  S    
C70   C74   A    
C45   O17   A    
C149  H67   S    
C164  H120  S    
C91   O31   A    
C88   C95   A    
C124  O12   A    
C19   C131  S    
O46   Zn10  S    
C20   C132  S    
C41   C49   A    
C67   H43   S    
O4    Zn12  S    
C65   H41   S    
C25   C29   A    
C153  H82   S    
C154  H85   S    
C157  H93   S    
C27   C31   A    
C155  H89   S    
C28   C32   A    
O21   Zn13  S    
C159  H99   S    
C89   O29   A    
C158  H97   S    
C24   O56   S    
O58   C154  S    
O41   Zn13  S    
C17   C21   A    
C103  C112  A    
C37   H49   S    
C19   C23   A    
C84   H24   S    
C8    H36   S    
N4    H77   S    
O1    Zn1   S    
C16   C20   A    
C160  H104  S    
C92   C116  S    
C124  O36   A    
C94   C122  S    
C162  H112  S    
C66   H42   S    
C128  O48   A    
C118  N2    S    
C18   C130  S    
C143  H29   S    
O2    Zn10  S    
C47   O27   A    
C30   C127  S    
C129  O41   A    
C13   C133  A    
C90   O30   A    
O31   Zn7   S    
C57   C61   A    
C59   C63   A    
C46   O26   A    
C60   C64   A    
N1    C149  S    
C47   C63   S    
O3    Zn7   S    
C66   C70   A    
C49   C53   A    
C51   C55   A    
C90   C114  S    
C27   H39   S    
C158  H96   S    
C61   C65   A    
O29   Zn5   S    
C144  H30   S    
C2    O22   A    
O34   Zn10  S    
C102  C109  A    
C103  C107  A    
C2    C75   S    
O52   Zn4   S    
C90   O6    A    
C102  H26   S    
O16   Zn8   S    
N5    H105  S    
C72   H12   S    
C99   H15   S    
C111  C112  A    
O48   Zn12  S    
C159  H101  S    
C7    C143  A    
C97   C98   A    
C161  H108  S    
C85   C86   A    
C64   C68   A    
N2    C150  S    
C133  O61   S    
O19   Zn11  S    
C156  H91   S    
C50   H6    S    
C105  O57   S    
C139  C143  A    
C152  H79   S    
C126  O46   A    
C135  O63   S    
C107  C108  A    
O38   Zn6   S    
C120  N4    S    
C55   C75   A    
C44   C52   A    
C54   C74   A    
C103  H27   S    
N3    C151  S    
O43   Zn15  S    
C11   C15   A    
O44   Zn16  S    
C3    O15   A    
C40   H52   S    
C134  O62   S    
C121  O33   A    
C62   C66   A    
C1    O13   A    
C34   H46   S    
C127  O47   A    
O56   C148  S    
C10   C14   A    
O62   C158  S    
C48   O28   A    
C83   H23   S    
C116  C120  A    
C155  H88   S    
C5    C9    A    
C150  H70   S    
C86   C93   A    
C83   C84   A    
C8    C12   A    
C123  O35   A    
C69   C73   A    
C4    C73   S    
C145  H54   S    
C109  C114  A    
C42   C50   A    
C113  C117  A    
O26   Zn2   S    
C78   C85   A    
N6    C162  S    
O4    Zn8   S    
C26   C30   A    
C115  C119  A    
O36   Zn12  S    
C163  H116  S    
O7    Zn3   S    
C10   C30   A    
C6    C142  A    
C117  N1    S    
C16   C136  A    
C93   C97   A    
C34   C58   A    
C95   C123  S    
C21   C25   A    
C154  H86   S    
C35   H47   S    
C36   H48   S    
C1    C76   S    
C24   C28   A    
C136  O64   S    
C145  H55   S    
O51   Zn3   S    
C148  H63   S    
O5    Zn1   S    
C13   C17   A    
C45   O25   A    
C132  O44   A    
O39   Zn7   S    
C117  C118  A    
O9    Zn13  S    
C96   C100  A    
C37   C41   A    
C126  O38   A    
C151  H76   S    
O28   Zn4   S    
O3    Zn11  S    
C40   C44   A    
O64   C160  S    
C68   H44   S    
C164  H119  S    
C58   C62   A    
C146  H58   S    
C87   C88   A    
O55   C147  S    
C121  O9    A    
C80   C84   A    
C15   C19   A    
N7    C163  S    
C50   C54   A    
C157  H94   S    
C159  H100  S    
C150  H72   S    
C54   C58   A    
C48   C64   S    
C94   C98   A    
C35   C59   A    
N3    H73   S    
C80   H20   S    
O49   Zn1   S    
C98   H14   S    
C4    O24   A    
C157  H95   S    
C47   O19   A    
C163  H114  S    
C101  H25   S    
C111  C116  A    
C160  H103  S    
C92   O8    A    
C104  H28   S    
C51   H7    S    
C154  H84   S    
C162  H111  S    
C18   C22   A    
C6    H34   S    
C119  N3    S    
C79   C88   A    
C89   C113  S    
C77   H17   S    
O23   Zn15  S    
C138  C142  A    
C53   C57   A    
C132  O52   A    
C142  H32   S    
O37   Zn5   S    
C69   H9    S    
C38   H50   S    
C68   C72   A    
C34   C38   A    
C35   C39   A    
C151  H74   S    
N1    H65   S    
O2    Zn2   S    
O63   C159  S    
C147  H61   S    
C77   C81   A    
C52   H8    S    
C71   H11   S    
C149  H68   S    
N8    C164  S    
O47   Zn11  S    
O40   Zn8   S    
C131  O51   A    
O25   Zn1   S    
O42   Zn14  S    
C42   H2    S    
C104  C108  A    
C82   H22   S    
O27   Zn3   S    
C137  C141  A    
C153  H81   S    
O17   Zn9   S    
O1    Zn13  S    
C140  C144  A    
O15   Zn7   S    
C6    C10   A    
C158  H98   S    
C119  C120  A    
C161  H107  S    
O11   Zn15  S    
C105  C106  A    
O12   Zn16  S    
C101  C110  A    
C109  C110  A    
O4    Zn4   S    
C79   C83   A    
C43   C51   A    
O35   Zn11  S    
C65   C69   A    
C45   C61   S    
C91   C115  S    
C67   C71   A    
C28   H40   S    
C156  H90   S    
C33   C37   A    
O59   C155  S    
C56   C60   A    
C41   H1    S    
C92   O32   A    
C3    O23   A    
C152  H78   S    
C22   C26   A    
O54   C146  S    
C1    O21   A    
C91   O7    A    
C153  H83   S    
O33   Zn9   S    
C89   O5    A    
C48   O20   A    
C56   C76   A    
C127  O39   A    
O61   C157  S    
C14   C18   A    
N8    H117  S    
C72   C76   A    
C81   C82   A    
C130  O50   A    
O57   C153  S    
C7    C11   A    
O10   Zn14  S    
O45   Zn9   S    
C38   C42   A    
C80   C87   A    
O3    Zn15  S    
O4    Zn16  S    
C15   C135  A    
C78   C82   A    
O14   Zn6   S    
C140  N8    S    
N6    H109  S    
C131  O43   A    
C46   O18   A    
C125  O45   A    
C23   C27   A    
O53   C145  S    
C21   O53   S    
C22   O54   S    
O1    Zn5   S    
N5    C161  S    
C12   C32   A    
C163  H115  S    
O24   Zn16  S    
C25   H37   S    
C101  C105  A    
C122  O34   A    
C63   C67   A    
C2    O14   A    
C96   C124  S    
C17   C129  S    
C20   C24   A    
C36   C40   A    
C43   H3    S    
O1    Zn9   S    
O2    Zn14  S    
C39   C43   A    
C14   C134  A    
C148  H62   S    
C97   H13   S    
C32   C125  S    
C139  N7    S    
C156  H92   S    
C39   H51   S    
C85   C94   A    
C100  H16   S    
C5    C141  A    
C99   C100  A    
C152  H80   S    
C87   C96   A    
C123  O11   A    
C8    C144  A    
C147  H59   S    
C151  H75   S    
C110  C113  A    
C5    H33   S    
C114  C118  A    
O3    Zn3   S    
O6    Zn2   S    
C147  H60   S    
C77   C86   A    
C78   H18   S    
C149  H66   S    
O22   Zn14  S    
O20   Zn12  S    
C26   H38   S    
C106  O58   S    
C164  H118  S    
O50   Zn2   S    
C107  O59   S    
C146  H57   S    
C130  O42   A    
C33   C57   A    
C70   H10   S    
C53   C73   A    
C79   H19   S    
C36   C60   A    
C134  C138  A    
C104  C111  A    
C9    C29   A    
N7    H113  S    
C4    O16   A    
C49   H5    S    
C7    H35   S    
C155  H87   S    
C150  H71   S    
C71   C75   A    
C161  H106  S    
O2    Zn6   S    
C44   H4    S    
C102  C106  A    
C125  O37   A    
C145  H53   S    
C11   C31   A    
O8    Zn4   S    
C137  N5    S    
O30   Zn6   S    
C29   C128  S    
C141  H31   S    
C81   H21   S    
O18   Zn10  S    
C31   C126  S    
C160  H102  S    
C112  C115  A    
C52   C56   A    
