data_mof_unit_19381.cif
_audit_creation_date              2012-10-26T19:56:44-0400
_audit_creation_method            fapswitch 2.2
_symmetry_space_group_name_H-M    P1
_symmetry_Int_Tables_number       1
_space_group_crystal_system       triclinic
_cell_length_a                    15.643076
_cell_length_b                    15.064506
_cell_length_c                    9.800086
_cell_angle_alpha                 91.91032
_cell_angle_beta                  60.914281
_cell_angle_gamma                 91.694732
_cell_volume                      2016.84759433

loop_
_atom_site_label
_atom_site_type_symbol
_atom_type_description
_atom_site_fract_x
_atom_site_fract_y
_atom_site_fract_z
_atom_type_partial_charge
C1    C     C_R   0.369689 0.117029 0.563576 0.531516
C2    C     C_2   0.488603 0.998741 0.083810 -0.011425
C3    C     C_2   0.011365 0.499893 0.916172 -0.011501
C4    C     C_2   0.988603 0.498741 0.083810 -0.011425
C5    C     C_2   0.291919 0.814311 0.585037 0.282367
C6    C     C_2   0.701811 0.190669 0.417020 0.275581
C7    C     C_2   0.703706 0.815086 0.402023 0.216279
C8    C     C_2   0.292349 0.182264 0.600940 0.230123
C9    C     C_2   0.791920 0.314311 0.585037 0.282367
C10   C     C_2   0.201811 0.690669 0.417020 0.275581
C11   C     C_2   0.203706 0.315086 0.402023 0.216279
C12   C     C_R   0.628255 0.881233 0.437808 0.532699
C13   C     C_2   0.792349 0.682265 0.600940 0.230123
C14   C     C_2   0.237088 0.830929 0.517199 -0.067277
C15   C     C_2   0.669130 0.263991 0.508717 -0.066872
C16   C     C_2   0.729537 0.799252 0.510602 -0.116739
C17   C     C_2   0.302734 0.233446 0.484415 -0.114697
C18   C     C_2   0.737088 0.330929 0.517200 -0.067277
C19   C     C_2   0.169130 0.763991 0.508716 -0.066873
C20   C     C_2   0.229537 0.299252 0.510603 -0.116738
C21   C     C_2   0.802734 0.733446 0.484415 -0.114697
C22   C     C_3   0.832034 0.129714 0.191919 -0.002629
C23   C     C_R   0.629014 0.119379 0.440574 0.535903
C24   C     C_3   0.845692 0.031395 0.210313 -0.245633
C25   C     C_3   0.858637 0.976194 0.068290 -0.456313
C26   C     C_3   0.323324 0.724808 0.749316 0.016116
C27   C     C_3   0.431537 0.700106 0.653391 -0.255016
C28   C     C_3   0.481174 0.706065 0.753830 -0.469237
C29   C     C_3   0.179272 0.120309 0.846862 0.015209
C30   C     C_3   0.150329 0.038618 0.778484 -0.278291
C31   C     C_3   0.124342 0.959395 0.885497 -0.482061
C32   C     C_3   0.690068 0.711340 0.235762 0.022440
C33   C     C_3   0.694146 0.621353 0.301185 -0.282595
C34   C     C_R   0.370492 0.880710 0.559677 0.516344
C35   C     C_3   0.634648 0.550144 0.268583 -0.502894
C36   C     C_3   0.332035 0.629714 0.191919 -0.002629
C37   C     C_3   0.345692 0.531395 0.210311 -0.245633
C38   C     C_3   0.358636 0.476195 0.068287 -0.456314
C39   C     C_3   0.823325 0.224807 0.749314 0.016115
C40   C     C_3   0.931538 0.200106 0.653389 -0.255016
C41   C     C_3   0.981174 0.206062 0.753829 -0.469237
C42   C     C_3   0.679272 0.620309 0.846861 0.015208
C43   C     C_3   0.650329 0.538619 0.778482 -0.278291
C44   C     C_3   0.624341 0.459395 0.885495 -0.482062
C45   C     C_R   0.869689 0.617030 0.563576 0.531516
C46   C     C_3   0.190069 0.211340 0.235762 0.022440
C47   C     C_3   0.194148 0.121353 0.301185 -0.282595
C48   C     C_3   0.134650 0.050143 0.268582 -0.502894
C49   C     C_R   0.128255 0.381232 0.437808 0.532698
C50   C     C_R   0.129014 0.619380 0.440574 0.535904
C51   C     C_R   0.870492 0.380710 0.559677 0.516344
C52   C     C_2   0.511365 0.999893 0.916172 -0.011501
Cu1   Cu    Cu3+1 0.522650 0.000000 0.349410 0.909819
Cu2   Cu    Cu3+1 0.477350 0.000000 0.650590 0.902256
Cu3   Cu    Cu3+1 0.022650 0.500000 0.349410 0.909820
Cu4   Cu    Cu3+1 0.977350 0.500000 0.650590 0.902257
H1    H     H_    0.628150 0.002118 0.034159 0.197203
H2    H     H_    0.742198 0.394832 0.465151 0.053889
H3    H     H_    0.863291 0.724592 0.366546 0.152653
H4    H     H_    0.191884 0.331343 0.625371 0.157984
H5    H     H_    0.412739 0.996784 0.175080 0.138774
H6    H     H_    0.587271 0.000623 0.824870 0.155774
H7    H     H_    0.912739 0.496784 0.175080 0.138774
H8    H     H_    0.087271 0.500623 0.824870 0.155774
H9    H     H_    0.904431 0.157381 0.106536 0.141691
H10   H     H_    0.783281 0.139567 0.140559 0.128039
H11   H     H_    0.910980 0.024448 0.225759 0.145911
H12   H     H_    0.371810 0.999217 0.965862 0.193205
H13   H     H_    0.781729 0.005201 0.316066 0.183528
H14   H     H_    0.790333 0.976114 0.059938 0.174732
H15   H     H_    0.875774 0.906735 0.079427 0.195283
H16   H     H_    0.919474 0.003493 0.959605 0.124667
H17   H     H_    0.284958 0.669929 0.831261 0.135134
H18   H     H_    0.310468 0.784423 0.826214 0.140126
H19   H     H_    0.437297 0.631252 0.605590 0.156440
H20   H     H_    0.471102 0.744567 0.553155 0.169106
H21   H     H_    0.473509 0.773511 0.807557 0.184632
H22   H     H_    0.559990 0.692339 0.680420 0.173745
H23   H     H_    0.128150 0.502118 0.034159 0.197203
H24   H     H_    0.448305 0.656082 0.846469 0.116670
H25   H     H_    0.112660 0.140492 0.955932 0.138982
H26   H     H_    0.232135 0.104369 0.886472 0.161043
H27   H     H_    0.086354 0.054343 0.764434 0.145886
H28   H     H_    0.210421 0.018944 0.662001 0.146797
H29   H     H_    0.189648 0.938152 0.891877 0.161039
H30   H     H_    0.097991 0.903000 0.839234 0.155395
H31   H     H_    0.065865 0.976965 0.004931 0.141867
H32   H     H_    0.717101 0.702684 0.108442 0.162173
H33   H     H_    0.612971 0.733629 0.287628 0.131661
H34   H     H_    0.871810 0.499217 0.965862 0.193205
H35   H     H_    0.771412 0.600043 0.247578 0.165698
H36   H     H_    0.664552 0.627710 0.429335 0.158302
H37   H     H_    0.635567 0.487282 0.323889 0.143743
H38   H     H_    0.666839 0.537620 0.141059 0.131572
H39   H     H_    0.557565 0.571078 0.317288 0.153787
H40   H     H_    0.404432 0.657382 0.106539 0.141691
H41   H     H_    0.283282 0.639568 0.140559 0.128038
H42   H     H_    0.410980 0.524447 0.225757 0.145911
H43   H     H_    0.281729 0.505201 0.316063 0.183529
H44   H     H_    0.290332 0.476117 0.059935 0.174731
H45   H     H_    0.591129 0.276099 0.577429 0.067605
H46   H     H_    0.375773 0.406736 0.079422 0.195283
H47   H     H_    0.419473 0.503494 0.959603 0.124667
H48   H     H_    0.784959 0.169928 0.831259 0.135135
H49   H     H_    0.810469 0.284422 0.826213 0.140126
H50   H     H_    0.937298 0.131253 0.605584 0.156441
H51   H     H_    0.971103 0.244569 0.553155 0.169106
H52   H     H_    0.973508 0.273506 0.807561 0.184630
H53   H     H_    0.059991 0.192337 0.680419 0.173745
H54   H     H_    0.948306 0.156076 0.846464 0.116669
H55   H     H_    0.612660 0.640492 0.955931 0.138982
H56   H     H_    0.242199 0.894832 0.465149 0.053889
H57   H     H_    0.732135 0.604368 0.886471 0.161043
H58   H     H_    0.586353 0.554345 0.764432 0.145886
H59   H     H_    0.710420 0.518945 0.661999 0.146796
H60   H     H_    0.689647 0.438152 0.891874 0.161039
H61   H     H_    0.597989 0.403002 0.839231 0.155394
H62   H     H_    0.565864 0.476965 0.004929 0.141867
H63   H     H_    0.217101 0.202683 0.108442 0.162173
H64   H     H_    0.112972 0.233629 0.287629 0.131661
H65   H     H_    0.271414 0.100044 0.247578 0.165699
H66   H     H_    0.164553 0.127710 0.429335 0.158302
H67   H     H_    0.363291 0.224592 0.366547 0.152653
H68   H     H_    0.135570 0.987281 0.323889 0.143742
H69   H     H_    0.166842 0.037619 0.141059 0.131572
H70   H     H_    0.057567 0.071076 0.317286 0.153786
H71   H     H_    0.691885 0.831344 0.625371 0.157984
H72   H     H_    0.091129 0.776099 0.577426 0.067605
N1    N     N_2   0.443290 0.000000 0.876860 -0.354598
N2    N     N_2   0.556710 0.000000 0.123140 -0.344663
N3    N     N_2   0.943290 0.500000 0.876860 -0.354597
N4    N     N_2   0.056710 0.500000 0.123140 -0.344663
O1    O     O_R   0.422430 0.089640 0.419570 -0.522986
O2    O     O_R   0.615830 0.910350 0.326090 -0.470672
O3    O     O_R   0.615830 0.089650 0.326090 -0.511101
O4    O     O_R   0.384170 0.910350 0.673910 -0.514282
O5    O     O_R   0.884170 0.589650 0.673910 -0.488135
O6    O     O_R   0.115830 0.410350 0.326090 -0.470671
O7    O     O_R   0.115830 0.589650 0.326090 -0.511101
O8    O     O_R   0.884170 0.410350 0.673910 -0.514282
O9    O     O_3   0.802511 0.177002 0.334180 -0.558456
O10   O     O_3   0.280111 0.731253 0.652897 -0.556120
O11   O     O_3   0.210235 0.194992 0.748696 -0.599934
O12   O     O_R   0.577570 0.910360 0.580430 -0.525375
O13   O     O_3   0.752444 0.774475 0.255131 -0.587707
O14   O     O_3   0.302511 0.677001 0.334182 -0.558457
O15   O     O_3   0.780112 0.231253 0.652896 -0.556120
O16   O     O_3   0.710235 0.694993 0.748696 -0.599933
O17   O     O_3   0.252444 0.274476 0.255131 -0.587707
O18   O     O_R   0.577570 0.089640 0.580430 -0.479339
O19   O     O_R   0.422430 0.910360 0.419570 -0.494839
O20   O     O_R   0.922430 0.589640 0.419570 -0.522986
O21   O     O_R   0.077570 0.410360 0.580430 -0.525374
O22   O     O_R   0.077570 0.589640 0.580430 -0.479338
O23   O     O_R   0.922430 0.410360 0.419570 -0.494838
O24   O     O_R   0.384170 0.089650 0.673910 -0.488135

loop_
_geom_bond_atom_site_label_1
_geom_bond_atom_site_label_2
_ccdc_geom_bond_type
C15   C18   S    
Cu2   O12   S    
Cu3   Cu4   S    
C16   C21   S    
C31   H29   S    
C41   H52   S    
C1    C8    S    
Cu1   O3    S    
C42   H55   S    
C42   O16   S    
C17   C20   S    
Cu3   O20   S    
C4    N4    D    
C3    H8    S    
C14   H56   S    
C4    H7    S    
C51   O23   A    
C26   C27   S    
C37   C38   S    
Cu3   O6    S    
C3    N3    D    
C52   N1    D    
C49   O21   A    
C36   C37   S    
C21   H3    S    
C33   H35   S    
C43   H58   S    
Cu2   O24   S    
C30   C31   S    
Cu4   O8    S    
C1    O1    A    
C47   H65   S    
H23   N4    S    
C29   O11   S    
C19   H72   S    
C26   H17   S    
Cu3   O7    S    
C30   H27   S    
C22   H10   S    
C24   H11   S    
C43   H59   S    
C48   H69   S    
C11   O17   S    
C32   H33   S    
C9    C51   S    
C36   H41   S    
C25   H15   S    
C34   O4    A    
C20   H4    S    
C29   C30   S    
C28   H22   S    
C2    H5    S    
C51   O8    A    
C6    C15   D    
C31   H30   S    
C41   H53   S    
C49   O6    A    
C27   H19   S    
C37   H42   S    
C17   H67   S    
C24   H13   S    
C35   H37   S    
C7    C12   S    
C11   C20   D    
C31   H31   S    
C46   H64   S    
H1    N2    S    
C39   H48   S    
Cu1   O1    S    
C24   C25   S    
C38   H44   S    
C33   H36   S    
C39   C40   S    
C2    N2    D    
C50   O7    A    
C47   H66   S    
C32   O13   S    
Cu1   Cu2   S    
C9    O15   S    
C12   O12   A    
C1    O24   A    
Cu3   O23   S    
C43   C44   S    
C22   H9    S    
C29   H25   S    
C38   H47   S    
C11   C49   S    
C36   H40   S    
C42   H57   S    
C47   C48   S    
C44   H62   S    
C10   C19   D    
Cu2   O4    S    
C5    C34   S    
C45   O5    A    
C13   C21   D    
C25   H16   S    
C15   H45   S    
C6    O9    S    
C28   H21   S    
C5    C14   D    
C2    C52   S    
C10   O14   S    
C40   H51   S    
H34   N3    S    
Cu4   O22   S    
C7    C16   D    
C23   O18   A    
C41   H54   S    
C22   C24   S    
C42   C43   S    
C27   H20   S    
C10   C50   S    
C37   H43   S    
C40   H50   S    
C35   H38   S    
C36   O14   S    
C39   H49   S    
Cu2   N1    S    
C46   C47   S    
C40   C41   S    
Cu2   O18   S    
C14   C19   S    
Cu1   O2    S    
Cu4   O21   S    
C48   H68   S    
C34   O19   A    
Cu1   N2    S    
C35   H39   S    
C8    C17   D    
C23   O3    A    
C45   O20   A    
C32   C33   S    
C29   H26   S    
C38   H46   S    
C52   H6    S    
C13   C45   S    
Cu4   O5    S    
C33   C35   S    
C5    O10   S    
C44   H61   S    
C50   O22   A    
C6    C23   S    
C22   O9    S    
C26   H18   S    
C18   H2    S    
C46   H63   S    
C8    O11   S    
C30   H28   S    
H12   N1    S    
C28   H24   S    
C16   H71   S    
Cu4   N3    S    
C48   H70   S    
C9    C18   D    
C46   O17   S    
C44   H60   S    
Cu3   N4    S    
C39   O15   S    
C27   C28   S    
Cu1   O19   S    
C12   O2    A    
C25   H14   S    
C13   O16   S    
C26   O10   S    
C3    C4    S    
C7    O13   S    
C32   H32   S    
