data_mof_unit_62544.cif
_audit_creation_date              2012-10-26T19:19:40-0400
_audit_creation_method            fapswitch 2.2
_symmetry_space_group_name_H-M    P1
_symmetry_Int_Tables_number       1
_space_group_crystal_system       triclinic
_cell_length_a                    15.888894
_cell_length_b                    10.924605
_cell_length_c                    9.697255
_cell_angle_alpha                 90.061886
_cell_angle_beta                  89.969753
_cell_angle_gamma                 90.107876
_cell_volume                      1683.24426622

loop_
_atom_site_label
_atom_site_type_symbol
_atom_type_description
_atom_site_fract_x
_atom_site_fract_y
_atom_site_fract_z
_atom_type_partial_charge
C1    C     C_R   0.497238 0.265462 0.499947 0.562945
C2    C     C_2   0.519969 0.865115 0.501102 0.072746
C3    C     C_2   0.503484 0.066186 0.389741 -0.129349
C4    C     C_R   0.340239 0.499960 0.500074 0.549433
C5    C     C_2   0.487753 0.133972 0.501336 -0.086544
C6    C     C_2   0.451844 0.428863 0.922078 -0.003893
C7    C     C_2   0.452792 0.427498 0.077766 -0.005453
C8    C     C_R   0.503973 0.734531 0.500160 0.566407
C9    C     C_R   0.659763 0.499967 0.499892 0.568794
C10   C     C_3   0.048558 0.419106 0.620265 -0.209086
C11   C     C_3   0.049495 0.434022 0.359442 0.024812
C12   C     C_3   0.951083 0.419356 0.620376 -0.206860
C13   C     C_3   0.950494 0.433751 0.359512 0.026530
C14   C     C_1   0.749389 0.498333 0.499521 0.016912
C15   C     C_3   0.082883 0.492714 0.495682 0.042248
C16   C     C_3   0.917105 0.492728 0.495554 0.037299
C17   C     C_3   0.951514 0.625290 0.505425 -0.250501
C18   C     C_3   0.048811 0.625266 0.505786 -0.252306
C19   C     C_1   0.824897 0.496076 0.498182 -0.028443
C20   C     C_1   0.175097 0.496042 0.498473 -0.035127
C21   C     C_1   0.250610 0.498292 0.499848 -0.000701
C22   C     C_2   0.493500 0.933561 0.394536 -0.138625
Cu1   Cu    Cu3+1 0.500020 0.500020 0.638630 0.990318
Cu2   Cu    Cu3+1 0.499980 0.499980 0.361370 0.974185
H1    H     H_    0.927385 0.323558 0.617422 0.173273
H2    H     H_    0.411530 0.362731 0.129069 0.147606
H3    H     H_    0.071773 0.323197 0.616772 0.169317
H4    H     H_    0.537443 0.561601 0.106104 0.213357
H5    H     H_    0.070447 0.492989 0.272299 0.115619
H6    H     H_    0.929535 0.492249 0.272108 0.116061
H7    H     H_    0.071952 0.669612 0.602038 0.140082
H8    H     H_    0.072390 0.680805 0.417619 0.131911
H9    H     H_    0.928174 0.669949 0.601329 0.145943
H10   H     H_    0.071865 0.460057 0.718271 0.124232
H11   H     H_    0.928001 0.460787 0.718241 0.128140
H12   H     H_    0.928385 0.680562 0.416868 0.135978
H13   H     H_    0.461957 0.891129 0.307260 0.140354
H14   H     H_    0.518778 0.108388 0.291464 0.161955
H15   H     H_    0.466377 0.091965 0.596579 0.139773
H16   H     H_    0.408808 0.366605 0.870677 0.143247
H17   H     H_    0.540989 0.556678 0.893935 0.217106
I1    I     I_    0.601525 0.928229 0.662291 -0.346947
I2    I     I_    0.110855 0.260602 0.314238 -0.363577
I3    I     I_    0.889163 0.259744 0.315510 -0.316690
N1    N     N_2   0.499090 0.498660 0.846910 -0.340724
N2    N     N_2   0.499070 0.498630 0.153040 -0.344077
O1    O     O_R   0.500010 0.321960 0.617040 -0.488286
O2    O     O_R   0.499990 0.321920 0.382900 -0.495415
O3    O     O_R   0.379450 0.500030 0.617120 -0.498228
O4    O     O_R   0.379420 0.499980 0.382980 -0.489014
O5    O     O_R   0.500010 0.678080 0.617100 -0.471412
O6    O     O_R   0.499990 0.678040 0.382960 -0.508883
O7    O     O_R   0.620580 0.500020 0.617020 -0.483803
O8    O     O_R   0.620550 0.499970 0.382880 -0.482642

loop_
_geom_bond_atom_site_label_1
_geom_bond_atom_site_label_2
_ccdc_geom_bond_type
C10   H3    S    
C2    C22   D    
C15   C18   S    
Cu1   Cu2   S    
C1    O2    A    
C11   I2    S    
C6    C7    S    
Cu1   N1    S    
C17   H12   S    
C8    O6    A    
Cu1   O5    S    
C4    O3    A    
C9    C14   S    
Cu2   N2    S    
C17   C18   S    
C10   H10   S    
C12   H11   S    
C4    C21   S    
C11   C13   S    
C8    O5    A    
H4    N2    S    
C7    H2    S    
C17   H9    S    
C2    I1    S    
C16   C19   S    
C1    C5    S    
C10   C12   S    
C6    N1    D    
Cu1   O7    S    
Cu2   O6    S    
C5    H15   S    
Cu2   O4    S    
C15   C20   S    
C6    H16   S    
Cu1   O3    S    
C18   H8    S    
C12   H1    S    
Cu2   O8    S    
Cu2   O2    S    
C7    N2    D    
C13   H6    S    
Cu1   O1    S    
C20   C21   T    
C11   H5    S    
C9    O7    A    
C13   C16   S    
H17   N1    S    
C1    O1    A    
C3    C22   S    
C9    O8    A    
C10   C15   S    
C22   H13   S    
C11   C15   S    
C14   C19   T    
C13   I3    S    
C2    C8    S    
C12   C16   S    
C3    H14   S    
C4    O4    A    
C16   C17   S    
C3    C5    D    
C18   H7    S    
