data_mof_unit_49598.cif
_audit_creation_date              2012-12-11T14:13:29-0500
_audit_creation_method            fapswitch 2.2
_symmetry_space_group_name_H-M    P1
_symmetry_Int_Tables_number       1
_space_group_crystal_system       triclinic
_cell_length_a                    11.678947
_cell_length_b                    18.380613
_cell_length_c                    10.064406
_cell_angle_alpha                 89.986468
_cell_angle_beta                  112.039537
_cell_angle_gamma                 89.975347
_cell_volume                      2002.6101178

loop_
_atom_site_label
_atom_site_type_symbol
_atom_type_description
_atom_site_fract_x
_atom_site_fract_y
_atom_site_fract_z
_atom_type_partial_charge
C1    C     C_R   0.073468 0.646001 0.140211 0.589420
C2    C     C_2   0.613147 0.058869 0.016113 -0.024826
C3    C     C_2   0.623084 0.439766 0.008066 0.000377
C4    C     C_2   0.386327 0.558998 0.983835 0.022021
C5    C     C_2   0.467468 0.955691 0.937725 -0.196274
C6    C     C_2   0.505684 0.030383 0.925032 -0.222852
C7    C     C_2   0.533239 0.456554 0.056439 -0.141541
C8    C     C_2   0.495844 0.531050 0.070793 -0.130558
C9    C     C_2   0.005711 0.922383 0.109022 0.053531
C10   C     C_2   0.979909 0.073603 0.881498 0.036770
C11   C     C_2   0.992160 0.423008 0.890185 0.014266
C12   C     C_R   0.927450 0.353798 0.860955 0.556891
C13   C     C_2   0.019653 0.573892 0.118808 0.029527
C14   C     C_2   0.974150 0.951428 0.977482 -0.170117
C15   C     C_2   0.932397 0.026140 0.948151 -0.203599
C16   C     C_2   0.023939 0.451892 0.021799 -0.216844
C17   C     C_2   0.066112 0.526435 0.051193 -0.218594
C18   C     C_R   0.469795 0.646077 0.441511 0.554325
C19   C     C_R   0.528237 0.351801 0.554370 0.560323
C20   C     C_R   0.530591 0.146054 0.558497 0.509343
C21   C     C_R   0.471506 0.851850 0.445439 0.584548
C22   C     C_R   0.357212 0.635808 0.004158 0.593949
C23   C     C_R   0.926433 0.145895 0.859835 0.583353
C24   C     C_R   0.646622 0.363008 0.989904 0.524649
C25   C     C_R   0.642626 0.135753 0.996230 0.571257
C26   C     C_R   0.354020 0.863322 0.008970 0.629214
C27   C     C_R   0.495266 0.420409 0.472139 0.006602
C28   C     C_R   0.495480 0.572031 0.505070 0.023980
C29   C     C_R   0.503931 0.920428 0.527575 0.016117
C30   C     C_R   0.506193 0.071992 0.495017 -0.051055
C31   C     C_R   0.276444 0.417020 0.433763 -0.087309
C32   C     C_R   0.710909 0.574387 0.521429 -0.088966
C33   C     C_R   0.723221 0.915213 0.570243 -0.090275
C34   C     C_R   0.071919 0.853562 0.138811 0.604195
C35   C     C_R   0.289449 0.075546 0.473433 -0.071029
C36   C     C_R   0.172025 0.450680 0.439969 -0.112441
C37   C     C_R   0.803480 0.543991 0.484347 -0.093646
C38   C     C_R   0.829044 0.947550 0.565627 -0.134652
C39   C     C_R   0.195741 0.046133 0.509618 -0.091467
C40   C     C_R   0.180438 0.520904 0.493860 -0.081125
C41   C     C_R   0.789221 0.474462 0.426657 -0.091355
C42   C     C_R   0.823406 0.017825 0.513033 -0.024976
C43   C     C_R   0.208419 0.976761 0.567778 -0.097506
C44   C     C_R   0.292609 0.559010 0.537882 0.048247
C45   C     C_R   0.388147 0.455674 0.469838 -0.021427
C46   C     C_R   0.685669 0.432456 0.413780 0.027827
C47   C     C_R   0.712615 0.057657 0.469375 0.049033
C48   C     C_R   0.311394 0.933845 0.581829 0.030451
C49   C     C_R   0.393439 0.529861 0.507234 0.006501
C50   C     C_R   0.592565 0.462077 0.458769 -0.003217
C51   C     C_R   0.609282 0.029273 0.496255 -0.047232
C52   C     C_R   0.406143 0.962645 0.538542 0.026444
C53   C     C_2   0.303887 0.624511 0.628248 0.347085
C54   C     C_2   0.678024 0.359843 0.346665 0.289344
C55   C     C_2   0.703121 0.123992 0.381618 0.349102
C56   C     C_R   0.600260 0.536191 0.497779 -0.021371
C57   C     C_2   0.316735 0.861455 0.649256 0.281050
C58   C     C_2   0.700656 0.013734 0.131343 0.190768
C59   C     C_2   0.322975 0.996942 0.049300 0.175217
C60   C     C_2   0.296487 0.513657 0.871207 0.211085
C61   C     C_2   0.685364 0.493574 0.947562 0.213482
C62   C     C_2   0.071516 0.053831 0.817717 0.210475
C63   C     C_2   0.000352 0.964247 0.231507 0.284544
C64   C     C_2   0.929327 0.554229 0.184376 0.238621
C65   C     C_2   0.996114 0.465214 0.767330 0.268364
C66   C     C_R   0.612378 0.954964 0.532614 -0.006850
C67   C     C_R   0.399953 0.036676 0.499300 0.015327
C68   C     C_2   0.378964 0.939871 0.988461 0.007947
Cr1   Cr    Cr6+3 0.187610 0.750000 0.979860 1.022156
Cr2   Cr    Cr6+3 0.812390 0.250000 0.020140 1.038222
Cr3   Cr    Cr6+3 0.245810 0.750000 0.341640 1.053793
Cr4   Cr    Cr6+3 0.754190 0.250000 0.658360 1.083901
Cr5   Cr    Cr6+3 0.485760 0.750000 0.219910 1.077435
Cr6   Cr    Cr6+3 0.514240 0.250000 0.780090 1.050000
H1    H     H_    0.085842 0.421087 0.409173 0.130143
H2    H     H_    0.724598 0.628911 0.565494 0.147901
H3    H     H_    0.728228 0.859213 0.605729 0.135251
H4    H     H_    0.277141 0.130056 0.429266 0.137548
H5    H     H_    0.439882 0.063070 0.840850 0.189416
H6    H     H_    0.519805 0.912492 0.913340 0.196208
H7    H     H_    0.563582 0.563991 0.152424 0.201261
H8    H     H_    0.480126 0.413674 0.080469 0.173986
H9    H     H_    0.863162 0.043879 0.988915 0.159404
H10   H     H_    0.986175 0.921175 0.890988 0.135040
H11   H     H_    0.134831 0.544095 0.009694 0.165742
H12   H     H_    0.886162 0.574894 0.499011 0.156334
H13   H     H_    0.012744 0.421460 0.108610 0.139341
H14   H     H_    0.221416 0.653183 0.624383 0.123244
H15   H     H_    0.762409 0.332658 0.353073 0.151473
H16   H     H_    0.613336 0.142608 0.308432 0.109994
H17   H     H_    0.231570 0.835605 0.643768 0.122246
H18   H     H_    0.681429 0.957239 0.146228 0.147345
H19   H     H_    0.335330 0.054195 0.032095 0.152683
H20   H     H_    0.313773 0.456665 0.857879 0.144794
H21   H     H_    0.753697 0.474715 0.906412 0.070461
H22   H     H_    0.098861 0.997830 0.813914 0.100303
H23   H     H_    0.914256 0.916888 0.596660 0.122026
H24   H     H_    0.014152 0.022695 0.236352 0.151219
H25   H     H_    0.902908 0.498204 0.189736 0.076816
H26   H     H_    0.981419 0.523602 0.762564 0.137514
H27   H     H_    0.113582 0.077755 0.494372 0.170515
H28   H     H_    0.100542 0.544271 0.507754 0.156728
H29   H     H_    0.860725 0.452731 0.393874 0.120237
H30   H     H_    0.904556 0.039881 0.500145 0.196251
H31   H     H_    0.136151 0.955928 0.600237 0.119790
H32   H     H_    0.269474 0.361082 0.397573 0.134347
O1    O     O_R   0.267710 0.668200 0.902110 -0.456658
O2    O     O_R   0.883280 0.330790 0.732340 -0.465390
O3    O     O_R   0.883280 0.169210 0.732340 -0.457935
O4    O     O_R   0.116720 0.830790 0.267660 -0.472742
O5    O     O_R   0.366710 0.675440 0.427590 -0.496595
O6    O     O_R   0.633290 0.324560 0.572410 -0.484443
O7    O     O_R   0.633290 0.175440 0.572410 -0.500347
O8    O     O_R   0.366710 0.824560 0.427590 -0.472397
O9    O     O_R   0.534870 0.669390 0.371760 -0.534969
O10   O     O_R   0.465130 0.330610 0.628240 -0.520197
O11   O     O_R   0.465130 0.169390 0.628240 -0.518355
O12   O     O_R   0.732290 0.331800 0.097890 -0.520593
O13   O     O_R   0.534870 0.830610 0.371760 -0.520714
O14   O     O_R   0.453080 0.674480 0.075160 -0.461983
O15   O     O_R   0.546920 0.325520 0.924840 -0.471401
O16   O     O_R   0.546920 0.174480 0.924840 -0.496140
O17   O     O_R   0.453080 0.825520 0.075160 -0.474897
O18   O     O_3   0.306390 0.750000 0.180470 -0.314684
O19   O     O_3   0.693610 0.250000 0.819530 -0.311581
O20   O     O_2   0.404811 0.646155 0.709402 -0.431755
O21   O     O_2   0.579206 0.329326 0.285851 -0.518133
O22   O     O_2   0.794852 0.159628 0.393981 -0.456456
O23   O     O_R   0.732290 0.168200 0.097890 -0.418400
O24   O     O_2   0.414474 0.829729 0.709814 -0.485558
O25   O     O_2   0.796574 0.039988 0.212848 -0.507098
O26   O     O_2   0.264118 0.980422 0.122577 -0.553462
O27   O     O_2   0.200971 0.540456 0.789681 -0.546962
O28   O     O_2   0.660439 0.558339 0.939564 -0.436772
O29   O     O_2   0.118433 0.100857 0.768948 -0.519133
O30   O     O_2   0.978929 0.933628 0.327363 -0.512626
O31   O     O_2   0.882279 0.601423 0.232620 -0.488872
O32   O     O_2   0.017657 0.434977 0.671203 -0.497966
O33   O     O_R   0.267710 0.831800 0.902110 -0.525300
O34   O     O_R   0.099480 0.674460 0.038850 -0.530849
O35   O     O_R   0.900520 0.325540 0.961150 -0.548109
O36   O     O_R   0.900520 0.174460 0.961150 -0.526607
O37   O     O_R   0.099480 0.825540 0.038850 -0.530155
O38   O     O_R   0.116720 0.669210 0.267660 -0.509304

loop_
_geom_bond_atom_site_label_1
_geom_bond_atom_site_label_2
_ccdc_geom_bond_type
C44   C49   A    
Cr1   O33   S    
C30   C51   A    
Cr4   O6    S    
Cr5   O13   S    
C62   H22   S    
C14   H10   S    
C4    C8    D    
C25   O23   A    
C7    H8    S    
C28   C56   A    
C48   C57   S    
C20   C30   S    
C19   O6    A    
C22   O14   A    
C34   O37   A    
C17   H11   S    
C38   C42   A    
C55   H16   S    
C3    C7    D    
C10   C15   D    
C38   H23   S    
C20   O7    A    
Cr6   O19   S    
C22   O1    A    
Cr3   O4    S    
C12   O35   A    
C43   H31   S    
C36   C40   A    
C44   C53   S    
C64   H25   S    
Cr4   O2    S    
C16   C17   S    
Cr5   O17   S    
Cr3   O5    S    
C61   O28   D    
C16   H13   S    
C41   C46   A    
C23   O36   A    
C35   C67   A    
C2    C25   S    
C19   C27   S    
C25   O16   A    
C40   C44   A    
C30   C67   A    
C27   C50   A    
C27   C45   A    
Cr1   O34   S    
C31   C36   A    
Cr5   O14   S    
C10   C62   S    
C46   C54   S    
C3    C24   S    
C2    C6    D    
C5    C68   D    
C20   O11   A    
C33   C66   A    
C39   H27   S    
C64   O31   D    
C3    C61   S    
Cr1   O1    S    
C23   O3    A    
C59   O26   D    
Cr2   O36   S    
C8    H7    S    
C37   H12   S    
C7    C8    S    
C18   C28   S    
C18   O5    A    
C54   H15   S    
C26   O33   A    
C12   O2    A    
C39   C43   A    
Cr1   O18   S    
C21   C29   S    
Cr4   O7    S    
Cr2   O23   S    
C50   C56   A    
Cr1   O37   S    
C41   H29   S    
Cr3   O8    S    
C51   C66   A    
C62   O29   D    
C35   C39   A    
C9    C14   D    
C36   H1    S    
C59   C68   S    
C4    C22   S    
C28   C49   A    
C57   O24   D    
C45   C49   A    
C58   O25   D    
Cr5   O18   S    
Cr6   O10   S    
C4    C60   S    
C61   H21   S    
C32   C37   A    
C5    H6    S    
C1    O34   A    
C52   C67   A    
C65   O32   D    
Cr2   O19   S    
Cr6   O16   S    
C9    C34   S    
C34   O4    A    
C31   H32   S    
Cr3   O18   S    
C1    C13   S    
C26   O17   A    
C47   C55   S    
C43   C48   A    
Cr6   O11   S    
Cr4   O3    S    
Cr2   O35   S    
C57   H17   S    
C9    C63   S    
C65   H26   S    
C21   O8    A    
C42   H30   S    
C18   O9    A    
C32   H2    S    
C47   C51   A    
C11   C12   S    
C2    C58   S    
C10   C23   S    
C63   H24   S    
C54   O21   D    
C46   C50   A    
C35   H4    S    
C24   O12   A    
C33   C38   A    
Cr5   O9    S    
C13   C17   D    
Cr4   O19   S    
C26   C68   S    
C63   O30   D    
C21   O13   A    
C1    O38   A    
C33   H3    S    
C6    H5    S    
C5    C6    S    
C13   C64   S    
C19   O10   A    
Cr2   O12   S    
C15   H9    S    
C24   O15   A    
C53   H14   S    
C42   C47   A    
C37   C41   A    
C11   C16   D    
C53   O20   D    
C40   H28   S    
C29   C66   A    
C48   C52   A    
Cr6   O15   S    
C55   O22   D    
C31   C45   A    
C14   C15   S    
C59   H19   S    
C58   H18   S    
C60   O27   D    
C32   C56   A    
C11   C65   S    
Cr3   O38   S    
C29   C52   A    
C60   H20   S    
