data_mof_unit_46222.cif
_audit_creation_date              2012-12-11T14:56:04-0500
_audit_creation_method            fapswitch 2.2
_symmetry_space_group_name_H-M    P1
_symmetry_Int_Tables_number       1
_space_group_crystal_system       triclinic
_cell_length_a                    27.959497
_cell_length_b                    17.239507
_cell_length_c                    18.013103
_cell_angle_alpha                 90.082549
_cell_angle_beta                  137.886547
_cell_angle_gamma                 89.943626
_cell_volume                      5822.45782867

loop_
_atom_site_label
_atom_site_type_symbol
_atom_type_description
_atom_site_fract_x
_atom_site_fract_y
_atom_site_fract_z
_atom_type_partial_charge
C1    C     C_R   0.666400 0.923450 0.816905 -0.105419
C2    C     C_3   0.222752 0.657633 0.046258 0.018917
C3    C     C_3   0.664098 0.740323 0.941308 -0.242482
C4    C     C_3   0.163752 0.760469 0.941299 -0.133632
C5    C     C_3   0.830409 0.232321 0.066649 -0.248254
C6    C     C_3   0.793035 0.810170 0.093219 -0.154104
C7    C     C_3   0.206652 0.190455 0.907470 -0.258450
C8    C     C_3   0.204992 0.737682 0.060499 -0.256061
C9    C     C_3   0.801212 0.248321 0.953790 -0.272540
C10   C     C_3   0.752309 0.786873 0.975351 -0.128280
C11   C     C_3   0.248065 0.214987 0.025306 -0.239063
C12   C     C_3   0.741153 0.299039 0.011336 -0.241492
C13   C     C_3   0.267588 0.292608 0.012492 0.011073
C14   C     C_3   0.251678 0.713188 0.974948 -0.254065
C15   C     C_3   0.294195 0.235322 0.938253 -0.178955
C16   C     C_3   0.705276 0.763093 0.060501 -0.221669
C17   C     C_3   0.273547 0.769389 0.103891 0.106972
C18   C     C_3   0.725943 0.230008 0.895900 0.152143
C19   C     C_3   0.683409 0.819749 0.930341 0.084197
C20   C     C_3   0.316404 0.180695 0.069758 0.133051
C21   C     C_3   0.816864 0.317921 0.070798 0.159313
C22   C     C_3   0.182546 0.680787 0.929699 0.146915
C23   C     C_3   0.226297 0.269056 0.895489 0.094345
C24   C     C_3   0.733131 0.708256 0.986855 -0.025360
C25   C     C_3   0.773676 0.730626 0.103815 0.097150
C26   C     C_2   0.809016 0.401615 0.936607 0.497374
C27   C     C_2   0.216311 0.582523 0.079687 0.525072
C28   C     C_2   0.261604 0.368491 0.045699 0.468607
C29   C     C_2   0.737461 0.632703 0.950939 0.562352
C30   C     C_2   0.240055 0.867026 0.953981 0.446966
C31   C     C_2   0.737978 0.149353 0.040197 0.501850
C32   C     C_2   0.715575 0.918925 0.076650 0.545294
C33   C     C_2   0.281302 0.079290 0.922560 0.478156
C34   C     C_3   0.233036 0.791959 0.987094 0.041452
C35   C     C_3   0.754775 0.214201 0.006855 0.016322
C36   C     C_3   0.723640 0.842870 0.046901 -0.002031
C37   C     C_3   0.275496 0.156487 0.953195 0.023186
C38   C     C_R   0.612667 0.852011 0.357164 0.131696
C39   C     C_R   0.387443 0.147897 0.643006 0.129861
C40   C     C_R   0.284249 0.754759 0.379263 0.125171
C41   C     C_R   0.333301 0.076905 0.183014 -0.138342
C42   C     C_R   0.715749 0.245256 0.620725 0.120658
C43   C     C_R   0.215866 0.254800 0.620842 0.120693
C44   C     C_R   0.784134 0.745225 0.379051 0.117690
C45   C     C_R   0.887080 0.352092 0.642423 0.131111
C46   C     C_R   0.112951 0.647935 0.357640 0.129342
C47   C     C_R   0.394248 0.250556 0.742528 -0.226558
C48   C     C_R   0.605811 0.749406 0.257533 -0.225366
C49   C     C_R   0.737884 0.375085 0.600115 -0.213873
C50   C     C_R   0.262120 0.624934 0.399880 -0.223982
C51   C     C_R   0.761807 0.875124 0.399470 -0.210997
C52   C     C_R   0.312593 0.897947 0.197992 -0.149309
C53   C     C_R   0.238206 0.124886 0.600474 -0.206890
C54   C     C_R   0.106027 0.750469 0.258132 -0.224659
C55   C     C_R   0.894000 0.249571 0.741947 -0.228007
C56   C     C_R   0.422754 0.212750 0.714026 -0.157056
C57   C     C_R   0.577350 0.787164 0.286134 -0.159151
C58   C     C_R   0.694024 0.322906 0.586373 -0.181343
C59   C     C_R   0.305961 0.677101 0.413563 -0.187533
C60   C     C_R   0.805778 0.822922 0.413386 -0.157829
C61   C     C_R   0.194219 0.177105 0.586494 -0.180010
C62   C     C_R   0.077571 0.712693 0.286629 -0.152234
C63   C     C_R   0.687417 0.102059 0.801795 -0.045801
C64   C     C_R   0.922452 0.287331 0.713429 -0.160347
C65   C     C_R   0.334028 0.111284 0.622864 -0.271199
C66   C     C_R   0.666055 0.888653 0.377258 -0.262437
C67   C     C_R   0.786854 0.225194 0.688664 -0.298791
C68   C     C_R   0.213164 0.774846 0.311409 -0.297573
C69   C     C_R   0.713024 0.725096 0.310959 -0.298027
C70   C     C_R   0.286981 0.274925 0.688948 -0.293332
C71   C     C_R   0.166463 0.611398 0.377877 -0.270548
C72   C     C_R   0.833567 0.388632 0.622183 -0.264245
C73   C     C_R   0.302861 0.150917 0.645926 0.191741
C74   C     C_R   0.187510 0.397685 0.801476 -0.143209
C75   C     C_R   0.697177 0.849067 0.354091 0.178778
C76   C     C_R   0.829713 0.275868 0.697784 0.190135
C77   C     C_R   0.170312 0.724173 0.302294 0.191137
C78   C     C_R   0.670070 0.775778 0.301713 0.190871
C79   C     C_R   0.329959 0.224217 0.698273 0.197640
C80   C     C_R   0.197516 0.650960 0.354670 0.190765
C81   C     C_R   0.802508 0.349073 0.645384 0.183184
C82   C     C_R   0.360357 0.070834 0.492566 -0.129088
C83   C     C_R   0.639691 0.929130 0.507511 -0.119966
C84   C     C_R   0.674555 0.104835 0.595172 -0.154069
C85   C     C_R   0.812550 0.602118 0.198172 -0.148693
C86   C     C_R   0.325442 0.895167 0.404810 -0.144768
C87   C     C_R   0.825435 0.604815 0.404839 -0.140682
C88   C     C_R   0.174561 0.395201 0.595116 -0.145228
C89   C     C_R   0.139746 0.570790 0.507588 -0.128380
C90   C     C_R   0.860270 0.429219 0.492439 -0.127023
C91   C     C_R   0.408637 0.802977 0.495533 -0.143978
C92   C     C_R   0.591353 0.197020 0.504425 -0.139857
C93   C     C_R   0.557523 0.834551 0.420882 -0.119165
C94   C     C_R   0.442559 0.165374 0.579245 -0.115814
C95   C     C_R   0.942457 0.334643 0.579037 -0.126880
C96   C     C_R   0.834208 0.423274 0.183391 -0.100343
C97   C     C_R   0.057589 0.665395 0.421034 -0.122917
C98   C     C_R   0.091431 0.302953 0.504509 -0.136131
C99   C     C_R   0.908579 0.697053 0.495491 -0.136507
C100  C     C_R   0.604128 0.193908 0.713058 -0.140785
C101  C     C_R   0.395941 0.806240 0.286425 -0.142781
C102  C     C_R   0.417430 0.169077 0.273706 -0.120450
C103  C     C_R   0.582340 0.831273 0.726291 -0.102875
C104  C     C_R   0.081886 0.669253 0.725585 -0.144666
C105  C     C_R   0.918183 0.330659 0.274634 -0.155117
C106  C     C_R   0.895943 0.693694 0.286461 -0.126698
C107  C     C_R   0.165771 0.576559 0.816656 -0.104792
C108  C     C_R   0.104093 0.306148 0.713115 -0.135181
C109  C     C_R   0.639852 0.863382 0.828849 0.039172
C110  C     C_R   0.359796 0.137127 0.171165 0.084340
C111  C     C_R   0.325485 0.822413 0.193875 0.042150
C112  C     C_R   0.674507 0.177666 0.805321 0.079101
C113  C     C_R   0.174641 0.322075 0.805332 0.042476
C114  C     C_R   0.825459 0.677571 0.193874 0.053803
C115  C     C_R   0.860650 0.362365 0.171894 0.080338
C116  C     C_R   0.139067 0.637036 0.828166 0.109037
C117  C     C_R   0.396863 0.127821 0.575081 0.061389
C118  C     C_3   0.788377 0.334268 0.960256 0.014281
C119  C     C_R   0.603232 0.872098 0.425065 0.060476
C120  C     C_R   0.662442 0.184095 0.572061 0.076169
C121  C     C_R   0.337552 0.815908 0.427902 0.076869
C122  C     C_R   0.837499 0.684101 0.427863 0.075173
C123  C     C_R   0.162501 0.315918 0.572076 0.074136
C124  C     C_R   0.103363 0.627815 0.425287 0.062384
C125  C     C_R   0.896672 0.372212 0.574773 0.064127
C126  C     C_3   0.712174 0.315560 0.899323 -0.183114
C127  C     C_3   0.292293 0.689666 0.092653 -0.229969
C128  C     C_3   0.336190 0.259192 0.057609 -0.132284
H1    H     H_    0.714366 0.956413 0.882426 0.119464
H2    H     H_    0.217825 0.067743 0.563474 0.128222
H3    H     H_    0.082806 0.804975 0.213710 0.127809
H4    H     H_    0.917220 0.195067 0.786375 0.127485
H5    H     H_    0.417388 0.305138 0.786925 0.126157
H6    H     H_    0.582666 0.694830 0.213119 0.126977
H7    H     H_    0.717430 0.432170 0.563107 0.134777
H8    H     H_    0.282568 0.567841 0.436860 0.129688
H9    H     H_    0.321050 0.030870 0.468310 0.100635
H10   H     H_    0.678999 0.969095 0.531772 0.100747
H11   H     H_    0.726097 0.077198 0.658674 0.087978
H12   H     H_    0.285303 0.043969 0.117497 0.112276
H13   H     H_    0.273904 0.922812 0.341315 0.088040
H14   H     H_    0.773918 0.577100 0.341354 0.086549
H15   H     H_    0.226078 0.422918 0.658585 0.087736
H16   H     H_    0.179064 0.530804 0.531826 0.100350
H17   H     H_    0.820950 0.469206 0.468199 0.100829
H18   H     H_    0.434160 0.747674 0.515759 0.085326
H19   H     H_    0.565827 0.252322 0.484192 0.088133
H20   H     H_    0.521315 0.787924 0.366674 0.093112
H21   H     H_    0.478841 0.211930 0.633558 0.095865
H22   H     H_    0.978648 0.288038 0.633173 0.093367
H23   H     H_    0.260997 0.925234 0.144801 0.106851
H24   H     H_    0.021463 0.712058 0.366986 0.093372
H25   H     H_    0.065991 0.247635 0.484422 0.084242
H26   H     H_    0.934046 0.752363 0.515637 0.090579
H27   H     H_    0.579396 0.250563 0.684641 0.084308
H28   H     H_    0.420528 0.749510 0.315062 0.091832
H29   H     H_    0.447783 0.219777 0.292989 0.105109
H30   H     H_    0.551924 0.780651 0.707017 0.096289
H31   H     H_    0.051972 0.720522 0.706110 0.108531
H32   H     H_    0.948434 0.279629 0.294559 0.102187
H33   H     H_    0.920804 0.750283 0.314713 0.090612
H34   H     H_    0.738987 0.074622 0.855368 0.073724
H35   H     H_    0.079140 0.249604 0.684744 0.090098
H36   H     H_    0.187899 0.748526 0.098932 0.138721
H37   H     H_    0.823961 0.226814 0.926895 0.130167
H38   H     H_    0.771195 0.796587 0.939384 0.142665
H39   H     H_    0.229696 0.206902 0.062276 0.132080
H40   H     H_    0.716455 0.319406 0.035490 0.120075
H41   H     H_    0.270442 0.703517 0.938766 0.131287
H42   H     H_    0.311035 0.244400 0.899201 0.138391
H43   H     H_    0.688012 0.752572 0.098705 0.132950
H44   H     H_    0.663518 0.349444 0.829939 0.118127
H45   H     H_    0.239083 0.425046 0.854723 0.104453
H46   H     H_    0.345131 0.660690 0.155093 0.130434
H47   H     H_    0.389685 0.286771 0.119873 0.134276
H48   H     H_    0.610932 0.712044 0.878487 0.119475
H49   H     H_    0.110681 0.788949 0.878725 0.135324
H50   H     H_    0.878865 0.197750 0.134922 0.122997
H51   H     H_    0.846094 0.838685 0.155881 0.131703
H52   H     H_    0.153414 0.162297 0.845498 0.131537
H53   H     H_    0.690735 0.941534 0.425412 0.119621
H54   H     H_    0.309355 0.058395 0.574728 0.119297
H55   H     H_    0.194101 0.833027 0.278989 0.119112
H56   H     H_    0.760965 0.574866 0.145199 0.079514
H57   H     H_    0.805924 0.167021 0.721117 0.118863
H58   H     H_    0.305988 0.333144 0.721400 0.117758
H59   H     H_    0.694015 0.666880 0.278495 0.119042
H60   H     H_    0.808804 0.441425 0.573992 0.120309
H61   H     H_    0.191226 0.558601 0.426061 0.119206
H62   H     H_    0.532169 0.760638 0.261235 0.115353
H63   H     H_    0.467958 0.239249 0.738967 0.118665
H64   H     H_    0.358911 0.657684 0.460139 0.116812
H65   H     H_    0.641055 0.342306 0.539713 0.121153
H66   H     H_    0.141229 0.157682 0.539667 0.115965
H67   H     H_    0.786468 0.456438 0.117668 0.106930
H68   H     H_    0.858759 0.842352 0.460174 0.121848
H69   H     H_    0.967711 0.260882 0.738430 0.115895
H70   H     H_    0.032302 0.739129 0.261611 0.118175
H71   H     H_    0.825214 0.392199 0.898141 0.017195
H72   H     H_    0.249504 0.571889 0.166138 0.012948
H73   H     H_    0.210615 0.386217 0.009729 0.076046
H74   H     H_    0.722381 0.579263 0.961102 -0.001217
H75   H     H_    0.291454 0.884281 0.991037 0.043636
H76   H     H_    0.767640 0.144644 0.125833 0.036273
H77   H     H_    0.663519 0.937025 0.036426 0.022595
H78   H     H_    0.213512 0.543395 0.882398 0.122296
H79   H     H_    0.233871 0.044595 0.858786 0.053443
H80   H     H_    0.782190 0.932265 0.436478 0.132859
N1    N     N_R   0.625380 0.928280 0.709340 -0.048538
N2    N     N_R   0.613900 0.929750 0.547530 -0.043899
N3    N     N_R   0.613900 0.070250 0.547530 -0.039231
N4    N     N_R   0.386100 0.929750 0.452470 -0.036928
N5    N     N_R   0.886100 0.570250 0.452470 -0.036967
N6    N     N_R   0.113900 0.429750 0.547530 -0.036677
N7    N     N_R   0.113900 0.570250 0.547530 -0.043883
N8    N     N_R   0.886100 0.429750 0.452470 -0.044194
N9    N     N_R   0.437800 0.869550 0.507970 -0.037785
N10   N     N_R   0.562200 0.130450 0.492030 -0.037899
N11   N     N_R   0.562200 0.869550 0.492030 -0.042970
N12   N     N_R   0.374620 0.071720 0.290660 -0.044660
N13   N     N_R   0.437800 0.130450 0.507970 -0.044456
N14   N     N_R   0.937800 0.369550 0.507970 -0.043996
N15   N     N_R   0.062200 0.630450 0.492030 -0.043829
N16   N     N_R   0.062200 0.369550 0.492030 -0.035548
N17   N     N_R   0.937800 0.630450 0.507970 -0.036561
N18   N     N_R   0.573690 0.128980 0.653840 -0.037531
N19   N     N_R   0.426310 0.871020 0.346160 -0.035525
N20   N     N_R   0.426310 0.128980 0.346160 -0.045512
N21   N     N_R   0.573690 0.871020 0.653840 -0.044926
N22   N     N_R   0.073690 0.628980 0.653840 -0.045014
N23   N     N_R   0.374620 0.928280 0.290660 -0.033329
N24   N     N_R   0.926310 0.371020 0.346160 -0.043337
N25   N     N_R   0.926310 0.628980 0.346160 -0.036576
N26   N     N_R   0.073690 0.371020 0.653840 -0.035217
N27   N     N_R   0.625380 0.071720 0.709340 -0.040922
N28   N     N_R   0.125380 0.428280 0.709340 -0.033240
N29   N     N_R   0.874620 0.571720 0.290660 -0.030797
N30   N     N_R   0.874620 0.428280 0.290660 -0.050197
N31   N     N_R   0.125380 0.571720 0.709340 -0.052624
N32   N     N_R   0.386100 0.070250 0.452470 -0.043155
Ni1   Ni    Ni4+2 0.616560 0.000000 0.627280 0.216805
Ni2   Ni    Ni4+2 0.383440 1.000000 0.372720 0.216767
Ni3   Ni    Ni4+2 0.116560 0.500000 0.627280 0.217151
Ni4   Ni    Ni4+2 0.883440 0.500000 0.372720 0.215229
Ni5   Ni    Ni4+2 0.497990 0.870580 0.500000 0.217706
Ni6   Ni    Ni4+2 0.502010 0.129420 0.500000 0.216025
Ni7   Ni    Ni4+2 0.997990 0.370580 0.500000 0.213855
Ni8   Ni    Ni4+2 0.002010 0.629420 0.500000 0.220989
O1    O     O_2   0.806318 0.467367 0.958353 -0.549085
O2    O     O_2   0.173731 0.533367 0.010390 -0.595203
O3    O     O_2   0.313592 0.410410 0.112672 -0.592656
O4    O     O_2   0.757380 0.631027 0.909418 -0.536679
O5    O     O_2   0.188332 0.908990 0.885850 -0.607800
O6    O     O_2   0.691116 0.102420 0.972461 -0.579306
O7    O     O_2   0.767242 0.960715 0.145961 -0.586379
O8    O     O_2   0.339193 0.055492 0.968299 -0.572900

loop_
_geom_bond_atom_site_label_1
_geom_bond_atom_site_label_2
_ccdc_geom_bond_type
C103  N21   A    
C63   H34   S    
N19   N23   A    
C68   H55   S    
N8    Ni4   S    
C106  N25   A    
C6    H51   S    
C49   C58   A    
N3    Ni1   S    
C47   C79   A    
C4    H49   S    
C4    C8    S    
C42   C120  S    
C42   C58   A    
C90   N8    A    
C3    C24   S    
C84   N3    A    
C48   C57   A    
C60   H68   S    
C94   H21   S    
C7    C11   S    
C40   C121  S    
C58   H65   S    
C13   C23   S    
C88   N6    A    
C82   H9    S    
C106  C114  A    
C28   H73   S    
C32   C36   S    
N28   Ni3   S    
C48   H6    S    
C85   C114  A    
C27   O2    D    
N9    Ni5   S    
C20   C128  S    
C97   C124  A    
C1    H1    S    
C19   C36   S    
C88   C123  A    
C52   N23   A    
C94   C117  A    
C105  H32   S    
N20   Ni6   S    
N4    N9    A    
C83   C119  A    
C99   H26   S    
N30   Ni4   S    
C16   C25   S    
C65   C73   A    
N12   N20   A    
C93   H20   S    
C54   H3    S    
C106  H33   S    
C48   C78   A    
C63   C112  A    
N25   N29   A    
C24   C29   S    
C72   H60   S    
C107  H78   S    
N4    Ni2   S    
C1    C109  A    
C104  C116  A    
C13   C128  S    
C53   C61   A    
C97   H24   S    
C96   H67   S    
N27   Ni1   S    
C38   C66   A    
C84   H11   S    
C45   C125  S    
C41   H12   S    
C98   N16   A    
C2    C22   S    
C94   N13   A    
N11   Ni5   S    
C13   C28   S    
C3    C19   S    
C2    C27   S    
C18   C35   S    
C69   H59   S    
C88   H15   S    
C85   N29   A    
C72   C81   A    
N29   Ni4   S    
C21   C115  S    
C89   N7    A    
C54   C77   A    
N21   Ni5   S    
C2    C127  S    
N17   Ni8   S    
C15   C23   S    
C103  C109  A    
C49   H7    S    
C98   H25   S    
C40   C68   A    
C40   C59   A    
C64   H69   S    
C47   H5    S    
C92   H19   S    
N24   N30   A    
C9    C118  S    
C39   C65   A    
C46   C124  S    
N22   N31   A    
N26   N28   A    
C14   H41   S    
C17   C111  S    
C102  H29   S    
N32   Ni2   S    
C71   C80   A    
N18   Ni6   S    
C4    C34   S    
C65   H54   S    
C19   C109  S    
C7    C37   S    
C98   C123  A    
C107  C116  A    
C108  H35   S    
C108  N26   A    
C11   C20   S    
C44   C60   A    
C95   N14   A    
C46   C71   A    
C30   C34   S    
N13   N32   A    
C1    N1    A    
C11   H39   S    
C105  N24   A    
N23   Ni2   S    
N5    N17   A    
C24   C25   S    
C62   H70   S    
C74   H45   S    
C8    H36   S    
N1    Ni1   S    
C70   H58   S    
C51   H80   S    
C17   C127  S    
N7    N15   A    
C54   C62   A    
C101  H28   S    
C10   C24   S    
C39   C117  S    
C74   C113  A    
N12   Ni2   S    
C12   C21   S    
C33   C37   S    
C14   C127  S    
C97   N15   A    
C15   H42   S    
C82   N32   A    
N6    Ni3   S    
C108  C113  A    
C91   N9    A    
C100  N18   A    
C29   O4    D    
C44   C122  S    
C5    C9    S    
C21   C118  S    
C30   H75   S    
C26   O1    D    
N26   Ni7   S    
C23   C113  S    
C38   C57   A    
C4    C22   S    
N14   Ni7   S    
C95   C125  A    
N16   Ni7   S    
C104  N22   A    
C39   C56   A    
C10   C19   S    
C84   C120  A    
C55   C64   A    
C86   C121  A    
C102  N20   A    
C73   C79   A    
C30   O5    D    
C5    C21   S    
C44   C69   A    
C103  H30   S    
C95   H22   S    
N1    N21   A    
C71   H61   S    
C12   C35   S    
C92   N10   A    
C26   H71   S    
C31   H76   S    
C99   N17   A    
N6    N16   A    
C99   C122  A    
C20   C110  S    
C38   C119  S    
C100  H27   S    
C66   H53   S    
C46   C62   A    
C100  C112  A    
C85   H56   S    
C41   C110  A    
C91   C121  A    
C42   C67   A    
N15   Ni8   S    
C31   C35   S    
C102  C110  A    
C101  C111  A    
C17   C34   S    
C55   C76   A    
C104  H31   S    
C74   N28   A    
C43   C123  S    
C51   C75   A    
C41   N12   A    
N22   Ni8   S    
C43   C61   A    
C77   C80   A    
C68   C77   A    
N3    N10   A    
C15   C128  S    
C33   H79   S    
C128  H47   S    
C29   H74   S    
N2    N11   A    
C31   O6    D    
C70   C79   A    
C96   N30   A    
N19   Ni5   S    
C105  C115  A    
C33   O8    D    
C53   C73   A    
C27   H72   S    
C26   C118  S    
N2    Ni1   S    
C18   C112  S    
C59   H64   S    
C50   C80   A    
C76   C81   A    
C14   C34   S    
C87   C122  A    
N25   Ni8   S    
C51   C60   A    
C89   C124  A    
C10   H38   S    
C43   C70   A    
C89   H16   S    
C118  C126  S    
C45   C64   A    
N7    Ni3   S    
C96   C115  A    
C52   C111  A    
C93   N11   A    
C101  N19   A    
N24   Ni7   S    
N10   Ni6   S    
C9    H37   S    
C50   C59   A    
C92   C120  A    
C28   O3    D    
C57   H62   S    
C12   H40   S    
C50   H8    S    
C25   C114  S    
C18   C126  S    
C8    C17   S    
C15   C37   S    
C20   C37   S    
C11   C13   S    
C16   H43   S    
C14   C22   S    
C107  N31   A    
C9    C18   S    
C127  H46   S    
C52   H23   S    
C7    C23   S    
C66   C75   A    
C5    C35   S    
C32   O7    D    
C22   C116  S    
C90   C125  A    
C6    C36   S    
C7    H52   S    
N5    Ni4   S    
C49   C81   A    
C83   H10   S    
C87   H14   S    
C75   C78   A    
N8    N14   A    
C5    H50   S    
C56   H63   S    
C83   N2    A    
C126  H44   S    
C6    C10   S    
N18   N27   A    
C63   N27   A    
C6    C25   S    
C67   H57   S    
C3    H48   S    
C12   C126  S    
C87   N5    A    
C86   N4    A    
C55   H4    S    
N13   Ni6   S    
C2    C8    S    
C90   H17   S    
N31   Ni3   S    
C53   H2    S    
C93   C119  A    
C82   C117  A    
C69   C78   A    
C32   H77   S    
C61   H66   S    
C91   H18   S    
C16   C36   S    
C3    C16   S    
C67   C76   A    
C86   H13   S    
C47   C56   A    
C45   C72   A    
