data_mof_unit_24483.cif
_audit_creation_date              2012-12-10T16:40:38-0500
_audit_creation_method            fapswitch 2.2
_symmetry_space_group_name_H-M    P1
_symmetry_Int_Tables_number       1
_space_group_crystal_system       triclinic
_cell_length_a                    16.828827
_cell_length_b                    16.810746
_cell_length_c                    16.82175
_cell_angle_alpha                 67.586208
_cell_angle_beta                  67.426939
_cell_angle_gamma                 67.307407
_cell_volume                      3899.34252799

loop_
_atom_site_label
_atom_site_type_symbol
_atom_type_description
_atom_site_fract_x
_atom_site_fract_y
_atom_site_fract_z
_atom_type_partial_charge
C1    C     C_R   0.598754 0.025421 0.592359 -0.042315
C2    C     C_R   0.170953 0.432803 0.977189 0.807320
C3    C     C_R   0.567322 0.022381 0.829351 0.820043
C4    C     C_R   0.432609 0.978503 0.170512 0.808236
C5    C     C_R   0.436040 0.171610 0.969959 0.811940
C6    C     C_R   0.563808 0.828304 0.030117 0.805388
C7    C     C_R   0.971597 0.435572 0.171482 0.816403
C8    C     C_R   0.030410 0.563684 0.828258 0.806944
C9    C     C_R   0.171579 0.972532 0.435200 0.804292
C10   C     C_R   0.828403 0.031384 0.563639 0.829967
C11   C     C_R   0.548176 0.019080 0.541327 0.155549
C12   C     C_R   0.397275 0.995973 0.400466 -0.047120
C13   C     C_R   0.449657 0.005478 0.447737 0.152098
C14   C     C_R   0.014927 0.542963 0.547405 0.154267
C15   C     C_R   0.004605 0.447134 0.449203 0.153776
C16   C     C_R   0.548579 0.550132 0.002549 0.152779
C17   C     C_R   0.456096 0.451589 0.987425 0.152295
C18   C     C_R   0.472562 0.089118 0.523004 -0.119511
C19   C     C_R   0.525805 0.935941 0.465320 -0.126054
C20   C     C_R   0.938073 0.515467 0.571841 -0.095520
C21   C     C_R   0.081864 0.473911 0.425214 -0.093595
C22   C     C_R   0.515835 0.579393 0.928070 -0.097423
C23   C     C_R   0.020849 0.593216 0.598926 -0.046248
C24   C     C_R   0.489138 0.422180 0.061721 -0.097720
C25   C     C_R   0.423661 0.082556 0.475986 -0.093278
C26   C     C_R   0.574919 0.942709 0.511860 -0.097862
C27   C     C_R   0.469605 0.530347 0.920642 -0.120670
C28   C     C_R   0.535326 0.471219 0.069153 -0.123043
C29   C     C_R   0.932985 0.467668 0.522882 -0.126416
C30   C     C_R   0.086858 0.521971 0.474073 -0.122777
C31   C     C_R   0.566782 0.007232 0.685953 0.090424
C32   C     C_R   0.430122 0.006752 0.308000 0.095988
C33   C     C_R   0.004924 0.686665 0.566462 0.089278
C34   C     C_R   0.996627 0.399440 0.396397 -0.044757
C35   C     C_R   0.008780 0.306834 0.428648 0.088866
C36   C     C_R   0.690162 0.570368 0.996145 0.084741
C37   C     C_R   0.312966 0.432755 0.995706 0.094616
C38   C     C_R   0.315794 0.974668 0.447764 0.110055
C39   C     C_R   0.680221 0.046888 0.547618 0.103932
C40   C     C_R   0.452406 0.319037 0.957525 0.105487
C41   C     C_R   0.549411 0.681949 0.036223 0.109286
C42   C     C_R   0.974257 0.446957 0.315620 0.109071
C43   C     C_R   0.041073 0.547674 0.681000 0.110856
C44   C     C_R   0.606130 0.030588 0.732425 -0.149728
C45   C     C_R   0.596713 0.601766 0.011668 -0.043174
C46   C     C_R   0.394280 0.973426 0.266947 -0.149646
C47   C     C_R   0.030375 0.731768 0.605410 -0.133399
C48   C     C_R   0.976554 0.265398 0.392267 -0.146424
C49   C     C_R   0.732996 0.606858 0.026799 -0.132217
C50   C     C_R   0.268548 0.395021 0.968041 -0.152529
C51   C     C_R   0.269901 0.959997 0.401270 -0.128177
C52   C     C_R   0.729832 0.048794 0.597999 -0.151925
C53   C     C_R   0.402978 0.270598 0.952061 -0.127841
C54   C     C_R   0.597288 0.729484 0.045733 -0.146640
C55   C     C_R   0.960754 0.400367 0.269019 -0.152941
C56   C     C_R   0.406537 0.400590 0.979484 -0.043445
C57   C     C_R   0.047287 0.596933 0.729336 -0.147855
C58   C     C_R   0.685157 0.059155 0.685126 0.000877
C59   C     C_R   0.318920 0.939746 0.318633 -0.014165
C60   C     C_R   0.062012 0.681961 0.682527 -0.005892
C61   C     C_R   0.945144 0.315572 0.315287 -0.001227
C62   C     C_R   0.681917 0.682335 0.061053 -0.006365
C63   C     C_R   0.318580 0.318117 0.935705 -0.008827
C64   C     C_3   0.706511 0.124110 0.712886 -0.339368
C65   C     C_3   0.770219 0.080517 0.773793 -0.269890
C66   C     C_3   0.837407 0.132964 0.747508 -0.767775
C67   C     C_R   0.022107 0.829167 0.567342 0.812602
C68   C     C_3   0.296105 0.875868 0.291156 -0.327115
C69   C     C_3   0.282842 0.790800 0.367811 -0.400865
C70   C     C_3   0.269128 0.724163 0.336475 -0.767816
C71   C     C_3   0.123302 0.710224 0.707720 -0.328210
C72   C     C_3   0.207586 0.723434 0.629802 -0.387883
C73   C     C_3   0.283540 0.716078 0.662941 -0.780091
C74   C     C_3   0.874626 0.293115 0.297090 -0.348490
C75   C     C_3   0.911526 0.231509 0.234547 -0.267061
C76   C     C_3   0.854893 0.260975 0.170334 -0.770632
C77   C     C_3   0.708563 0.705528 0.124969 -0.333608
C78   C     C_R   0.979165 0.170152 0.432293 0.827295
C79   C     C_3   0.719703 0.626416 0.208764 -0.380994
C80   C     C_3   0.713557 0.657645 0.285651 -0.782050
C81   C     C_3   0.288661 0.292487 0.875725 -0.330606
C82   C     C_3   0.363777 0.277006 0.789909 -0.390627
C83   C     C_3   0.332389 0.252580 0.730584 -0.760816
C84   C     C_R   0.829562 0.567857 0.020954 0.817308
Cu1   Cu    Cu3+1 0.995180 0.995180 0.424630 0.996580
Cu2   Cu    Cu3+1 0.004820 0.004820 0.575370 0.989068
Cu3   Cu    Cu3+1 0.995180 0.424630 0.995180 0.993909
Cu4   Cu    Cu3+1 0.004820 0.575370 0.004820 1.017681
Cu5   Cu    Cu3+1 0.424630 0.995180 0.995180 1.018627
Cu6   Cu    Cu3+1 0.575370 0.004820 0.004820 0.994509
H1    H     H_    0.633232 0.888333 0.525654 0.157984
H2    H     H_    0.525910 0.640142 0.876215 0.159710
H3    H     H_    0.137451 0.458302 0.368382 0.159226
H4    H     H_    0.882336 0.531300 0.628494 0.160106
H5    H     H_    0.880259 0.135817 0.677953 0.281567
H6    H     H_    0.801340 0.202457 0.753055 0.261850
H7    H     H_    0.881200 0.099842 0.793101 0.241502
H8    H     H_    0.731398 0.080892 0.843904 0.242491
H9    H     H_    0.806328 0.009578 0.773811 0.234560
H10   H     H_    0.734827 0.172178 0.650944 0.184761
H11   H     H_    0.642970 0.167077 0.746555 0.176956
H12   H     H_    0.365162 0.136763 0.462429 0.161501
H13   H     H_    0.210415 0.755824 0.308823 0.277031
H14   H     H_    0.329852 0.700517 0.284504 0.267332
H15   H     H_    0.256642 0.665327 0.394035 0.230476
H16   H     H_    0.342533 0.757901 0.394113 0.220783
H17   H     H_    0.223215 0.807650 0.423487 0.212662
H18   H     H_    0.235858 0.911131 0.266078 0.230409
H19   H     H_    0.351938 0.851324 0.236397 0.213930
H20   H     H_    0.260196 0.762838 0.704555 0.285157
H21   H     H_    0.307540 0.646562 0.703552 0.240462
H22   H     H_    0.340410 0.733063 0.604785 0.248241
H23   H     H_    0.146532 0.542875 0.454948 0.137300
H24   H     H_    0.231772 0.671821 0.593292 0.218963
H25   H     H_    0.191747 0.790441 0.582005 0.225695
H26   H     H_    0.086829 0.771040 0.731937 0.226304
H27   H     H_    0.147711 0.656923 0.763799 0.208132
H28   H     H_    0.784872 0.259207 0.208671 0.260682
H29   H     H_    0.854198 0.329839 0.126725 0.280113
H30   H     H_    0.883174 0.214772 0.127295 0.244790
H31   H     H_    0.982589 0.227954 0.196177 0.235596
H32   H     H_    0.908771 0.162299 0.274441 0.244416
H33   H     H_    0.831389 0.262048 0.361704 0.176648
H34   H     H_    0.873067 0.447248 0.541769 0.140055
H35   H     H_    0.828001 0.357269 0.269452 0.180963
H36   H     H_    0.761069 0.697924 0.263283 0.284881
H37   H     H_    0.644461 0.699301 0.309907 0.239916
H38   H     H_    0.730139 0.598537 0.341951 0.248615
H39   H     H_    0.666268 0.592783 0.231587 0.218504
H40   H     H_    0.785562 0.576313 0.193271 0.222369
H41   H     H_    0.769795 0.728740 0.090903 0.227240
H42   H     H_    0.655073 0.761907 0.149342 0.206899
H43   H     H_    0.277073 0.308738 0.707365 0.269928
H44   H     H_    0.388880 0.239150 0.671055 0.231903
H45   H     H_    0.560459 0.448071 0.126880 0.141844
H46   H     H_    0.309179 0.191384 0.767862 0.275850
H47   H     H_    0.385545 0.338977 0.751485 0.220336
H48   H     H_    0.422998 0.221827 0.805932 0.215435
H49   H     H_    0.263843 0.232415 0.913778 0.230557
H50   H     H_    0.233112 0.347439 0.851852 0.215134
H51   H     H_    0.444252 0.553602 0.863045 0.141166
H52   H     H_    0.546549 0.876269 0.443573 0.139412
H53   H     H_    0.451509 0.148423 0.545414 0.136919
H54   H     H_    0.478878 0.361557 0.113712 0.162044
I1    I     I_    0.461991 0.940681 0.750374 -0.298216
I2    I     I_    0.405178 0.721576 0.069690 -0.332437
I3    I     I_    0.955850 0.589998 0.272610 -0.319609
I4    I     I_    0.071571 0.403449 0.722962 -0.337828
I5    I     I_    0.528340 0.081260 0.236286 -0.297713
I6    I     I_    0.938058 0.752851 0.461793 -0.295990
I7    I     I_    0.081686 0.235636 0.528401 -0.299889
I8    I     I_    0.760522 0.472273 0.920881 -0.305588
I9    I     I_    0.245239 0.533284 0.068263 -0.283500
I10   I     I_    0.271276 0.958441 0.590333 -0.319299
I11   I     I_    0.719438 0.087167 0.403404 -0.356616
I12   I     I_    0.596817 0.278957 0.920222 -0.351472
O1    O     O_R   0.124540 0.978640 0.385460 -0.588011
O2    O     O_R   0.124540 0.385460 0.978640 -0.593696
O3    O     O_R   0.021360 0.875460 0.614540 -0.590787
O4    O     O_R   0.978640 0.124540 0.385460 -0.600348
O5    O     O_R   0.013780 0.867370 0.487190 -0.548277
O6    O     O_R   0.986220 0.132630 0.512810 -0.567160
O7    O     O_R   0.867370 0.487190 0.013780 -0.568283
O8    O     O_R   0.132630 0.512810 0.986220 -0.548409
O9    O     O_R   0.487190 0.013780 0.867370 -0.548736
O10   O     O_R   0.512810 0.986220 0.132630 -0.550844
O11   O     O_R   0.512810 0.132630 0.986220 -0.544083
O12   O     O_R   0.875460 0.021360 0.614540 -0.590007
O13   O     O_R   0.487190 0.867370 0.013780 -0.537966
O14   O     O_R   0.986220 0.512810 0.132630 -0.540503
O15   O     O_R   0.013780 0.487190 0.867370 -0.535511
O16   O     O_R   0.132630 0.986220 0.512810 -0.540131
O17   O     O_R   0.867370 0.013780 0.487190 -0.543563
O18   O     O_R   0.978640 0.385460 0.124540 -0.587482
O19   O     O_R   0.021360 0.614540 0.875460 -0.594879
O20   O     O_R   0.385460 0.124540 0.978640 -0.586585
O21   O     O_R   0.614540 0.875460 0.021360 -0.595398
O22   O     O_R   0.614540 0.021360 0.875460 -0.601338
O23   O     O_R   0.385460 0.978640 0.124540 -0.591458
O24   O     O_R   0.875460 0.614540 0.021360 -0.587417

loop_
_geom_bond_atom_site_label_1
_geom_bond_atom_site_label_2
_ccdc_geom_bond_type
C16   C28   A    
C81   H50   S    
Cu3   O7    S    
Cu3   Cu4   S    
Cu6   O22   S    
C11   C18   A    
Cu6   O11   S    
C75   H32   S    
Cu1   O5    S    
C62   C77   S    
C9    C51   S    
C7    C55   S    
C10   C52   S    
C81   C82   S    
C69   H17   S    
C8    O19   A    
C73   H20   S    
C4    C46   S    
Cu1   Cu2   S    
C72   H25   S    
C3    O9    A    
C76   H30   S    
Cu4   O19   S    
Cu1   O1    S    
C63   C81   S    
Cu2   O16   S    
C49   C84   S    
C5    C53   S    
C18   H53   S    
C3    O22   A    
C14   C30   A    
C65   H8    S    
C82   H47   S    
C33   I6    S    
C59   C68   S    
C70   H14   S    
C25   H12   S    
C74   H35   S    
C35   C48   A    
C79   H39   S    
C29   H34   S    
C72   H24   S    
C1    C31   A    
C23   C43   A    
C34   C35   A    
C77   H41   S    
C48   C78   S    
C84   O24   A    
C19   C26   A    
C83   H44   S    
C43   I4    S    
C2    C50   S    
C47   C60   A    
C37   C56   A    
C32   I5    S    
C44   C58   A    
C68   C69   S    
C40   C56   A    
C34   C42   A    
Cu1   O17   S    
C15   C29   A    
Cu2   O6    S    
Cu1   O4    S    
C80   H36   S    
Cu2   O3    S    
C15   C34   S    
C8    O15   A    
C10   O17   A    
C5    O11   A    
C74   H33   S    
Cu6   O21   S    
C12   C32   A    
C50   C63   A    
C13   C25   A    
C18   C25   A    
C35   I7    S    
C6    C54   S    
C42   I3    S    
C47   C67   S    
Cu4   O24   S    
C20   C29   A    
C77   C79   S    
C58   C64   S    
C64   H11   S    
C3    C44   S    
C17   C24   A    
Cu4   O14   S    
C74   C75   S    
C71   H27   S    
C17   C27   A    
C37   I9    S    
C73   H21   S    
Cu2   O12   S    
C65   H9    S    
C76   H29   S    
C31   C44   A    
C2    O8    A    
C1    C39   A    
C70   H13   S    
C41   I2    S    
C57   C60   A    
C38   C51   A    
C80   H38   S    
C60   C71   S    
C23   C33   A    
C26   H1    S    
Cu4   O8    S    
C79   H40   S    
C82   C83   S    
C76   H28   S    
C39   I11   S    
C77   H42   S    
C14   C23   S    
C75   C76   S    
C14   C20   A    
C42   C55   A    
C67   O5    A    
C9    O1    A    
C2    O2    A    
Cu3   O15   S    
C36   C45   A    
C17   C56   S    
Cu5   O9    S    
C83   H46   S    
C84   O7    A    
C52   C58   A    
C78   O4    A    
C78   O6    A    
C19   H52   S    
C22   C27   A    
C6    O21   A    
C33   C47   A    
C5    O20   A    
C51   C59   A    
C38   I10   S    
C4    O23   A    
C66   H7    S    
C73   H22   S    
C66   H6    S    
C81   H49   S    
Cu3   O18   S    
C20   H4    S    
C16   C22   A    
C49   C62   A    
C75   H31   S    
C32   C46   A    
C36   I8    S    
C24   C28   A    
C28   H45   S    
C72   C73   S    
C70   H15   S    
C16   C45   S    
C69   H16   S    
C40   C53   A    
C80   H37   S    
C61   C74   S    
C54   C62   A    
C21   C30   A    
C11   C26   A    
Cu3   O2    S    
C64   C65   S    
Cu5   O13   S    
C71   C72   S    
C82   H48   S    
C41   C45   A    
C37   C50   A    
C53   C63   A    
C48   C61   A    
C15   C21   A    
C21   H3    S    
C24   H54   S    
C55   C61   A    
C7    O18   A    
C27   H51   S    
C4    O10   A    
C71   H26   S    
C39   C52   A    
C68   H19   S    
Cu5   O23   S    
C12   C38   A    
C69   C70   S    
C41   C54   A    
C83   H43   S    
C43   C57   A    
C79   C80   S    
C31   I1    S    
C64   H10   S    
C12   C13   S    
C46   C59   A    
C10   O12   A    
C65   C66   S    
C7    O14   A    
C13   C19   A    
C22   H2    S    
C40   I12   S    
C9    O16   A    
C67   O3    A    
C1    C11   S    
C68   H18   S    
Cu5   O20   S    
Cu5   Cu6   S    
C6    O13   A    
C8    C57   S    
Cu6   O10   S    
C36   C49   A    
C66   H5    S    
C30   H23   S    
