data_mof_unit_63894.cif
_audit_creation_date              2013-03-05T16:01:41-0500
_audit_creation_method            fapswitch 2.2
_symmetry_space_group_name_H-M    P1
_symmetry_Int_Tables_number       1
_space_group_crystal_system       triclinic
_cell_length_a                    18.991258
_cell_length_b                    18.953997
_cell_length_c                    18.929578
_cell_angle_alpha                 109.007446
_cell_angle_beta                  110.208983
_cell_angle_gamma                 109.682949
_cell_volume                      5213.22866573

loop_
_atom_site_label
_atom_site_type_symbol
_atom_site_description
_atom_site_fract_x
_atom_site_fract_y
_atom_site_fract_z
_atom_type_partial_charge
O1    O     O_R   0.591300 0.538410 0.447360 -0.580307
O2    O     O_R   0.591030 0.643900 0.552660 -0.577494
C1    C     C_R   0.616119 0.620138 0.497284 0.768941
O3    O     O_R   0.408770 0.447260 0.356000 -0.535104
O4    O     O_R   0.408500 0.552750 0.461290 -0.516662
C2    C     C_R   0.380934 0.499997 0.380251 0.923029
Cu1   Cu    Cu3+1 0.500160 0.437540 0.437660 1.131368
Cu2   Cu    Cu3+1 0.499840 0.562460 0.562340 1.222123
O5    O     O_R   0.408970 0.356100 0.447340 -0.574503
O6    O     O_R   0.408700 0.461590 0.552640 -0.504918
O7    O     O_R   0.591500 0.447250 0.538710 -0.584767
O8    O     O_R   0.591230 0.552740 0.644000 -0.551836
C3    C     C_R   0.379821 0.380719 0.498938 0.896703
C4    C     C_R   0.620581 0.501340 0.620306 0.825275
C5    C     C_3   0.320814 0.520300 0.241798 0.217952
C6    C     C_3   0.282485 0.579605 0.259599 -0.208764
C7    C     C_3   0.189495 0.500363 0.189595 -0.321102
C8    C     C_3   0.229359 0.442696 0.172367 0.255623
C9    C     C_3   0.221158 0.420959 0.241384 0.209632
C10   C     C_3   0.180572 0.478062 0.259718 -0.252564
C11   C     C_3   0.273619 0.557206 0.329136 0.189547
C12   C     C_3   0.313179 0.499035 0.311589 -0.284365
C13   C     C_3   0.772912 0.703134 0.552692 -0.405222
H1    H     H_    0.767458 0.638699 0.533467 0.229592
H2    H     H_    0.791421 0.730703 0.621270 0.231412
C14   C     C_3   0.845484 0.763761 0.545629 -0.126615
H3    H     H_    0.901019 0.810692 0.612776 0.219419
H4    H     H_    0.674886 0.607281 0.380179 0.254941
H5    H     H_    0.761621 0.713552 0.368699 0.230101
C15   C     C_3   0.668025 0.665013 0.405024 -0.313850
C16   C     C_3   0.685442 0.782297 0.537282 -0.230481
C17   C     C_3   0.683371 0.691943 0.498393 -0.066007
C18   C     C_3   0.810125 0.811081 0.500758 -0.100850
C19   C     C_3   0.735028 0.740113 0.406201 -0.469438
C20   C     C_3   0.767648 0.853430 0.546105 0.099319
H6    H     H_    0.745584 0.884260 0.509284 0.190400
H7    H     H_    0.601147 0.645244 0.357814 0.238066
H8    H     H_    0.701710 0.767959 0.373073 0.217919
C21   C     C_3   0.663971 0.411694 0.673773 -0.411390
H9    H     H_    0.658613 0.371801 0.611991 0.233275
H10   H     H_    0.598231 0.381061 0.664567 0.273741
C22   C     C_3   0.729884 0.411631 0.749409 -0.259500
H11   H     H_    0.752167 0.369976 0.720592 0.187959
H12   H     H_    0.758967 0.502704 0.621303 0.181752
C23   C     C_3   0.777646 0.542247 0.689427 -0.299366
C24   C     C_3   0.704342 0.557849 0.781464 -0.318345
C25   C     C_3   0.691598 0.504983 0.690872 -0.085667
H13   H     H_    0.706550 0.619609 0.791977 0.263143
H14   H     H_    0.642896 0.521084 0.778890 0.248419
C26   C     C_3   0.813473 0.506258 0.815162 -0.223962
C27   C     C_3   0.848791 0.532366 0.754102 0.457985
C28   C     C_3   0.783710 0.570661 0.858363 -0.210282
C29   C     C_3   0.239292 0.239865 0.403912 -0.463832
H15   H     H_    0.266806 0.214812 0.365507 0.253916
H16   H     H_    0.207723 0.266467 0.368364 0.289001
C30   C     C_3   0.171287 0.163367 0.401618 -0.303015
H17   H     H_    0.182377 0.108756 0.378798 0.249369
H18   H     H_    0.271813 0.137179 0.516526 0.147915
C31   C     C_3   0.353591 0.269220 0.547246 0.091614
C32   C     C_3   0.264960 0.354338 0.542705 0.447088
C33   C     C_3   0.311750 0.313337 0.500047 -0.256013
C34   C     C_3   0.187624 0.189791 0.497121 -0.239520
C35   C     C_3   0.279869 0.201987 0.550694 0.089652
C36   C     C_3   0.185604 0.277191 0.528357 -0.260451
H19   H     H_    0.129694 0.263466 0.470418 0.182169
O9    O     O_R   0.948230 0.538430 0.092080 -0.539875
O10   O     O_R   0.053760 0.643910 0.092060 -0.523071
C37   C     C_R   0.004982 0.619407 0.124910 0.858677
O11   O     O_R   0.039800 0.447260 0.092470 -0.540223
O12   O     O_R   0.145330 0.552750 0.092450 -0.541248
C38   C     C_R   0.121097 0.499815 0.120698 0.885520
Cu3   Cu    Cu3+1 0.938720 0.437560 0.001120 1.180194
Cu4   Cu    Cu3+1 0.063680 0.562470 0.001100 1.220899
O13   O     O_R   0.948640 0.356110 0.910160 -0.553932
O14   O     O_R   0.054170 0.461590 0.910140 -0.563539
O15   O     O_R   0.857070 0.447280 0.909760 -0.540436
O16   O     O_R   0.962600 0.552760 0.909740 -0.506368
C39   C     C_R   0.000856 0.380165 0.881301 0.785227
C40   C     C_R   0.881278 0.502179 0.882744 0.842591
O17   O     O_R   0.053170 0.908900 0.462020 -0.589622
O18   O     O_R   0.947410 0.908840 0.356190 -0.508861
C41   C     C_R   0.001507 0.881131 0.380715 0.843809
O19   O     O_R   0.961720 0.908880 0.552900 -0.533079
O20   O     O_R   0.855960 0.908820 0.447080 -0.570772
C42   C     C_R   0.879826 0.879166 0.499346 0.798200
Cu5   Cu    Cu3+1 0.062620 0.000040 0.562660 1.221812
Cu6   Cu    Cu3+1 0.937380 0.999960 0.437350 1.193532
O21   O     O_R   0.052590 0.091170 0.643810 -0.506869
O22   O     O_R   0.946830 0.091100 0.537990 -0.529049
O23   O     O_R   0.144040 0.091190 0.552920 -0.527327
O24   O     O_R   0.038280 0.091120 0.447100 -0.554852
C43   C     C_R   0.001141 0.121099 0.620331 0.856151
C44   C     C_R   0.119774 0.119041 0.498330 0.869003
C45   C     C_3   0.947924 0.645674 0.235322 0.142429
C46   C     C_3   0.948834 0.722318 0.305477 -0.374018
H20   H     H_    0.979999 0.730514 0.370467 0.232329
C47   C     C_3   0.107751 0.760282 0.275274 0.066545
C48   C     C_3   0.968968 0.733471 0.157570 -0.467007
C49   C     C_3   0.008459 0.687377 0.198943 -0.227725
H21   H     H_    0.007356 0.765399 0.134256 0.274713
H22   H     H_    0.905483 0.685960 0.096529 0.205957
C50   C     C_3   0.004620 0.811746 0.315020 -0.223151
C51   C     C_3   0.104686 0.830654 0.349962 -0.293340
C52   C     C_3   0.958101 0.797866 0.220457 0.195544
H23   H     H_    0.887341 0.764502 0.194705 0.219117
C53   C     C_3   0.986099 0.233014 0.826471 -0.388820
H24   H     H_    0.920988 0.199341 0.818076 0.239730
H25   H     H_    0.032002 0.256776 0.895474 0.238236
C54   C     C_3   0.996219 0.166714 0.762355 0.164261
H26   H     H_    0.937481 0.103562 0.730364 0.217111
C55   C     C_3   0.922897 0.276282 0.718582 -0.324124
C56   C     C_3   0.089484 0.347782 0.815310 -0.251958
C57   C     C_3   0.999148 0.311095 0.811235 -0.129107
H27   H     H_    0.137129 0.357980 0.877295 0.227897
C58   C     C_3   0.001412 0.190413 0.690390 -0.201857
C59   C     C_3   0.918068 0.200978 0.645047 0.074983
C60   C     C_3   0.087084 0.281008 0.739843 -0.355345
H28   H     H_    0.080923 0.302586 0.693170 0.187060
H29   H     H_    0.941446 0.332244 0.709184 0.241254
C61   C     C_2   0.319127 0.667335 0.267239 1.019357
O25   O     O_2   0.319786 0.673418 0.205132 -0.487945
O26   O     O_R   0.354346 0.741692 0.345367 -0.662966
H30   H     H_    0.377463 0.796511 0.342182 0.368504
C62   C     C_2   0.881268 0.715644 0.500579 0.899485
O27   O     O_2   0.954022 0.755948 0.513050 -0.543690
O28   O     O_R   0.833149 0.625539 0.447302 -0.708495
H31   H     H_    0.866199 0.601752 0.424860 0.400370
C63   C     C_2   0.602120 0.775485 0.475074 0.869369
O29   O     O_2   0.533427 0.706376 0.428695 -0.564329
O30   O     O_R   0.602319 0.850317 0.477931 -0.673462
H32   H     H_    0.543326 0.837880 0.435949 0.377973
C64   C     C_2   0.689070 0.809951 0.625722 0.997719
O31   O     O_2   0.631142 0.819844 0.633701 -0.492095
O32   O     O_R   0.759017 0.825683 0.698442 -0.730722
H33   H     H_    0.753639 0.844010 0.752090 0.370584
N1    N     N_R   0.829806 0.924732 0.636759 0.142755
O33   O     O_R   0.908489 0.940580 0.679615 -0.310281
O34   O     O_R   0.805118 0.973041 0.676058 -0.283676
N2    N     N_R   0.395950 0.538208 0.230459 0.168681
O35   O     O_R   0.419132 0.480351 0.214074 -0.276788
O36   O     O_R   0.438816 0.610559 0.234348 -0.291133
C65   C     C_2   0.683846 0.363336 0.784867 0.972881
O37   O     O_2   0.693314 0.304068 0.789956 -0.522057
O38   O     O_R   0.626637 0.382058 0.806538 -0.692973
H34   H     H_    0.600586 0.345106 0.829212 0.375177
N3    N     N_R   0.857202 0.460219 0.703284 0.128131
O39   O     O_R   0.814630 0.416107 0.618660 -0.301992
O40   O     O_R   0.913657 0.443347 0.744793 -0.353719
C66   C     C_2   0.754338 0.556028 0.920799 0.869712
O41   O     O_2   0.716472 0.591780 0.942849 -0.491648
O42   O     O_R   0.770710 0.504713 0.954910 -0.735389
H35   H     H_    0.730535 0.484322 0.976665 0.365793
C67   C     C_2   0.856885 0.664875 0.915193 0.900993
O43   O     O_2   0.844514 0.723296 0.911666 -0.486204
O44   O     O_R   0.938750 0.685959 0.975881 -0.760195
H36   H     H_    0.983452 0.749446 0.005052 0.383000
C68   C     C_2   0.810700 0.631830 0.699882 0.853704
O45   O     O_2   0.864247 0.656765 0.678751 -0.525804
O46   O     O_R   0.785782 0.687855 0.737845 -0.734172
H37   H     H_    0.826210 0.749991 0.757418 0.388326
N4    N     N_R   0.207545 0.382519 0.086689 0.153221
O47   O     O_R   0.177651 0.300769 0.061439 -0.218491
O48   O     O_R   0.223712 0.411772 0.037493 -0.308813
N5    N     N_R   0.937493 0.611779 0.803415 0.159802
O49   O     O_R   0.952719 0.689788 0.845018 -0.307407
O50   O     O_R   0.000683 0.605889 0.794504 -0.196537
C69   C     C_2   0.079428 0.132466 0.332655 0.971330
O51   O     O_2   0.025481 0.055625 0.290460 -0.465408
O52   O     O_R   0.056048 0.190422 0.315892 -0.720065
H38   H     H_    0.993170 0.160666 0.268293 0.370731
C70   C     C_2   0.386934 0.222579 0.495266 0.852519
O53   O     O_2   0.338092 0.149601 0.432233 -0.612094
O54   O     O_R   0.474257 0.265024 0.518858 -0.734426
H39   H     H_    0.488479 0.228590 0.479782 0.358080
N6    N     N_R   0.326645 0.420742 0.636247 0.191674
O55   O     O_R   0.347431 0.399843 0.696073 -0.223359
O56   O     O_R   0.352068 0.502171 0.661923 -0.205737
N7    N     N_R   0.228826 0.397215 0.498825 0.137655
O57   O     O_R   0.183300 0.427265 0.522035 -0.232044
O58   O     O_R   0.244296 0.410357 0.441061 -0.355509
N8    N     N_R   0.187357 0.333414 0.228351 0.182613
O59   O     O_R   0.106121 0.275128 0.171353 -0.234958
O60   O     O_R   0.240216 0.309831 0.263651 -0.323189
C71   C     C_2   0.151500 0.299401 0.588091 0.906711
O61   O     O_2   0.080003 0.245690 0.567778 -0.651745
O62   O     O_R   0.191175 0.384690 0.654185 -0.630307
H40   H     H_    0.150290 0.399059 0.670056 0.370043
N9    N     N_R   0.430482 0.331179 0.635887 0.160985
O63   O     O_R   0.467137 0.300621 0.679540 -0.273959
O64   O     O_R   0.475172 0.413140 0.662971 -0.344030
N10   N     N_R   0.303552 0.217585 0.639441 0.211610
O65   O     O_R   0.335807 0.174601 0.666695 -0.247149
O66   O     O_R   0.272913 0.254197 0.681270 -0.302984
N11   N     N_R   0.978357 0.598083 0.275808 0.172439
O67   O     O_R   0.978680 0.604592 0.346573 -0.247069
O68   O     O_R   0.977648 0.529801 0.229019 -0.263389
C72   C     C_2   0.852816 0.578599 0.160219 0.924445
O69   O     O_2   0.806565 0.601517 0.122618 -0.609635
O70   O     O_R   0.816058 0.491780 0.139367 -0.645981
H41   H     H_    0.752022 0.455482 0.093146 0.343417
C73   C     C_2   0.858160 0.700395 0.292658 0.814490
O71   O     O_2   0.817684 0.637385 0.296361 -0.543891
O72   O     O_R   0.818509 0.746567 0.271486 -0.741801
H42   H     H_    0.754007 0.716141 0.250056 0.356178
C74   C     C_2   0.158772 0.721520 0.314022 0.938861
O73   O     O_2   0.232057 0.769945 0.378242 -0.463304
O74   O     O_R   0.128944 0.633712 0.271749 -0.765346
H43   H     H_    0.165978 0.618355 0.309209 0.353068
C75   C     C_2   0.141995 0.830803 0.438267 0.882140
O75   O     O_2   0.119631 0.763593 0.440739 -0.504502
O76   O     O_R   0.204514 0.908662 0.517097 -0.679071
H44   H     H_    0.223609 0.899810 0.569030 0.376157
C76   C     C_2   0.099106 0.445460 0.264560 1.048962
O77   O     O_2   0.099735 0.482331 0.331181 -0.450268
O78   O     O_R   0.022629 0.371464 0.192424 -0.673804
H45   H     H_    0.972307 0.355489 0.203251 0.364087
N12   N     N_R   0.976366 0.875953 0.213068 0.178182
O79   O     O_R   0.046527 0.918601 0.213671 -0.240165
O80   O     O_R   0.911900 0.888827 0.182600 -0.246415
N13   N     N_R   0.157505 0.800711 0.238525 0.140924
O81   O     O_R   0.212096 0.779200 0.225159 -0.290457
O82   O     O_R   0.151146 0.859755 0.220743 -0.276725
C77   C     C_2   0.168534 0.922427 0.376563 1.028453
O83   O     O_2   0.146592 0.976257 0.379574 -0.618179
O84   O     O_R   0.255872 0.946585 0.404788 -0.650882
H46   H     H_    0.294109 0.009758 0.426252 0.380469
N14   N     N_R   0.070268 0.158704 0.810565 0.178346
O85   O     O_R   0.062055 0.082656 0.788696 -0.211835
O86   O     O_R   0.138654 0.224132 0.883683 -0.252229
C78   C     C_2   0.834422 0.255866 0.709602 0.961705
O87   O     O_2   0.811387 0.229880 0.753385 -0.515423
O88   O     O_R   0.775714 0.259766 0.643865 -0.678825
H47   H     H_    0.714961 0.233294 0.634734 0.355944
N15   N     N_R   0.303592 0.622741 0.416744 0.187912
O89   O     O_R   0.255099 0.612746 0.451181 -0.209417
O90   O     O_R   0.382850 0.688060 0.464234 -0.216739
N16   N     N_R   0.834227 0.118101 0.600834 0.145813
O91   O     O_R   0.832789 0.045647 0.584840 -0.356736
O92   O     O_R   0.760514 0.111763 0.555785 -0.246518
C79   C     C_2   0.127103 0.435644 0.820492 0.962163
O93   O     O_2   0.086140 0.448124 0.764778 -0.503398
O94   O     O_R   0.209372 0.502909 0.890937 -0.654950
H48   H     H_    0.227774 0.558218 0.888054 0.368747
C80   C     C_2   0.176746 0.289157 0.771800 0.979336
O95   O     O_2   0.187381 0.228319 0.767619 -0.449895
O96   O     O_R   0.249441 0.370326 0.809286 -0.665831
H49   H     H_    0.306290 0.370435 0.831951 0.401865
C81   C     C_2   0.916991 0.225838 0.574141 0.952933
O97   O     O_2   0.864874 0.172142 0.497073 -0.470573
O98   O     O_R   0.971446 0.310286 0.596106 -0.726882
H50   H     H_    0.962746 0.317361 0.543423 0.382178

loop_
_geom_bond_atom_site_label_1
_geom_bond_atom_site_label_2
_geom_bond_distance
_ccdc_geom_bond_type
C5    C8    1.533055 S    
N11   O68   1.301170 A    
O72   H42   1.012980 S    
C80   O96   1.399177 S    
C6    C11   1.552485 S    
C10   C76   1.508225 S    
Cu6   O24   2.002249 S    
C46   H20   1.094717 S    
C73   O72   1.399063 S    
C73   O71   1.222903 D    
C29   H16   1.101089 S    
O9    C37   1.305820 A    
C77   O83   1.217705 D    
O15   C40   1.320027 A    
C70   O53   1.222029 D    
C63   O29   1.223505 D    
C51   C75   1.572744 S    
N13   O82   1.299481 A    
N4    O47   1.299688 A    
C54   N14   1.476795 S    
Cu1   Cu2   2.748823 S    
C69   O52   1.400998 S    
C11   N15   1.465225 S    
C29   H15   1.109832 S    
C80   O95   1.218703 D    
Cu1   O7    1.991237 S    
C70   O54   1.397294 S    
C24   H14   1.113799 S    
C14   H3    1.106608 S    
C68   O45   1.223898 D    
N15   O90   1.300556 A    
O23   C44   1.322522 A    
C55   H29   1.093321 S    
N5    O49   1.298545 A    
C30   C69   1.526702 S    
C6    C61   1.504838 S    
O4    C2    1.311681 A    
C18   C20   1.580403 S    
C8    N4    1.454461 S    
Cu5   O21   2.018649 S    
C13   C14   1.548679 S    
C53   H24   1.108229 S    
C23   C27   1.592635 S    
C32   N7    1.497620 S    
C5    C6    1.543000 S    
C2    C12   1.469231 S    
N14   O86   1.302081 A    
C24   C28   1.567517 S    
C43   C58   1.529916 S    
C7    C10   1.562682 S    
O5    C3    1.314860 A    
C71   O61   1.216992 D    
N6    O56   1.303344 A    
N9    O64   1.299578 A    
C8    C9    1.532593 S    
O52   H38   1.013816 S    
C23   C25   1.560798 S    
O11   C38   1.307214 A    
C18   C42   1.521341 S    
C52   H23   1.103423 S    
N7    O57   1.302366 A    
C34   C36   1.586110 S    
C51   C77   1.528513 S    
O96   H49   1.013696 S    
C29   C33   1.572521 S    
C5    C12   1.539048 S    
O9    Cu3   2.015161 S    
C55   C57   1.567260 S    
N14   O85   1.299482 A    
C61   O26   1.394548 S    
C64   O31   1.226198 D    
C58   C60   1.578205 S    
C32   N6    1.487889 S    
C22   C65   1.522956 S    
C26   C28   1.616251 S    
O42   H35   1.011540 S    
O20   Cu6   2.003415 S    
C55   C59   1.585153 S    
O10   Cu4   2.017843 S    
C67   O44   1.394641 S    
C5    N2    1.459525 S    
C46   C50   1.576941 S    
Cu3   O15   1.994113 S    
O16   C40   1.305242 A    
N11   O67   1.302228 A    
O70   H41   1.013396 S    
C68   O46   1.394410 S    
C45   N11   1.493493 S    
C11   C12   1.543470 S    
C26   C40   1.514629 S    
N5    O50   1.303425 A    
Cu4   O14   2.015282 S    
C9    N8    1.460370 S    
C1    C17   1.508606 S    
C14   C62   1.527123 S    
C16   C63   1.543791 S    
O3    Cu1   1.995764 S    
C31   C70   1.546512 S    
C81   O97   1.224922 D    
C56   H27   1.110751 S    
N13   O81   1.305337 A    
N4    O48   1.299305 A    
C81   O98   1.399541 S    
O84   H46   1.009791 S    
C21   C22   1.542970 S    
N3    O40   1.296846 A    
C76   O78   1.396860 S    
C75   O75   1.222074 D    
C24   H13   1.105023 S    
C31   C33   1.603937 S    
C15   C19   1.544492 S    
C53   C57   1.554081 S    
O74   H43   1.004986 S    
C59   C81   1.556756 S    
C31   N9    1.481673 S    
C9    C12   1.543509 S    
C18   C19   1.556569 S    
O20   C42   1.313096 A    
Cu3   O13   2.017938 S    
C47   C49   1.617023 S    
N8    O60   1.299011 A    
C69   O51   1.216782 D    
C16   C20   1.593194 S    
Cu5   Cu6   2.716818 S    
C28   C66   1.532878 S    
C72   O70   1.401330 S    
C27   N3    1.489062 S    
C56   C79   1.528756 S    
O98   H50   1.013922 S    
O54   H39   1.013853 S    
C21   C25   1.546434 S    
H5    C19   1.094820 S    
O18   C41   1.318945 A    
N10   O65   1.302614 A    
C15   H7    1.108735 S    
C32   C33   1.611762 S    
O1    C1    1.327297 A    
C20   H6    1.109648 S    
N8    O59   1.300066 A    
O11   Cu3   1.992679 S    
C78   O88   1.397811 S    
O10   C37   1.325439 A    
N10   O66   1.295944 A    
O76   H44   1.013993 S    
C34   C35   1.580492 S    
O24   C44   1.301082 A    
N15   O89   1.298717 A    
C30   H17   1.104909 S    
C14   C18   1.576302 S    
O46   H37   1.011885 S    
C76   O77   1.220174 D    
Cu2   O8    1.995763 S    
O12   Cu4   1.993993 S    
C79   O94   1.398580 S    
C7    C8    1.539493 S    
C41   C50   1.522297 S    
C47   N13   1.509164 S    
C23   C68   1.514438 S    
C27   N5    1.504995 S    
C26   C27   1.647823 S    
O21   C43   1.308274 A    
N2    O36   1.299792 A    
O22   C43   1.316645 A    
C50   C52   1.580512 S    
C47   C51   1.631616 S    
C22   C26   1.596525 S    
O3    C2    1.309233 A    
O19   C42   1.308631 A    
O8    C4    1.309554 A    
C7    C38   1.483249 S    
C45   C46   1.607744 S    
C48   H21   1.091579 S    
N16   O92   1.302530 A    
Cu5   O23   2.003659 S    
C30   C34   1.591658 S    
C39   C57   1.511520 S    
C46   C73   1.536394 S    
C22   H11   1.097279 S    
C21   H9    1.113448 S    
O12   C38   1.308750 A    
C61   O25   1.221939 D    
N1    O34   1.303109 A    
C62   O28   1.399624 S    
N3    O39   1.302393 A    
C29   C30   1.559162 S    
H18   C35   1.112721 S    
C55   C78   1.524375 S    
C74   O73   1.225169 D    
C24   C25   1.560122 S    
C72   O69   1.222008 D    
Cu4   O16   1.992678 S    
O94   H48   1.013784 S    
C19   H8    1.112933 S    
C16   C17   1.609262 S    
O2    Cu2   2.004545 S    
H12   C23   1.107156 S    
Cu3   Cu4   2.730106 S    
O6    C3    1.310442 A    
C63   O30   1.400349 S    
C20   N1    1.476429 S    
O4    Cu2   1.991236 S    
N7    O58   1.301552 A    
N2    O35   1.300242 A    
C77   O84   1.401084 S    
C4    C25   1.496853 S    
N12   O80   1.302364 A    
C48   H22   1.108162 S    
C56   C57   1.582024 S    
O32   H33   1.013994 S    
C31   C35   1.582348 S    
C32   C36   1.567559 S    
C56   C60   1.543736 S    
O38   H34   1.014215 S    
C45   C72   1.549704 S    
C13   C17   1.549395 S    
C9    C10   1.545340 S    
C66   O42   1.390598 S    
O2    C1    1.307973 A    
C28   C67   1.523637 S    
C37   C49   1.526683 S    
C78   O87   1.221530 D    
N6    O55   1.297681 A    
C66   O41   1.225550 D    
C36   H19   1.105219 S    
C15   C17   1.557433 S    
O18   Cu6   2.018626 S    
C16   C64   1.551306 S    
C6    C7    1.559032 S    
C53   H25   1.111117 S    
C45   C49   1.646233 S    
O28   H31   1.013792 S    
C35   N10   1.475389 S    
C59   N16   1.497124 S    
N12   O79   1.298811 A    
H4    C15   1.112982 S    
C79   O93   1.221900 D    
O7    C4    1.318925 A    
O17   C41   1.299846 A    
C71   O62   1.398948 S    
O30   H32   1.013537 S    
C65   O38   1.395500 S    
C13   H2    1.095888 S    
O78   H45   1.013815 S    
C50   C51   1.641869 S    
O14   C39   1.312142 A    
N16   O91   1.294801 A    
C52   N12   1.467316 S    
Cu2   O6    2.001871 S    
C54   C58   1.590233 S    
C13   H1    1.110844 S    
C36   C71   1.501628 S    
C60   C80   1.529575 S    
Cu1   O5    2.004546 S    
O17   Cu5   2.014184 S    
O19   Cu5   2.002147 S    
C3    C33   1.492251 S    
C10   C11   1.557446 S    
C21   H10   1.105303 S    
C64   O32   1.396741 S    
C48   C49   1.555758 S    
O13   C39   1.312114 A    
C34   C44   1.528264 S    
C54   H26   1.097954 S    
O44   H36   1.014293 S    
O26   H30   1.013803 S    
Cu6   O22   2.014182 S    
C75   O76   1.405501 S    
C65   O37   1.223993 D    
N9    O63   1.299555 A    
O1    Cu1   2.001869 S    
C47   C74   1.534993 S    
O62   H40   1.008782 S    
C60   H28   1.075978 S    
C74   O74   1.383969 S    
C48   C52   1.530488 S    
N1    O33   1.297163 A    
C58   C59   1.633694 S    
O88   H47   1.014199 S    
C62   O27   1.222514 D    
C67   O43   1.224080 D    
C53   C54   1.555469 S    
