data_mof_unit_12340.cif
_audit_creation_date              2012-12-10T16:51:19-0500
_audit_creation_method            fapswitch 2.2
_symmetry_space_group_name_H-M    P1
_symmetry_Int_Tables_number       1
_space_group_crystal_system       triclinic
_cell_length_a                    27.775514
_cell_length_b                    8.695895
_cell_length_c                    7.408987
_cell_angle_alpha                 103.230182
_cell_angle_beta                  93.6797
_cell_angle_gamma                 92.407463
_cell_volume                      1735.46378619

loop_
_atom_site_label
_atom_site_type_symbol
_atom_type_description
_atom_site_fract_x
_atom_site_fract_y
_atom_site_fract_z
_atom_type_partial_charge
C1    C     C_R   0.498522 0.199839 0.453278 0.805578
C2    C     C_R   0.501473 0.800161 0.546722 0.805628
C3    C     C_R   0.101969 0.495921 0.499936 -0.196622
C4    C     C_R   0.897938 0.503650 0.489195 -0.198271
C5    C     C_R   0.124228 0.357454 0.412773 -0.083466
C6    C     C_R   0.875457 0.648301 0.546102 -0.081562
C7    C     C_R   0.095314 0.221039 0.320459 0.504651
C8    C     C_R   0.904070 0.791821 0.601316 0.518118
C9    C     C_R   0.130879 0.633193 0.590125 -0.160894
C10   C     C_R   0.869273 0.360346 0.430376 -0.177400
C11   C     C_R   0.354511 0.495144 0.508488 -0.196687
C12   C     C_R   0.645465 0.505302 0.491102 -0.196929
C13   C     C_R   0.971121 0.357724 0.423417 -0.008822
C14   C     C_R   0.028830 0.640094 0.573180 -0.007038
C15   C     C_R   0.977733 0.644448 0.556566 0.041773
C16   C     C_R   0.021999 0.358744 0.412795 0.046498
C17   C     C_R   0.949045 0.501930 0.490292 0.075061
C18   C     C_R   0.050829 0.498017 0.495835 0.074530
C19   C     C_R   0.941578 0.216296 0.371708 -0.327097
C20   C     C_R   0.058701 0.773153 0.667581 -0.328025
C21   C     C_R   0.891706 0.217306 0.373985 0.657640
C22   C     C_R   0.108657 0.770512 0.675007 0.622137
C23   C     C_R   0.407445 0.497496 0.502925 0.846121
C24   C     C_R   0.592549 0.502611 0.497050 0.846489
C25   C     C_R   0.044806 0.225374 0.317776 -0.338165
C26   C     C_R   0.954504 0.787912 0.600403 -0.347370
C27   C     C_2   0.497803 0.032579 0.426600 0.268973
C28   C     C_2   0.502180 0.967419 0.573402 0.269314
C29   C     C_R   0.175173 0.360656 0.419530 0.639627
C30   C     C_R   0.824591 0.644533 0.545207 0.625377
C31   C     C_R   0.181386 0.629445 0.591793 0.630692
C32   C     C_R   0.818797 0.364049 0.431242 0.647938
C33   C     C_R   0.276912 0.539327 0.363948 0.664564
C34   C     C_R   0.723209 0.459502 0.633172 0.666619
C35   C     C_R   0.326976 0.539865 0.364901 -0.365597
C36   C     C_R   0.673153 0.459319 0.633379 -0.366310
C37   C     C_R   0.331058 0.444424 0.650596 0.437285
C38   C     C_R   0.668729 0.557305 0.349444 0.435149
C39   C     C_R   0.280389 0.450509 0.651222 -0.287521
C40   C     C_R   0.719361 0.551173 0.347733 -0.285332
C41   C     C_R   0.253638 0.495620 0.507629 0.178334
C42   C     C_R   0.746322 0.504387 0.489701 0.174190
Cu1   Cu    Cu3+1 0.505380 0.517380 0.684380 1.047615
Cu2   Cu    Cu3+1 0.494620 0.482620 0.315620 1.047453
H1    H     H_    0.462799 0.377139 0.947493 0.260794
H2    H     H_    0.537208 0.622839 0.052503 0.261185
H3    H     H_    0.261352 0.419534 0.761979 0.193007
H4    H     H_    0.738214 0.582892 0.236962 0.191538
H5    H     H_    0.655952 0.421928 0.744666 0.222736
H6    H     H_    0.344295 0.576412 0.253341 0.223839
H7    H     H_    0.956202 0.101365 0.333422 0.166265
H8    H     H_    0.044343 0.880990 0.741655 0.170341
H9    H     H_    0.023848 0.125075 0.232159 0.134182
H10   H     H_    0.974942 0.899638 0.625351 0.138873
N1    N     N_R   0.202116 0.495130 0.506837 -0.453799
N2    N     N_R   0.797846 0.504263 0.488644 -0.455500
N3    N     N_2   0.486510 0.456430 0.038510 -0.174231
N4    N     N_2   0.513490 0.543570 0.961490 -0.174200
O1    O     O_R   0.503500 0.286120 0.619780 -0.560521
O2    O     O_R   0.496500 0.713880 0.380220 -0.560337
O3    O     O_R   0.494410 0.256780 0.308360 -0.536315
O4    O     O_R   0.505590 0.743220 0.691640 -0.536357
O5    O     O_R   0.434810 0.514700 0.655690 -0.542275
O6    O     O_R   0.565190 0.485300 0.344310 -0.542551
O7    O     O_R   0.425720 0.485350 0.344280 -0.602156
O8    O     O_R   0.574280 0.514650 0.655720 -0.601630
O9    O     O_2   0.197962 0.230961 0.340482 -0.452142
O10   O     O_2   0.801731 0.779084 0.602155 -0.452101
O11   O     O_2   0.790600 0.229084 0.375045 -0.431006
O12   O     O_2   0.209821 0.758725 0.676703 -0.440066
O13   O     O_3   0.358528 0.394970 0.788564 -0.569206
C43   C     C_3   0.337546 0.255173 0.825547 0.034652
H11   H     H_    0.321266 0.171634 0.696438 0.167806
H12   H     H_    0.309549 0.285532 0.926577 0.191327
C44   C     C_3   0.376219 0.169759 0.912060 -0.692839
H13   H     H_    0.391770 0.245790 0.046200 0.253018
H14   H     H_    0.360062 0.058779 0.938586 0.227199
H15   H     H_    0.405344 0.139608 0.816194 0.255936
O14   O     O_3   0.641091 0.607668 0.212596 -0.569946
C45   C     C_3   0.661923 0.748131 0.176762 0.034769
H16   H     H_    0.689922 0.718698 0.075565 0.186161
H17   H     H_    0.678151 0.831163 0.306333 0.173345
C46   C     C_3   0.623130 0.833701 0.091111 -0.695444
H18   H     H_    0.593958 0.862733 0.187006 0.257171
H19   H     H_    0.639142 0.945332 0.065737 0.225184
H20   H     H_    0.607678 0.758237 0.956447 0.253271
O15   O     O_3   0.116940 0.090617 0.218434 -0.501849
C47   C     C_3   0.097558 0.946374 0.249071 0.064061
H21   H     H_    0.065851 0.901705 0.148548 0.133666
H22   H     H_    0.086657 0.958506 0.393722 0.141034
C48   C     C_3   0.135531 0.823846 0.216359 -0.563382
H23   H     H_    0.166682 0.860539 0.321465 0.278224
H24   H     H_    0.119689 0.707434 0.227773 0.162925
H25   H     H_    0.148502 0.811073 0.075468 0.291013
O16   O     O_3   0.881916 0.935256 0.636016 -0.490323
C49   C     C_3   0.902138 0.040040 0.801232 0.041889
H26   H     H_    0.934939 0.105260 0.772230 0.129029
H27   H     H_    0.911364 0.977369 0.913417 0.147639
C50   C     C_3   0.865689 0.161381 0.871509 -0.548445
H28   H     H_    0.833265 0.101922 0.911790 0.286692
H29   H     H_    0.882147 0.250489 0.994354 0.166224
H30   H     H_    0.854553 0.223189 0.761420 0.253158
F1    F     F_    0.749313 0.415389 0.772181 -0.654260
F2    F     F_    0.250951 0.582497 0.223942 -0.651901
F3    F     F_    0.865713 0.076568 0.319059 -0.599278
F4    F     F_    0.134888 0.904908 0.763910 -0.608462
F5    F     F_    0.492580 0.945066 0.247728 -0.640948
F6    F     F_    0.507388 0.054931 0.752276 -0.640931

loop_
_geom_bond_atom_site_label_1
_geom_bond_atom_site_label_2
_ccdc_geom_bond_type
O15   C47   S    
C33   F2    S    
C8    C26   A    
C14   C18   A    
O16   C49   S    
C34   C42   A    
Cu1   Cu2   S    
Cu1   O5    S    
C39   C41   A    
Cu2   O6    S    
H1    N3    S    
C19   C21   A    
Cu2   O2    S    
C43   C44   S    
C2    O2    A    
C9    C22   A    
C38   O14   S    
C49   C50   S    
C3    C18   A    
C40   H4    S    
C11   C23   S    
C11   C37   A    
C41   N1    S    
Cu1   N4    S    
C42   N2    S    
C29   O9    S    
C31   O12   S    
C7    O15   S    
C46   H18   S    
C49   H27   S    
C12   C36   A    
Cu1   O1    S    
C23   O5    A    
C24   O6    A    
H2    N4    S    
Cu2   O7    S    
C8    O16   S    
C45   C46   S    
C26   H10   S    
C5    C29   A    
C10   C21   A    
C37   C39   A    
C13   C19   A    
C14   C20   A    
C43   H12   S    
C48   H23   S    
C5    C7    A    
C45   H16   S    
C15   C26   A    
C6    C8    A    
C29   N1    A    
C22   F4    S    
C30   N2    A    
C44   H13   S    
C36   H5    S    
C3    C9    A    
C19   H7    S    
C48   H24   S    
C50   H28   S    
C47   C48   S    
C27   F5    S    
Cu2   N3    S    
C49   H26   S    
C50   H30   S    
C35   H6    S    
C44   H14   S    
C4    C17   A    
C45   H17   S    
C46   H19   S    
C1    O1    A    
C20   C22   A    
C37   O13   S    
C4    C6    A    
C4    C10   A    
C39   H3    S    
C16   C25   A    
C15   C17   A    
C6    C30   A    
C47   H22   S    
C43   H11   S    
C3    C5    A    
C1    O3    A    
C32   O11   S    
C24   O8    A    
Cu2   O3    S    
C12   C24   S    
C34   F1    S    
C7    C25   A    
C13   C17   A    
C33   C41   A    
C23   O7    A    
C11   C35   A    
O13   C43   S    
C20   H8    S    
C48   H25   S    
C38   C40   A    
N3    N4    D    
C28   F6    S    
Cu1   O8    S    
C40   C42   A    
C33   C35   A    
C32   N2    A    
C34   C36   A    
C12   C38   A    
C44   H15   S    
C30   O10   S    
C9    C31   A    
O14   C45   S    
C10   C32   A    
C46   H20   S    
C47   H21   S    
C16   C18   A    
C13   C16   A    
C27   C28   D    
C1    C27   S    
C14   C15   A    
C2    C28   S    
C31   N1    A    
C50   H29   S    
C21   F3    S    
C25   H9    S    
C2    O4    A    
Cu1   O4    S    
