data_mof_unit_35092.cif
_audit_creation_date              2012-12-10T17:43:39-0500
_audit_creation_method            fapswitch 2.2
_symmetry_space_group_name_H-M    P1
_symmetry_Int_Tables_number       1
_space_group_crystal_system       triclinic
_cell_length_a                    14.870006
_cell_length_b                    10.666324
_cell_length_c                    9.971403
_cell_angle_alpha                 90.726674
_cell_angle_beta                  90.456732
_cell_angle_gamma                 94.511336
_cell_volume                      1576.45671362

loop_
_atom_site_label
_atom_site_type_symbol
_atom_type_description
_atom_site_fract_x
_atom_site_fract_y
_atom_site_fract_z
_atom_type_partial_charge
C1    C     C_R   0.508113 0.261763 0.499439 0.877049
C2    C     C_R   0.180303 0.389792 0.513579 -0.247075
C3    C     C_R   0.231862 0.503410 0.500285 -0.046758
C4    C     C_R   0.327391 0.503016 0.499975 0.902198
C5    C     C_R   0.192836 0.617210 0.489847 -0.250628
C6    C     C_R   0.635405 0.146493 0.681110 -0.265036
C7    C     C_R   0.691432 0.087980 0.769389 -0.253667
C8    C     C_R   0.690662 0.956577 0.770882 0.531699
C9    C     C_R   0.635489 0.885306 0.679802 -0.269197
C10   C     C_R   0.576160 0.942888 0.592394 0.032514
C11   C     C_R   0.576627 0.074852 0.592164 0.098901
C12   C     C_R   0.912350 0.617436 0.498610 0.144511
C13   C     C_R   0.521678 0.130525 0.496677 -0.089615
C14   C     C_R   0.478059 0.059146 0.394108 -0.206932
C15   C     C_R   0.473984 0.931654 0.398198 -0.228401
C16   C     C_R   0.506407 0.739736 0.500690 0.853841
C17   C     C_R   0.518674 0.873300 0.500020 -0.076935
C18   C     C_R   0.361339 0.337456 0.122568 0.009841
C19   C     C_R   0.295478 0.275076 0.038932 -0.223156
C20   C     C_R   0.303052 0.277021 0.902835 -0.217977
C21   C     C_R   0.374738 0.344861 0.846804 -0.123970
C22   C     C_R   0.436898 0.422665 0.923298 0.158008
C23   C     C_R   0.939845 0.272506 0.506014 -0.306041
C24   C     C_R   0.434335 0.421266 0.068270 0.109297
C25   C     C_R   0.560642 0.573734 0.073204 -0.111258
C26   C     C_R   0.560458 0.573896 0.930733 -0.112864
C27   C     C_R   0.672642 0.501234 0.500556 0.848066
C28   C     C_R   0.819151 0.616254 0.501227 -0.265323
C29   C     C_R   0.767778 0.501602 0.502013 -0.023823
C30   C     C_R   0.806549 0.387246 0.503549 -0.233284
C31   C     C_R   0.899599 0.386496 0.503582 0.047950
C32   C     C_R   0.952881 0.501979 0.499935 0.053537
C33   C     C_3   0.732506 0.917676 0.986959 0.059545
C34   C     C_R   0.033421 0.271460 0.503762 0.490787
C35   C     C_3   0.785323 0.829341 0.071020 -0.300589
C36   C     C_3   0.774286 0.853775 0.220858 -0.983818
C37   C     C_1   0.345845 0.292396 0.255157 0.248471
C38   C     C_3   0.099765 0.125591 0.374738 0.065784
C39   C     C_3   0.021840 0.060894 0.291522 -0.381506
C40   C     C_3   0.055300 0.011148 0.158329 -0.924530
C41   C     C_R   0.087024 0.386805 0.505465 -0.012252
C42   C     C_R   0.046481 0.502148 0.498953 -0.000831
C43   C     C_R   0.099656 0.617895 0.492687 0.153009
C44   C     C_R   0.058889 0.731824 0.489940 -0.207179
C45   C     C_R   0.965417 0.731556 0.494564 -0.207458
H1    H     H_    0.786304 0.703606 0.501727 0.134215
H2    H     H_    0.764198 0.299638 0.504141 0.129601
H3    H     H_    0.610118 0.634766 0.879179 0.151358
H4    H     H_    0.898750 0.183944 0.508165 0.169960
H5    H     H_    0.213065 0.304040 0.529041 0.176517
H6    H     H_    0.235095 0.704526 0.482407 0.128202
H7    H     H_    0.099255 0.820815 0.485729 0.158773
H8    H     H_    0.934442 0.820115 0.494836 0.153791
H9    H     H_    0.443499 0.100681 0.312547 0.174713
H10   H     H_    0.659247 0.898767 0.009078 0.134516
H11   H     H_    0.754956 0.016324 0.016012 0.148051
H12   H     H_    0.642030 0.247963 0.679863 0.189572
H13   H     H_    0.761450 0.730223 0.046793 0.215650
H14   H     H_    0.858003 0.842840 0.045721 0.233407
H15   H     H_    0.798184 0.952336 0.247434 0.264446
H16   H     H_    0.815307 0.789850 0.277783 0.269310
H17   H     H_    0.702468 0.835976 0.249887 0.269434
H18   H     H_    0.153152 0.059112 0.385917 0.172462
H19   H     H_    0.131020 0.208053 0.319563 0.136606
H20   H     H_    0.989068 0.981493 0.348514 0.232622
H21   H     H_    0.970690 0.128777 0.270689 0.216741
H22   H     H_    0.087439 0.089466 0.098770 0.260410
H23   H     H_    0.737644 0.145476 0.833292 0.151365
H24   H     H_    0.997535 0.966026 0.099817 0.269761
H25   H     H_    0.104786 0.940192 0.175989 0.262941
H26   H     H_    0.642067 0.785180 0.676435 0.168692
H27   H     H_    0.433698 0.878433 0.322657 0.168411
H28   H     H_    0.610225 0.634401 0.127883 0.147244
H29   H     H_    0.239288 0.216091 0.079096 0.144950
H30   H     H_    0.254487 0.221950 0.840129 0.169576
H31   H     H_    0.378712 0.333220 0.741761 0.215288
N1    N     N_R   0.499150 0.498800 0.142780 -0.118199
N2    N     N_R   0.499120 0.498720 0.857170 -0.122948
N3    N     N_1   0.326607 0.249275 0.357949 -0.282387
O1    O     O_R   0.500000 0.316780 0.614690 -0.651030
O2    O     O_3   0.071181 0.156849 0.505419 -0.648408
O3    O     O_R   0.499990 0.316750 0.385360 -0.615280
O4    O     O_R   0.367850 0.499980 0.614680 -0.631886
O5    O     O_R   0.367840 0.499960 0.385350 -0.610360
O6    O     O_R   0.500010 0.683250 0.614640 -0.617457
O7    O     O_R   0.500000 0.683220 0.385310 -0.623816
O8    O     O_R   0.632160 0.500040 0.614650 -0.630902
O9    O     O_R   0.632150 0.500020 0.385320 -0.614960
O10   O     O_3   0.750169 0.895898 0.849969 -0.650351
Zn1   Zn    Zn3+2 0.500010 0.500020 0.653130 0.933700
Zn2   Zn    Zn3+2 0.499990 0.499980 0.346870 0.950792

loop_
_geom_bond_atom_site_label_1
_geom_bond_atom_site_label_2
_ccdc_geom_bond_type
C33   H10   S    
C27   C29   S    
C41   C42   A    
C19   C20   A    
C7    C8    A    
N2    Zn1   S    
C15   H27   S    
C37   N3    T    
C21   H31   S    
C28   H1    S    
C26   N2    A    
C40   H25   S    
C12   C28   A    
C35   H13   S    
C25   N1    A    
C28   C29   A    
C18   C37   S    
O7    Zn2   S    
C30   C31   A    
C23   H4    S    
C2    C41   A    
C35   H14   S    
C18   C19   A    
C2    H5    S    
C7    H23   S    
C35   C36   S    
C16   C17   S    
C40   H22   S    
C18   C24   A    
C34   O2    S    
C9    C10   A    
C26   H3    S    
C44   H7    S    
C33   H11   S    
C5    C43   A    
C45   H8    S    
C13   C14   A    
C12   C32   A    
C16   O7    A    
C39   H20   S    
C6    H12   S    
C34   C41   A    
C36   H17   S    
C38   H19   S    
C40   H24   S    
C30   H2    S    
C22   N2    A    
C39   C40   S    
C8    C9    A    
C36   H15   S    
C25   C26   A    
O3    Zn2   S    
C20   H30   S    
C23   C31   A    
C43   C44   A    
C29   C30   A    
C33   O10   S    
C31   C32   A    
C4    O5    A    
O9    Zn2   S    
C23   C34   A    
C27   O8    A    
C14   H9    S    
C38   O2    S    
C16   O6    A    
C39   H21   S    
C22   C24   A    
C1    C13   S    
C42   C43   A    
C3    C4    S    
C6    C11   A    
C44   C45   A    
C38   H18   S    
C15   C17   A    
O4    Zn1   S    
N1    Zn2   S    
C19   H29   S    
C9    H26   S    
C12   C45   A    
C3    C5    A    
O6    Zn1   S    
C6    C7    A    
C2    C3    A    
C1    O3    A    
C11   C13   A    
C38   C39   S    
C4    O4    A    
O5    Zn2   S    
C33   C35   S    
C25   H28   S    
O1    Zn1   S    
C27   O9    A    
C10   C11   A    
C24   N1    A    
C20   C21   A    
O8    Zn1   S    
C1    O1    A    
C32   C42   A    
C14   C15   A    
C5    H6    S    
C8    O10   S    
C10   C17   A    
C21   C22   A    
C36   H16   S    
