data_mof_unit_9553.cif
_audit_creation_date              2012-12-10T18:36:57-0500
_audit_creation_method            fapswitch 2.2
_symmetry_space_group_name_H-M    P1
_symmetry_Int_Tables_number       1
_space_group_crystal_system       triclinic
_cell_length_a                    15.026021
_cell_length_b                    15.481388
_cell_length_c                    23.413467
_cell_angle_alpha                 91.293975
_cell_angle_beta                  104.344257
_cell_angle_gamma                 81.00157
_cell_volume                      5211.04246231

loop_
_atom_site_label
_atom_site_type_symbol
_atom_type_description
_atom_site_fract_x
_atom_site_fract_y
_atom_site_fract_z
_atom_type_partial_charge
C1    C     C_R   0.441333 0.661988 0.492812 0.868104
C2    C     C_R   0.558639 0.337970 0.508665 0.877315
C3    C     C_R   0.451386 0.456229 0.756801 -0.157233
C4    C     C_R   0.537529 0.564008 0.243862 -0.148953
C5    C     C_R   0.448866 0.450005 0.696983 -0.029453
C6    C     C_R   0.540247 0.565905 0.303802 -0.037852
C7    C     C_R   0.504271 0.498885 0.673437 -0.072145
C8    C     C_R   0.493254 0.507447 0.326635 -0.076059
C9    C     C_R   0.561871 0.551097 0.710651 -0.227729
C10   C     C_R   0.441953 0.451470 0.288681 -0.226556
C11   C     C_R   0.564178 0.555771 0.770211 -0.106922
C12   C     C_R   0.438976 0.451357 0.229001 -0.104040
C13   C     C_R   0.508980 0.508379 0.793086 0.317731
C14   C     C_R   0.487261 0.507139 0.206785 0.309076
C15   C     C_R   0.404760 0.754922 0.492635 -0.043941
C16   C     C_R   0.593988 0.245407 0.520750 -0.048638
C17   C     C_R   0.282129 0.877822 0.462859 -0.209146
C18   C     C_R   0.704993 0.129583 0.577387 -0.210078
C19   C     C_R   0.311609 0.787795 0.466576 -0.168485
C20   C     C_R   0.682130 0.216307 0.557318 -0.179690
C21   C     C_R   0.466254 0.811592 0.518260 -0.287089
C22   C     C_R   0.531311 0.187129 0.502421 -0.270614
C23   C     C_R   0.501427 0.499038 0.610559 0.870202
C24   C     C_R   0.498077 0.502153 0.389499 0.872547
C25   C     C_R   0.439069 0.902040 0.514149 0.090207
C26   C     C_R   0.548575 0.103206 0.526985 0.081063
C27   C     C_R   0.346017 0.935125 0.484399 0.181663
C28   C     C_R   0.638241 0.073198 0.563268 0.177265
C29   C     C_R   0.504246 0.959865 0.534245 0.072094
C30   C     C_R   0.478926 0.048704 0.516097 0.067481
C31   C     C_R   0.384432 0.080593 0.488954 -0.251586
C32   C     C_R   0.594065 0.931760 0.571063 -0.234769
C33   C     C_R   0.318869 0.024666 0.474563 -0.236816
C34   C     C_R   0.659448 0.988000 0.585698 -0.237985
C35   C     C_R   0.842558 0.627568 0.597595 -0.320910
C36   C     C_R   0.177095 0.334206 0.437067 -0.327531
C37   C     C_R   0.752263 0.610252 0.577486 -0.008945
C38   C     C_R   0.257260 0.369554 0.440064 -0.005029
C39   C     C_R   0.797626 0.509274 0.507701 0.059999
C40   C     C_R   0.202334 0.493899 0.490786 0.081183
C41   C     C_R   0.892362 0.517960 0.530622 -0.081458
C42   C     C_R   0.122393 0.457369 0.493415 -0.070818
C43   C     C_R   0.912906 0.581786 0.574188 0.185564
C44   C     C_R   0.109603 0.377530 0.463777 0.179339
C45   C     C_R   0.535150 0.434394 0.125167 0.490875
C46   C     C_R   0.465194 0.583432 0.875189 0.491118
C47   C     C_R   0.967088 0.467187 0.511458 0.067500
C48   C     C_R   0.054641 0.496187 0.523677 0.062615
C49   C     C_R   0.073480 0.556517 0.569581 -0.252097
C50   C     C_R   0.960178 0.384582 0.485519 -0.248946
C51   C     C_R   0.003915 0.597995 0.594712 -0.206934
C52   C     C_R   0.030464 0.340419 0.462289 -0.213305
C53   C     C_R   0.443385 0.576509 0.111184 0.506247
C54   C     C_R   0.556076 0.440908 0.889046 0.507072
C55   C     C_R   0.448969 0.579689 0.052741 -0.020475
C56   C     C_R   0.551958 0.438398 0.947770 -0.021185
C57   C     C_R   0.497524 0.507487 0.029778 -0.031547
C58   C     C_R   0.503799 0.510796 0.970805 -0.031490
C59   C     C_R   0.539612 0.432184 0.065689 -0.059981
C60   C     C_R   0.461702 0.586096 0.934870 -0.060971
C61   C     C_R   0.408617 0.654387 0.017638 -0.218088
C62   C     C_R   0.592898 0.363958 0.982985 -0.218207
C63   C     C_R   0.415593 0.659236 0.959554 -0.015038
C64   C     C_R   0.586287 0.359262 0.041128 -0.015275
H1    H     H_    0.372932 0.710655 0.035774 0.191276
H2    H     H_    0.628615 0.307692 0.964863 0.191452
H3    H     H_    0.210583 0.902675 0.440837 0.135313
H4    H     H_    0.773353 0.107551 0.605711 0.139256
H5    H     H_    0.358361 0.149060 0.479584 0.144076
H6    H     H_    0.614930 0.867339 0.591047 0.144408
H7    H     H_    0.021325 0.643775 0.629926 0.150259
H8    H     H_    0.022217 0.277334 0.442367 0.148212
H9    H     H_    0.312096 0.333963 0.422429 0.134496
H10   H     H_    0.698034 0.642642 0.597000 0.131817
H11   H     H_    0.857607 0.675110 0.631933 0.144353
H12   H     H_    0.169139 0.272178 0.415530 0.142083
H13   H     H_    0.142944 0.567993 0.589914 0.193561
H14   H     H_    0.903011 0.350462 0.485822 0.183749
H15   H     H_    0.409865 0.419198 0.775766 0.135646
H16   H     H_    0.573710 0.607470 0.225532 0.141248
H17   H     H_    0.604286 0.589390 0.693527 0.158404
H18   H     H_    0.405618 0.406485 0.305424 0.158537
H19   H     H_    0.608707 0.596140 0.798643 0.134887
H20   H     H_    0.400066 0.407357 0.200046 0.137929
H21   H     H_    0.247483 0.051283 0.453224 0.141565
H22   H     H_    0.727169 0.964405 0.614335 0.145158
H23   H     H_    0.467659 0.209827 0.469974 0.151771
H24   H     H_    0.537393 0.783742 0.537558 0.156518
H25   H     H_    0.731724 0.260914 0.571886 0.166697
H26   H     H_    0.262697 0.744372 0.447301 0.149393
N1    N     N_R   0.487042 0.505283 0.145909 -0.351797
N2    N     N_R   0.511874 0.511864 0.854264 -0.352560
N3    N     N_R   0.731690 0.552740 0.533440 -0.108069
N4    N     N_R   0.268310 0.447260 0.466560 -0.116918
O1    O     O_R   0.383120 0.605620 0.483150 -0.583422
O2    O     O_R   0.616880 0.394380 0.516850 -0.558233
O3    O     O_R   0.531890 0.639510 0.504600 -0.632343
O4    O     O_R   0.468110 0.360490 0.495400 -0.637170
O5    O     O_R   0.425590 0.483070 0.573110 -0.548642
O6    O     O_R   0.574410 0.516930 0.426890 -0.570781
O7    O     O_R   0.574360 0.516970 0.594570 -0.637482
O8    O     O_R   0.425640 0.483030 0.405430 -0.634395
O9    O     O_2   0.580401 0.368076 0.162815 -0.552902
O10   O     O_2   0.420314 0.649858 0.837545 -0.552065
O11   O     O_2   0.395408 0.644353 0.133594 -0.569150
O12   O     O_2   0.602751 0.372493 0.866313 -0.567676
Zn1   Zn    Zn3+2 0.400660 0.477370 0.485670 0.980460
Zn2   Zn    Zn3+2 0.599340 0.522630 0.514330 0.984521
C65   C     C_2   0.210360 0.585478 0.506450 0.404371
H27   H     H_    0.160143 0.637685 0.481464 0.021755
O13   O     O_2   0.268751 0.603207 0.549562 -0.549435
C66   C     C_2   0.767942 0.464792 0.451373 0.439581
H28   H     H_    0.788937 0.483944 0.413038 0.038579
O14   O     O_2   0.727869 0.401616 0.448393 -0.555092
C67   C     C_R   0.376758 0.743462 0.927729 0.185824
C68   C     C_R   0.280115 0.769450 0.909617 -0.129511
C69   C     C_R   0.243596 0.849754 0.880328 -0.131329
C70   C     C_R   0.303272 0.904670 0.869377 -0.103244
C71   C     C_R   0.399590 0.879491 0.887841 -0.127602
C72   C     C_R   0.436401 0.799253 0.917145 -0.085848
H29   H     H_    0.233326 0.727417 0.917982 0.128663
H30   H     H_    0.169048 0.869460 0.866175 0.130959
H31   H     H_    0.274886 0.966807 0.846715 0.128821
H32   H     H_    0.445711 0.922195 0.879514 0.131421
H33   H     H_    0.511115 0.780401 0.931438 0.118582
C73   C     C_R   0.625809 0.275238 0.073059 0.186188
C74   C     C_R   0.566789 0.218317 0.082957 -0.087564
C75   C     C_R   0.604299 0.138269 0.112365 -0.128167
C76   C     C_R   0.700706 0.114428 0.131629 -0.103720
C77   C     C_R   0.759776 0.170496 0.121377 -0.130358
C78   C     C_R   0.722557 0.250609 0.091979 -0.127137
H34   H     H_    0.492020 0.236140 0.068046 0.118559
H35   H     H_    0.558654 0.094676 0.120153 0.131192
H36   H     H_    0.729636 0.052439 0.154375 0.128310
H37   H     H_    0.834398 0.151831 0.136155 0.131449
H38   H     H_    0.768876 0.293541 0.084150 0.128654
C79   C     C_R   0.391050 0.389244 0.661532 0.140984
C80   C     C_R   0.294172 0.403610 0.654086 -0.125626
C81   C     C_R   0.239723 0.345836 0.620910 -0.136754
C82   C     C_R   0.281574 0.273348 0.595222 -0.107807
C83   C     C_R   0.378010 0.258171 0.603100 -0.119270
C84   C     C_R   0.432744 0.315812 0.636048 -0.108062
H39   H     H_    0.260941 0.459736 0.673622 0.134800
H40   H     H_    0.165068 0.357292 0.615057 0.147643
H41   H     H_    0.239358 0.228758 0.569444 0.134004
H42   H     H_    0.410513 0.201432 0.584083 0.142511
H43   H     H_    0.507440 0.303230 0.641807 0.113278
C85   C     C_R   0.589730 0.631495 0.340336 0.139743
C86   C     C_R   0.541687 0.696286 0.369358 -0.101877
C87   C     C_R   0.588794 0.758178 0.403525 -0.113505
C88   C     C_R   0.684019 0.755410 0.409401 -0.106404
C89   C     C_R   0.732020 0.691806 0.380122 -0.157898
C90   C     C_R   0.684902 0.630707 0.345103 -0.171562
H44   H     H_    0.467917 0.698979 0.365336 0.102116
H45   H     H_    0.551499 0.808524 0.425284 0.138822
H46   H     H_    0.720429 0.802959 0.436270 0.131420
H47   H     H_    0.805693 0.689964 0.384427 0.133269
H48   H     H_    0.722811 0.581942 0.322442 0.130578

loop_
_geom_bond_atom_site_label_1
_geom_bond_atom_site_label_2
_ccdc_geom_bond_type
C23   O5    A    
C37   H10   S    
C73   C74   A    
C69   C70   A    
C77   H37   S    
C79   C84   A    
C3    H15   S    
C75   C76   A    
C66   O14   D    
C39   C41   A    
C71   H32   S    
C27   C33   A    
C15   C19   A    
C35   H11   S    
C59   C64   A    
C42   C44   A    
C60   C63   A    
C39   C66   S    
C35   C37   A    
C4    H16   S    
C29   C32   A    
C80   H39   S    
C65   O13   D    
N3    Zn2   S    
C30   C31   A    
C57   C59   A    
C46   N2    A    
C58   C60   A    
C67   C68   A    
C68   C69   A    
C12   H20   S    
C34   H22   S    
C90   H48   S    
C61   C63   A    
C33   H21   S    
C70   C71   A    
C39   N3    A    
C62   C64   A    
C36   H12   S    
C17   C19   A    
C74   H34   S    
O3    Zn2   S    
C56   C58   A    
C49   C51   A    
C53   N1    A    
C50   C52   A    
C88   C89   A    
C31   C33   A    
C1    C15   S    
C2    C16   S    
C24   O8    A    
C3    C13   A    
C1    O1    A    
C63   C67   S    
C44   C52   A    
O7    Zn2   S    
C40   C42   A    
O2    Zn2   S    
C21   H24   S    
C28   C34   A    
C86   H44   S    
O1    Zn1   S    
C41   C43   A    
C51   H7    S    
C50   H14   S    
C66   H28   S    
C47   C50   A    
C53   C55   A    
C25   C29   A    
C54   C56   A    
N4    Zn1   S    
C17   H3    S    
O6    Zn2   S    
C68   H29   S    
C54   O12   S    
C17   C27   A    
C18   C28   A    
C82   C83   A    
C4    C6    A    
C78   H38   S    
C1    O3    A    
C5    C7    A    
C62   H2    S    
C72   H33   S    
C32   H6    S    
C11   H19   S    
C22   H23   S    
C46   O10   S    
C10   H18   S    
O4    Zn1   S    
C32   C34   A    
C69   H30   S    
C54   N2    A    
C29   C30   A    
C52   H8    S    
C53   O11   S    
C6    C85   S    
C75   H35   S    
C47   C48   A    
C15   C21   A    
C16   C20   A    
C38   N4    A    
C41   C47   A    
C37   N3    A    
O8    Zn1   S    
C42   C48   A    
C88   H46   S    
C85   C86   A    
C71   C72   A    
C9    C11   A    
C10   C12   A    
C83   H42   S    
C48   C49   A    
C12   C14   A    
C26   C30   A    
C64   C73   S    
C87   H45   S    
C55   C57   A    
C13   N2    S    
C56   C62   A    
C36   C44   A    
C85   C90   A    
C74   C75   A    
C35   C43   A    
C76   C77   A    
C20   H25   S    
C7    C9    A    
C21   C25   A    
C89   H47   S    
C45   C59   A    
C16   C22   A    
C46   C60   A    
C24   O6    A    
C84   H43   S    
C40   N4    A    
C3    C5    A    
C82   H41   S    
C6    C8    A    
C81   C82   A    
C5    C79   S    
C40   C65   S    
C25   C27   A    
O5    Zn1   S    
C79   C80   A    
C26   C28   A    
C2    O2    A    
C77   C78   A    
C19   H26   S    
C86   C87   A    
C11   C13   A    
C43   C51   A    
C57   C58   A    
C23   O7    A    
C73   C78   A    
C7    C23   S    
C55   C61   A    
C36   C38   A    
C8    C24   S    
C49   H13   S    
C18   C20   A    
C70   H31   S    
C4    C14   A    
C45   N1    A    
C14   N1    S    
C80   C81   A    
C76   H36   S    
C61   H1    S    
C31   H5    S    
C89   C90   A    
C2    O4    A    
C8    C10   A    
C67   C72   A    
C22   C26   A    
C65   H27   S    
C87   C88   A    
C83   C84   A    
C18   H4    S    
C9    H17   S    
C81   H40   S    
C38   H9    S    
C45   O9    S    
