data_mof_unit_24277.cif
_audit_creation_date              2012-10-26T21:23:36-0400
_audit_creation_method            fapswitch 2.2
_symmetry_space_group_name_H-M    P1
_symmetry_Int_Tables_number       1
_space_group_crystal_system       triclinic
_cell_length_a                    27.679684
_cell_length_b                    10.98572
_cell_length_c                    9.892085
_cell_angle_alpha                 88.156022
_cell_angle_beta                  91.757657
_cell_angle_gamma                 93.916431
_cell_volume                      2998.1959813

loop_
_atom_site_label
_atom_site_type_symbol
_atom_type_description
_atom_site_fract_x
_atom_site_fract_y
_atom_site_fract_z
_atom_type_partial_charge
C1    C     C_R   0.500749 0.265921 0.502529 0.568488
C2    C     C_R   0.972685 0.435076 0.576514 0.028088
C3    C     C_R   0.974045 0.552674 0.359467 -0.030117
C4    C     C_R   0.407767 0.502013 0.498227 0.587059
C5    C     C_R   0.948390 0.501337 0.472059 0.023668
C6    C     C_R   0.946000 0.390766 0.689590 -0.133396
C7    C     C_R   0.896715 0.404443 0.696125 -0.098195
C8    C     C_R   0.872036 0.463900 0.591093 0.028404
C9    C     C_R   0.897763 0.515096 0.479802 -0.061421
C10   C     C_R   0.872660 0.578692 0.376031 0.014737
C11   C     C_R   0.821573 0.577093 0.379815 0.433735
C12   C     C_R   0.277437 0.453809 0.600129 0.245627
C13   C     C_R   0.821813 0.472235 0.594536 0.450378
C14   C     C_R   0.718864 0.421829 0.433247 0.249708
C15   C     C_R   0.668166 0.415778 0.437404 -0.164383
C16   C     C_R   0.500633 0.732934 0.498303 0.518032
C17   C     C_R   0.671655 0.607354 0.552539 -0.177364
C18   C     C_R   0.722485 0.617975 0.544508 0.278751
C19   C     C_R   0.745799 0.522057 0.488989 0.301953
C20   C     C_R   0.022756 0.416797 0.565979 0.020831
C21   C     C_R   0.048636 0.471552 0.455549 0.043398
C22   C     C_R   0.024444 0.536482 0.350211 0.018548
C23   C     C_R   0.252421 0.491419 0.479538 0.236599
C24   C     C_R   0.047884 0.342459 0.660308 -0.137772
C25   C     C_R   0.101150 0.566753 0.232301 -0.100558
C26   C     C_R   0.948581 0.622034 0.261661 -0.080375
C27   C     C_R   0.899333 0.637875 0.270381 0.249369
C28   C     C_R   0.592074 0.500836 0.501175 0.505273
C29   C     C_R   0.051656 0.580503 0.237464 -0.137721
C30   C     C_2   0.475134 0.928991 0.424519 -0.126911
C31   C     C_2   0.506304 0.863038 0.494885 -0.101100
C32   C     C_2   0.480824 0.063652 0.411898 0.213537
C33   C     C_2   0.501626 0.132494 0.512427 0.304415
C34   C     C_R   0.099278 0.459364 0.449276 -0.033751
C35   C     C_2   0.470808 0.426605 0.919945 0.433748
C36   C     C_2   0.472573 0.422003 0.078390 0.455414
C37   C     C_R   0.173634 0.380714 0.539224 0.455314
C38   C     C_R   0.175922 0.498937 0.338878 0.451091
C39   C     C_R   0.279542 0.575695 0.394091 0.242604
C40   C     C_R   0.330750 0.572903 0.392439 0.171119
C41   C     C_R   0.328204 0.455292 0.602646 -0.206472
C42   C     C_3   0.734656 0.830498 0.555309 0.004029
C43   C     C_3   0.739025 0.854984 0.402064 -0.261004
C44   C     C_3   0.722995 0.981371 0.360773 -0.488287
C45   C     C_R   0.123433 0.389293 0.547563 0.018531
C46   C     C_3   0.562125 0.121844 0.685007 -0.006384
C47   C     C_3   0.603351 0.114699 0.584500 -0.318237
C48   C     C_3   0.652108 0.157360 0.649183 -0.462630
C49   C     C_3   0.569049 0.623186 0.854345 0.092743
C50   C     C_3   0.623914 0.618582 0.881153 -0.283037
C51   C     C_3   0.649817 0.745885 0.873860 -0.486775
C52   C     C_3   0.395039 0.357697 0.134239 0.002332
C53   C     C_3   0.365303 0.268431 0.225917 -0.237799
C54   C     C_3   0.311097 0.284392 0.207866 -0.465907
C55   C     C_3   0.546291 0.680284 0.148523 0.100961
C56   C     C_R   0.097155 0.328292 0.650296 -0.101203
C57   C     C_3   0.538766 0.817697 0.138179 -0.267546
C58   C     C_3   0.579893 0.893078 0.209511 -0.494899
C59   C     C_R   0.125545 0.509204 0.339302 0.019199
C60   C     C_R   0.354706 0.506914 0.494882 -0.026638
C61   C     C_R   0.644840 0.506125 0.501026 -0.060650
Cu1   Cu    Cu3+1 0.500010 0.500020 0.638630 1.027075
Cu2   Cu    Cu3+1 0.499990 0.499980 0.361370 1.041493
H1    H     H_    0.347057 0.417918 0.690502 0.160004
H2    H     H_    0.877895 0.366991 0.784148 0.173441
H3    H     H_    0.962138 0.345913 0.776356 0.114116
H4    H     H_    0.030464 0.291677 0.742210 0.115241
H5    H     H_    0.280440 0.740074 0.312459 0.338738
H6    H     H_    0.858868 0.769131 0.223896 0.347558
H7    H     H_    0.758303 0.901067 0.607730 0.171487
H8    H     H_    0.697556 0.843741 0.588676 0.109017
H9    H     H_    0.777305 0.848701 0.373813 0.199919
H10   H     H_    0.716022 0.786037 0.345251 0.176024
H11   H     H_    0.684399 0.988533 0.385251 0.135128
H12   H     H_    0.120426 0.603668 0.144827 0.173664
H13   H     H_    0.726889 0.997024 0.250076 0.166729
H14   H     H_    0.745766 0.052898 0.414290 0.177068
H15   H     H_    0.449972 0.056634 0.232508 0.318613
H16   H     H_    0.275915 0.410371 0.793203 0.328533
H17   H     H_    0.570959 0.063990 0.775403 0.153847
H18   H     H_    0.561581 0.215436 0.723165 0.185761
H19   H     H_    0.605727 0.019646 0.552274 0.140048
H20   H     H_    0.596704 0.173197 0.493193 0.143703
H21   H     H_    0.651300 0.252700 0.682814 0.175117
H22   H     H_    0.681031 0.154015 0.574360 0.161833
H23   H     H_    0.966194 0.670230 0.178394 0.144291
H24   H     H_    0.660881 0.096972 0.737506 0.151159
H25   H     H_    0.434956 0.270841 0.905422 0.320314
H26   H     H_    0.554136 0.702383 0.898371 0.128455
H27   H     H_    0.564046 0.648562 0.749286 0.184481
H28   H     H_    0.631931 0.574971 0.981403 0.178921
H29   H     H_    0.638877 0.559975 0.805827 0.185822
H30   H     H_    0.638994 0.796497 0.780088 0.121978
H31   H     H_    0.689620 0.738160 0.875442 0.199962
H32   H     H_    0.640600 0.798766 0.961873 0.140481
H33   H     H_    0.380184 0.348067 0.029516 0.129098
H34   H     H_    0.652362 0.677219 0.596979 0.097513
H35   H     H_    0.389951 0.452581 0.164040 0.184168
H36   H     H_    0.372095 0.173339 0.200890 0.196137
H37   H     H_    0.376625 0.282635 0.333270 0.192269
H38   H     H_    0.303111 0.380138 0.224570 0.173778
H39   H     H_    0.290881 0.223938 0.281849 0.172798
H40   H     H_    0.298421 0.259707 0.104056 0.168956
H41   H     H_    0.579353 0.661574 0.098714 0.106090
H42   H     H_    0.558052 0.656154 0.249217 0.197410
H43   H     H_    0.536218 0.849607 0.030863 0.149306
H44   H     H_    0.503960 0.835206 0.183979 0.196703
H45   H     H_    0.035908 0.625165 0.150043 0.113291
H46   H     H_    0.583751 0.863115 0.317281 0.133798
H47   H     H_    0.572036 0.990933 0.205058 0.166418
H48   H     H_    0.614715 0.883301 0.159780 0.139468
H49   H     H_    0.718991 0.268600 0.340444 0.313232
H50   H     H_    0.337106 0.650417 0.214277 0.332769
H51   H     H_    0.445312 0.882300 0.368524 0.140576
H52   H     H_    0.537979 0.901419 0.547437 0.129121
H53   H     H_    0.114849 0.271539 0.725692 0.172065
H54   H     H_    0.646932 0.340077 0.392778 0.110079
N1    N     N_R   0.200238 0.459197 0.454083 -0.368396
N2    N     N_R   0.797698 0.525995 0.488764 -0.345085
N3    N     N_2   0.499480 0.498660 0.846910 -0.014622
N4    N     N_2   0.499460 0.498630 0.153040 -0.035682
O1    O     O_R   0.500010 0.321960 0.617040 -0.474734
O2    O     O_R   0.569740 0.500000 0.617090 -0.526238
O3    O     O_R   0.569730 0.499960 0.382940 -0.545339
O4    O     O_2   0.194291 0.288475 0.607063 -0.438406
O5    O     O_3   0.256536 0.670692 0.330764 -0.643930
O6    O     O_3   0.879138 0.714944 0.175155 -0.648020
O7    O     O_3   0.751006 0.715303 0.597633 -0.546940
O8    O     O_3   0.461868 0.119915 0.297037 -0.678110
O9    O     O_3   0.252852 0.431799 0.718872 -0.626520
O10   O     O_3   0.515648 0.076954 0.635116 -0.601697
O11   O     O_3   0.439071 0.347476 0.850309 -0.705349
O12   O     O_2   0.796986 0.424553 0.701345 -0.477312
O13   O     O_3   0.544999 0.511903 0.901596 -0.497615
O14   O     O_3   0.444447 0.330809 0.144546 -0.543531
O15   O     O_3   0.504783 0.612213 0.094268 -0.501378
O16   O     O_3   0.743073 0.331664 0.375601 -0.675495
O17   O     O_3   0.357902 0.637958 0.296231 -0.704328
O18   O     O_2   0.199121 0.519910 0.221721 -0.443194
O19   O     O_2   0.795619 0.621562 0.274021 -0.476632
O20   O     O_R   0.499990 0.321920 0.382900 -0.437786
O21   O     O_R   0.430270 0.500040 0.617060 -0.468806
O22   O     O_R   0.430260 0.500000 0.382910 -0.453016
O23   O     O_R   0.500010 0.678080 0.617100 -0.529480
O24   O     O_R   0.499990 0.678040 0.382960 -0.514570

loop_
_geom_bond_atom_site_label_1
_geom_bond_atom_site_label_2
_ccdc_geom_bond_type
C10   C27   A    
C43   H10   S    
C30   C32   S    
C49   O13   S    
C8    C13   A    
C40   C60   A    
C22   C29   A    
C58   H46   S    
C30   H51   S    
C54   H38   S    
C35   C36   S    
Cu1   O1    S    
C49   H27   S    
C43   C44   S    
C11   N2    A    
C23   N1    S    
Cu2   O3    S    
C28   O2    A    
C1    C33   S    
C7    C8    A    
C53   C54   S    
C53   H36   S    
C16   C31   S    
C12   C23   A    
C26   C27   A    
C12   C41   A    
C12   O9    S    
C55   H42   S    
C44   H14   S    
C16   O23   A    
H15   O8    S    
Cu1   O21   S    
C4    O21   A    
C30   C31   D    
C55   O15   S    
C42   H7    S    
C18   C19   A    
C47   H19   S    
C44   H13   S    
C1    O1    A    
Cu1   O2    S    
C24   H4    S    
C17   C61   A    
C27   O6    S    
C37   N1    A    
C20   C24   A    
C45   C56   A    
C8    C9    A    
C40   O17   S    
C38   O18   S    
C29   H45   S    
C47   H20   S    
C9    C10   A    
Cu1   N3    S    
C42   O7    S    
C18   O7    S    
C28   C61   S    
C33   O10   S    
C57   H43   S    
C19   N2    S    
C39   O5    S    
C58   H47   S    
C21   C22   A    
C35   N3    D    
C2    C6    A    
C4    O22   A    
C14   C19   A    
C31   H52   S    
C32   O8    S    
Cu2   N4    S    
C50   C51   S    
C37   O4    S    
C53   H37   S    
C25   C29   A    
Cu2   O20   S    
C2    C20   A    
C58   H48   S    
C54   H40   S    
C49   H26   S    
C46   O10   S    
C21   C34   A    
C56   H53   S    
H16   O9    S    
C55   H41   S    
C15   H54   S    
C16   O24   A    
C25   H12   S    
C11   O19   S    
C5    C9    A    
Cu1   Cu2   S    
C7    H2    S    
C46   H18   S    
C47   C48   S    
C14   C15   A    
C14   O16   S    
C26   H23   S    
C4    C60   S    
C17   C18   A    
C15   C61   A    
C48   H24   S    
C34   C45   A    
C44   H11   S    
C51   H30   S    
C50   H29   S    
C57   H44   S    
C55   C57   S    
C34   C59   A    
C2    C5    A    
C42   C43   S    
H25   O11   S    
C37   C45   A    
C36   O14   S    
H5    O5    S    
C39   C40   A    
C52   C53   S    
C13   N2    A    
C43   H9    S    
C46   C47   S    
C48   H22   S    
C13   O12   S    
H49   O16   S    
C54   H39   S    
C3    C26   A    
C41   C60   A    
Cu1   O23   S    
C3    C5    A    
C28   O3    A    
C6    C7    A    
C24   C56   A    
C32   C33   D    
C36   N4    D    
C46   H17   S    
C57   C58   S    
C23   C39   A    
C52   H35   S    
C42   H8    S    
C52   H33   S    
N3    O13   S    
N4    O15   S    
C1    O20   A    
C10   C11   A    
C51   H31   S    
C38   C59   A    
C38   N1    A    
C48   H21   S    
C50   H28   S    
C6    H3    S    
C20   C21   A    
H6    O6    S    
C49   C50   S    
C52   O14   S    
Cu2   O22   S    
H50   O17   S    
C3    C22   A    
C25   C59   A    
C41   H1    S    
C17   H34   S    
C35   O11   S    
Cu2   O24   S    
C51   H32   S    
