data_mof_unit_20605.cif
_audit_creation_date              2012-12-10T18:13:52-0500
_audit_creation_method            fapswitch 2.2
_symmetry_space_group_name_H-M    P1
_symmetry_Int_Tables_number       1
_space_group_crystal_system       triclinic
_cell_length_a                    10.779375
_cell_length_b                    9.405711
_cell_length_c                    23.527996
_cell_angle_alpha                 90.486402
_cell_angle_beta                  89.743271
_cell_angle_gamma                 89.322805
_cell_volume                      2385.17146962

loop_
_atom_site_label
_atom_site_type_symbol
_atom_type_description
_atom_site_fract_x
_atom_site_fract_y
_atom_site_fract_z
_atom_type_partial_charge
C1    C     C_R   0.260105 0.501019 0.499792 0.796910
C2    C     C_R   0.263933 0.487717 0.970298 -0.149806
C3    C     C_R   0.263427 0.489923 0.029627 -0.146597
C4    C     C_R   0.374822 0.503764 0.059848 -0.018720
C5    C     C_R   0.487498 0.515917 0.029812 -0.014542
C6    C     C_R   0.599725 0.529976 0.059621 -0.017744
C7    C     C_R   0.711628 0.541941 0.029305 -0.145038
C8    C     C_R   0.712223 0.539311 0.970030 -0.151185
C9    C     C_R   0.376917 0.504107 0.119514 0.550006
C10   C     C_R   0.597138 0.530657 0.119202 0.547494
C11   C     C_R   0.545467 0.393450 0.235180 -0.057623
C12   C     C_R   0.502240 0.499341 0.390859 0.776226
C13   C     C_R   0.554607 0.387366 0.294565 -0.043927
C14   C     C_R   0.501456 0.499288 0.328007 -0.135624
C15   C     C_R   0.443461 0.614610 0.300637 -0.190870
C16   C     C_R   0.437166 0.619661 0.241580 -0.067770
C17   C     C_R   0.488360 0.509289 0.208715 0.291227
C18   C     C_R   0.485744 0.639796 0.760497 0.039417
C19   C     C_R   0.489697 0.634289 0.701009 -0.315476
C20   C     C_R   0.496901 0.503595 0.671716 -0.026335
C21   C     C_R   0.500393 0.376811 0.702598 -0.168388
C22   C     C_R   0.497028 0.380689 0.761765 -0.138394
C23   C     C_R   0.740245 0.499372 0.498466 0.748840
C24   C     C_R   0.489840 0.510845 0.791027 0.349529
C25   C     C_3   0.071337 0.657378 0.497941 -0.363251
C26   C     C_3   0.072846 0.425265 0.551553 -0.433464
C27   C     C_3   0.928503 0.657071 0.492233 -0.165592
C28   C     C_3   0.930622 0.444293 0.555575 -0.136596
C29   C     C_3   0.078844 0.428071 0.443494 -0.286124
C30   C     C_3   0.123114 0.502832 0.498514 0.014008
C31   C     C_3   0.879178 0.498526 0.496644 -0.143398
C32   C     C_3   0.935194 0.403810 0.445436 -0.030560
C33   C     C_3   0.597658 0.083344 0.539076 -0.167439
C34   C     C_3   0.598877 0.915635 0.538431 -0.193512
C35   C     C_3   0.379957 0.085668 0.521436 -0.186616
C36   C     C_3   0.380537 0.918127 0.522142 -0.189758
C37   C     C_3   0.523063 0.081765 0.443726 -0.172970
C38   C     C_3   0.521204 0.914788 0.443533 -0.158067
C39   C     C_R   0.499414 0.500722 0.609124 0.855670
C40   C     C_R   0.599195 0.522415 0.880268 0.594208
C41   C     C_R   0.378773 0.497471 0.880315 0.589373
C42   C     C_R   0.375847 0.499248 0.939953 -0.012186
C43   C     C_R   0.488055 0.513507 0.969824 -0.009956
C44   C     C_R   0.600900 0.525008 0.939854 -0.014220
Cu1   Cu    Cu3+1 0.499860 0.642410 0.500030 0.905633
Cu2   Cu    Cu3+1 0.499860 0.357590 0.500030 0.915242
H1    H     H_    0.500429 0.282061 0.785155 0.146756
H2    H     H_    0.097230 0.713000 0.538088 0.163513
H3    H     H_    0.115988 0.468841 0.590838 0.156557
H4    H     H_    0.104786 0.496978 0.407134 0.176228
H5    H     H_    0.131855 0.327700 0.435663 0.206077
H6    H     H_    0.583222 0.122305 0.583377 0.163262
H7    H     H_    0.587350 0.876357 0.582543 0.145145
H8    H     H_    0.690333 0.120845 0.525682 0.149119
H9    H     H_    0.691586 0.877666 0.523669 0.156153
H10   H     H_    0.358158 0.127940 0.564688 0.141008
H11   H     H_    0.361224 0.880287 0.565936 0.139947
H12   H     H_    0.614409 0.116744 0.427730 0.138949
H13   H     H_    0.610261 0.872478 0.425850 0.159860
H14   H     H_    0.799146 0.552836 0.051250 0.194181
H15   H     H_    0.401876 0.701073 0.325059 0.160497
H16   H     H_    0.393283 0.709981 0.221300 0.159777
N1    N     N_R   0.489185 0.510023 0.851941 -0.451886
N2    N     N_R   0.487058 0.516499 0.147827 -0.470204
N3    N     N_3   0.500250 0.143650 0.501250 -0.138869
N4    N     N_3   0.500250 0.856350 0.501250 -0.132685
O1    O     O_R   0.317570 0.620260 0.500030 -0.598823
O2    O     O_R   0.317570 0.379740 0.500030 -0.593784
O3    O     O_R   0.499840 0.620290 0.417900 -0.587839
O4    O     O_R   0.499840 0.379710 0.417900 -0.605730
O5    O     O_R   0.682190 0.620260 0.500010 -0.601794
O6    O     O_R   0.682190 0.379740 0.500010 -0.595377
O7    O     O_R   0.499920 0.620230 0.582140 -0.592303
O8    O     O_R   0.499920 0.379770 0.582140 -0.576322
O9    O     O_2   0.706257 0.533029 0.850763 -0.518215
O10   O     O_2   0.272390 0.484293 0.850848 -0.524260
O11   O     O_2   0.270181 0.490138 0.148993 -0.508078
O12   O     O_2   0.703757 0.545416 0.148401 -0.504490
H17   H     H_    0.176440 0.476836 0.948333 0.191183
H18   H     H_    0.486469 0.732814 0.677459 0.139680
H19   H     H_    0.505962 0.274647 0.681102 0.152112
H20   H     H_    0.115257 0.716844 0.462566 0.208670
H21   H     H_    0.099587 0.310683 0.548788 0.196777
H22   H     H_    0.891082 0.718997 0.529224 0.144117
H23   H     H_    0.912244 0.529903 0.587735 0.172147
C45   C     C_2   0.886034 0.740598 0.440673 0.389992
H24   H     H_    0.809338 0.705669 0.414874 0.076584
O13   O     O_2   0.930799 0.856165 0.430217 -0.503007
C46   C     C_2   0.871102 0.312825 0.579884 0.363905
H25   H     H_    0.893496 0.207890 0.563339 0.103879
O14   O     O_2   0.798666 0.323290 0.619802 -0.552044
C47   C     C_2   0.878401 0.442531 0.388489 0.302779
H26   H     H_    0.783508 0.481145 0.386326 0.014705
O15   O     O_2   0.934245 0.420334 0.343908 -0.482914
C48   C     C_2   0.906439 0.246391 0.452366 0.396062
H27   H     H_    0.813030 0.209421 0.445369 0.064520
O16   O     O_2   0.986069 0.158298 0.464425 -0.542952
H28   H     H_    0.175574 0.480404 0.051690 0.193790
H29   H     H_    0.451748 0.121521 0.413577 0.161919
H30   H     H_    0.446654 0.878821 0.414409 0.150284
H31   H     H_    0.303554 0.121782 0.493232 0.174106
H32   H     H_    0.303143 0.880458 0.495088 0.161096
H33   H     H_    0.800120 0.548533 0.947978 0.191591
H34   H     H_    0.586234 0.310007 0.208829 0.182946
C49   C     C_2   0.626808 0.268483 0.319628 0.416169
H35   H     H_    0.667112 0.278946 0.361318 0.050228
O17   O     O_2   0.644487 0.157647 0.293245 -0.525012
C50   C     C_2   0.477092 0.781895 0.788403 0.404424
H36   H     H_    0.478093 0.876989 0.762570 0.050420
O18   O     O_2   0.468025 0.795725 0.839871 -0.526556

loop_
_geom_bond_atom_site_label_1
_geom_bond_atom_site_label_2
_ccdc_geom_bond_type
C12   O3    A    
C4    C9    A    
C26   H21   S    
Cu1   O5    S    
C9    N2    A    
C41   C42   A    
C19   C20   A    
Cu2   O8    S    
C34   N4    S    
C10   O12   S    
C33   N3    S    
C7    C8    A    
Cu1   Cu2   S    
C33   H6    S    
C49   O17   D    
C37   C38   S    
C40   N1    A    
C18   C24   A    
C36   H32   S    
C27   H22   S    
C29   C32   S    
C17   N2    S    
C5    C6    A    
C45   O13   D    
C35   N3    S    
C15   C16   A    
C25   C30   S    
C1    O2    A    
C50   H36   S    
Cu1   O7    S    
C18   C19   A    
C39   O8    A    
C47   H26   S    
C2    H17   S    
C38   N4    S    
C16   C17   A    
C37   N3    S    
Cu1   O1    S    
C11   H34   S    
C46   O14   D    
Cu2   O6    S    
C37   H12   S    
C22   H1    S    
C5    C43   A    
C34   H9    S    
C21   C22   A    
C16   H16   S    
C29   H4    S    
C27   C31   S    
C23   O5    A    
Cu2   N3    S    
C38   H30   S    
C36   H11   S    
C26   H3    S    
C20   C39   S    
C45   H24   S    
Cu1   O3    S    
C35   C36   S    
C23   C31   S    
C27   C45   S    
C43   C44   A    
Cu2   O2    S    
C29   C30   S    
C28   H23   S    
C31   C32   S    
C47   O15   D    
C33   C34   S    
C15   H15   S    
C9    O11   S    
C25   H2    S    
C28   C46   S    
C13   C49   S    
C12   C14   S    
C26   C30   S    
C24   N1    S    
C25   H20   S    
C22   C24   A    
C42   C43   A    
C41   N1    A    
C3    C4    A    
C7    H14   S    
C37   H29   S    
C29   H5    S    
C33   H8    S    
C12   O4    A    
C11   C17   A    
C35   H10   S    
C23   O6    A    
C28   C31   S    
C10   N2    A    
C8    C44   A    
C21   H19   S    
C4    C5    A    
C35   H31   S    
C6    C10   A    
C48   O16   D    
C6    C7    A    
C25   C27   S    
C49   H35   S    
C26   C28   S    
C40   O9    S    
C2    C3    A    
C48   H27   S    
C41   O10   S    
C11   C13   A    
C3    H28   S    
C32   C47   S    
C2    C42   A    
C1    C30   S    
C1    O1    A    
C50   O18   D    
C36   N4    S    
C39   O7    A    
C19   H18   S    
C8    H33   S    
C18   C50   S    
Cu2   O4    S    
C38   H13   S    
C40   C44   A    
C32   C48   S    
C20   C21   A    
C34   H7    S    
Cu1   N4    S    
C14   C15   A    
C46   H25   S    
C13   C14   A    
