data_mof_unit_50910.cif
_audit_creation_date              2012-10-26T20:47:56-0400
_audit_creation_method            fapswitch 2.2
_symmetry_space_group_name_H-M    P1
_symmetry_Int_Tables_number       1
_space_group_crystal_system       triclinic
_cell_length_a                    14.793276
_cell_length_b                    14.050196
_cell_length_c                    11.095717
_cell_angle_alpha                 90.342385
_cell_angle_beta                  97.742145
_cell_angle_gamma                 89.397168
_cell_volume                      2285.0539591

loop_
_atom_site_label
_atom_site_type_symbol
_atom_type_description
_atom_site_fract_x
_atom_site_fract_y
_atom_site_fract_z
_atom_type_partial_charge
C1    C     C_R   0.329129 0.500686 0.509909 0.581244
C2    C     C_R   0.884092 0.585520 0.372278 0.155332
C3    C     C_R   0.799609 0.414691 0.408120 -0.087918
C4    C     C_R   0.797633 0.584756 0.410124 -0.103413
C5    C     C_R   0.759356 0.499445 0.442870 -0.075333
C6    C     C_R   0.937195 0.500558 0.381155 0.054510
C7    C     C_R   0.576690 0.105959 0.553108 -0.098283
C8    C     C_R   0.565069 0.891307 0.588565 -0.078884
C9    C     C_R   0.481875 0.500072 0.258513 0.568210
C10   C     C_R   0.576399 0.206659 0.554128 0.359408
C11   C     C_R   0.568514 0.790817 0.575463 0.391461
C12   C     C_3   0.593764 0.503993 0.959589 -0.226071
C13   C     C_R   0.421558 0.205310 0.469314 0.401155
C14   C     C_R   0.431647 0.798150 0.437879 0.358220
C15   C     C_R   0.416513 0.109394 0.504732 -0.085865
C16   C     C_R   0.427039 0.897602 0.456420 -0.068497
C17   C     C_R   0.495779 0.054904 0.532335 -0.063207
C18   C     C_R   0.494460 0.946623 0.529736 -0.050933
C19   C     C_R   0.668420 0.499630 0.484902 0.557646
C20   C     C_R   0.505421 0.500089 0.741430 0.570161
C21   C     C_3   0.420527 0.586999 0.046040 0.107478
C22   C     C_3   0.435943 0.406695 0.051493 0.107338
C23   C     C_R   0.085269 0.587314 0.453187 -0.050292
C24   C     C_3   0.446726 0.592959 0.915017 0.066392
C25   C     C_3   0.452686 0.405186 0.916262 0.071313
C26   C     C_3   0.577494 0.507035 0.095189 -0.313172
C27   C     C_3   0.473420 0.500142 0.116170 -0.098181
C28   C     C_3   0.501382 0.500331 0.879504 -0.094874
C29   C     C_R   0.083976 0.419036 0.475350 -0.039329
C30   C     C_R   0.177287 0.589432 0.502983 0.171614
C31   C     C_R   0.176562 0.418939 0.523200 0.241294
C32   C     C_R   0.228141 0.503093 0.517248 0.006348
C33   C     C_R   0.038444 0.501586 0.427081 -0.015586
C34   C     C_R   0.887312 0.414584 0.373669 0.212123
Cu1   Cu    Cu3+1 0.499990 0.596430 0.500000 1.197979
Cu2   Cu    Cu3+1 0.499990 0.403570 0.500000 1.224854
H1    H     H_    0.760531 0.350097 0.398882 0.215239
H2    H     H_    0.046305 0.355312 0.486547 0.216165
H3    H     H_    0.451771 0.646584 0.099724 0.230650
H4    H     H_    0.478508 0.350994 0.101802 0.216703
H5    H     H_    0.640620 0.068337 0.577022 0.174053
H6    H     H_    0.618782 0.927021 0.646532 0.178345
H7    H     H_    0.728474 0.374587 0.748943 0.361817
H8    H     H_    0.726525 0.614764 0.753058 0.360901
H9    H     H_    0.210544 0.278766 0.309265 0.384598
H10   H     H_    0.272298 0.655195 0.318612 0.385014
H11   H     H_    0.179312 0.614988 0.890802 0.409602
H12   H     H_    0.757120 0.649336 0.403012 0.199595
H13   H     H_    0.243145 0.240889 0.051815 0.380896
H14   H     H_    0.385585 0.592820 0.846847 0.206233
H15   H     H_    0.386525 0.406140 0.857068 0.207722
H16   H     H_    0.611327 0.792630 0.981607 0.413164
H17   H     H_    0.468514 0.177664 0.755165 0.367186
H18   H     H_    0.312981 0.740770 0.725672 0.408379
H19   H     H_    0.169735 0.266881 0.784337 0.399129
H20   H     H_    0.033903 0.274063 0.197967 0.388149
H21   H     H_    0.877597 0.792097 0.407002 0.371507
H22   H     H_    0.351188 0.074299 0.490416 0.181940
H23   H     H_    0.375277 0.938838 0.401214 0.191168
H24   H     H_    0.607120 0.574077 0.136535 0.193902
H25   H     H_    0.617647 0.447792 0.143405 0.159763
H26   H     H_    0.633821 0.565384 0.936775 0.233833
H27   H     H_    0.638446 0.443700 0.942991 0.203218
H28   H     H_    0.049193 0.654061 0.447079 0.232553
N1    N     N_R   0.500020 0.258690 0.500000 -0.243432
N2    N     N_R   0.500020 0.741310 0.500000 -0.252346
O1    O     O_R   0.371450 0.581430 0.500010 -0.448751
O2    O     O_2   0.752574 0.253100 0.569952 -0.284193
O3    O     O_3   0.666028 0.358656 0.710678 -0.464867
O4    O     O_2   0.744432 0.742772 0.582614 -0.318466
O5    O     O_2   0.698799 0.805442 0.768962 -0.220713
O6    O     O_3   0.663222 0.631997 0.718655 -0.474685
O7    O     O_2   0.412440 0.263649 0.251886 -0.215746
O8    O     O_2   0.307783 0.136865 0.281835 -0.264656
O9    O     O_3   0.266741 0.304758 0.356019 -0.457497
O10   O     O_2   0.285082 0.827523 0.271667 -0.188215
O11   O     O_2   0.429757 0.782450 0.206548 -0.233216
O12   O     O_R   0.371450 0.418570 0.500010 -0.423250
O13   O     O_3   0.335603 0.652442 0.298984 -0.462125
O14   O     O_2   0.246033 0.567876 0.123633 -0.168486
O15   O     O_2   0.284306 0.719686 0.043912 -0.132179
O16   O     O_3   0.241001 0.586343 0.893214 -0.481588
O17   O     O_2   0.290667 0.403352 0.176642 -0.190093
O18   O     O_2   0.252619 0.413610 0.956075 -0.202403
O19   O     O_3   0.307771 0.253734 0.043746 -0.395997
O20   O     O_2   0.490136 0.742350 0.772253 -0.233263
O21   O     O_2   0.435722 0.783483 0.958544 -0.193505
O22   O     O_3   0.601102 0.723248 0.972670 -0.494808
O23   O     O_R   0.499980 0.581440 0.317690 -0.482355
O24   O     O_2   0.605474 0.286895 0.913637 -0.209600
O25   O     O_2   0.471124 0.215178 0.973606 -0.192950
O26   O     O_3   0.469846 0.247886 0.748508 -0.451738
O27   O     O_2   0.220470 0.773203 0.484469 -0.216022
O28   O     O_2   0.141405 0.727945 0.653509 -0.225671
O29   O     O_3   0.312642 0.686522 0.668226 -0.491819
O30   O     O_2   0.199197 0.229709 0.551403 -0.227865
O31   O     O_2   0.310244 0.330558 0.675051 -0.248353
O32   O     O_3   0.147161 0.321622 0.732545 -0.457711
O33   O     O_2   0.939394 0.231439 0.382573 -0.212751
O34   O     O_R   0.499980 0.418560 0.317690 -0.487190
O35   O     O_2   0.846256 0.286615 0.196897 -0.207891
O36   O     O_3   0.016456 0.335838 0.232093 -0.493709
O37   O     O_2   0.987681 0.658776 0.213675 -0.172330
O38   O     O_2   0.826331 0.704153 0.189538 -0.223142
O39   O     O_3   0.933044 0.779509 0.368165 -0.435352
O40   O     O_R   0.628540 0.581440 0.499990 -0.462110
O41   O     O_R   0.628540 0.418560 0.499990 -0.465402
O42   O     O_R   0.500010 0.581440 0.682310 -0.409471
O43   O     O_R   0.500010 0.418560 0.682310 -0.404444
O44   O     O_2   0.702587 0.182314 0.747204 -0.200009
S1    S     S_3+6 0.675933 0.251677 0.645527 0.105842
S2    S     S_3+6 0.212767 0.322102 0.620051 0.076433
S3    S     S_3+6 0.921857 0.313158 0.295427 0.059360
S4    S     S_3+6 0.908534 0.682493 0.280786 0.072429
S5    S     S_3+6 0.669891 0.741528 0.661741 0.102875
S6    S     S_3+6 0.350156 0.227298 0.335487 0.113406
S7    S     S_3+6 0.368418 0.765091 0.300848 0.121160
S8    S     S_3+6 0.296231 0.614041 0.031757 0.129377
S9    S     S_3+6 0.318091 0.372517 0.057636 0.113654
S10   S     S_3+6 0.493915 0.712633 0.901430 0.048193
S11   S     S_3+6 0.503350 0.287430 0.889839 0.092690
S12   S     S_3+6 0.213275 0.697386 0.577101 0.061284

loop_
_geom_bond_atom_site_label_1
_geom_bond_atom_site_label_2
_ccdc_geom_bond_type
C7    C10   A    
H21   O39   S    
O35   S3    D    
Cu1   Cu2   S    
C13   N1    A    
C34   S3    S    
O30   S2    D    
O6    S5    S    
C26   C27   S    
O7    S6    D    
C12   C28   S    
C26   H25   S    
C8    H6    S    
O11   S7    D    
C8    C11   A    
H10   O13   S    
C29   C33   A    
H11   O16   S    
O17   S9    D    
O19   S9    S    
O44   S1    D    
Cu1   O42   S    
C1    O1    A    
C30   S12   S    
C23   C33   A    
C22   C25   S    
C29   H2    S    
C31   S2    S    
O22   S10   S    
C11   S5    S    
C11   N2    A    
C21   C27   S    
C22   H4    S    
H7    O3    S    
Cu2   O41   S    
C1    O12   A    
C2    C6    A    
C24   H14   S    
C22   S9    S    
O14   S8    D    
C24   S10   S    
O32   S2    S    
C23   C30   A    
H13   O19   S    
O39   S4    S    
H16   O22   S    
O37   S4    D    
O27   S12   D    
C9    O23   A    
C12   H27   S    
Cu2   N1    S    
C20   C28   S    
C3    C34   A    
C7    C17   A    
O15   S8    D    
C1    C32   S    
C8    C18   A    
C6    C34   A    
C12   C26   S    
C25   C28   S    
O2    S1    D    
C2    C4    A    
C25   H15   S    
C21   S8    S    
C12   H26   S    
C31   C32   A    
C21   H3    S    
Cu1   O1    S    
C14   S7    S    
O8    S6    D    
H17   O26   S    
C17   C18   S    
C14   N2    A    
O5    S5    D    
C10   S1    S    
Cu2   O34   S    
H18   O29   S    
O38   S4    D    
O28   S12   D    
O29   S12   S    
C23   H28   S    
O31   S2    D    
C9    O34   A    
C22   C27   S    
C13   C15   A    
C15   H22   S    
C14   C16   A    
O16   S8    S    
Cu1   O23   S    
C9    C27   S    
C4    H12   S    
C10   N1    A    
C15   C17   A    
C24   C28   S    
C4    C5    A    
C3    C5    A    
O33   S3    D    
C5    C19   S    
O4    S5    D    
O10   S7    D    
Cu1   N2    S    
C6    C33   S    
H9    O9    S    
H20   O36   S    
O21   S10   D    
C29   C31   A    
Cu1   O40   S    
Cu2   O12   S    
O26   S11   S    
C30   C32   A    
C2    S4    S    
C26   H24   S    
O18   S9    D    
O13   S7    S    
H19   O32   S    
O24   S11   D    
H8    O6    S    
C7    H5    S    
O3    S1    S    
C13   S6    S    
C20   O43   A    
C19   O40   A    
C3    H1    S    
C16   C18   A    
O25   S11   D    
C21   C24   S    
Cu2   O43   S    
O36   S3    S    
O20   S10   D    
O9    S6    S    
C25   S11   S    
C16   H23   S    
C20   O42   A    
C19   O41   A    
