data_mof_unit_52226.cif
_audit_creation_date              2012-12-11T14:15:18-0500
_audit_creation_method            fapswitch 2.2
_symmetry_space_group_name_H-M    P1
_symmetry_Int_Tables_number       1
_space_group_crystal_system       triclinic
_cell_length_a                    11.151518
_cell_length_b                    12.714984
_cell_length_c                    23.551414
_cell_angle_alpha                 90.514682
_cell_angle_beta                  96.997206
_cell_angle_gamma                 68.6648
_cell_volume                      3085.10893128

loop_
_atom_site_label
_atom_site_type_symbol
_atom_type_description
_atom_site_fract_x
_atom_site_fract_y
_atom_site_fract_z
_atom_type_partial_charge
C1    C     C_R   0.148846 0.616657 0.428695 0.542303
C2    C     C_R   0.667121 0.551077 0.307378 -0.016420
C3    C     C_R   0.714856 0.724455 0.316886 -0.140983
C4    C     C_R   0.709689 0.732936 0.257552 0.037582
C5    C     C_R   0.695126 0.644777 0.224313 0.029084
C6    C     C_R   0.691313 0.650571 0.165645 -0.119489
C7    C     C_R   0.694615 0.839746 0.170523 -0.130830
C8    C     C_R   0.716704 0.828036 0.230356 -0.136613
C9    C     C_1   0.236535 0.162060 0.123112 -0.003085
C10   C     C_2   0.182791 0.232650 0.226684 -0.122051
C11   C     C_2   0.153261 0.166849 0.262545 -0.126899
C12   C     C_R   0.750151 0.603050 0.403365 0.535639
C13   C     C_1   0.130868 0.200488 0.320293 -0.054449
C14   C     C_1   0.211624 0.196872 0.169838 -0.046829
C15   C     C_1   0.115048 0.233191 0.368122 -0.006954
C16   C     C_1   0.167194 0.749274 0.123359 -0.004572
C17   C     C_2   0.140263 0.688233 0.227129 -0.121316
C18   C     C_2   0.233570 0.676082 0.271090 -0.123480
C19   C     C_1   0.214173 0.652737 0.328549 -0.057898
C20   C     C_1   0.154089 0.720034 0.170178 -0.047809
C21   C     C_1   0.191311 0.634992 0.375638 -0.019758
C22   C     C_1   0.613661 0.766085 0.862460 -0.010228
C23   C     C_R   0.100841 0.282623 0.423233 0.545656
C24   C     C_2   0.645614 0.761211 0.753000 -0.001964
C25   C     C_2   0.651427 0.666486 0.725513 -0.115999
C26   C     C_1   0.669535 0.651442 0.666131 -0.048068
C27   C     C_1   0.632715 0.762798 0.813193 -0.059042
C28   C     C_1   0.697223 0.633256 0.618319 -0.004584
C29   C     C_R   0.195276 0.179107 0.854421 0.013945
C30   C     C_R   0.106488 0.237766 0.642530 0.024628
C31   C     C_R   0.041051 0.138755 0.712244 -0.132565
C32   C     C_R   0.040127 0.168131 0.655303 -0.134045
C33   C     C_R   0.167828 0.282611 0.686083 -0.123664
C34   C     C_R   0.151104 0.616818 0.590484 0.543590
C35   C     C_R   0.168255 0.255043 0.742502 0.036529
C36   C     C_R   0.106516 0.180807 0.755929 0.043033
C37   C     C_R   0.117978 0.145203 0.812472 -0.127805
C38   C     C_R   0.248686 0.258562 0.841460 -0.130208
C39   C     C_R   0.233969 0.297499 0.785483 -0.142146
C40   C     C_R   0.133294 0.756701 0.848678 0.010644
C41   C     C_R   0.197583 0.638974 0.648107 0.012442
C42   C     C_R   0.309071 0.564194 0.742074 -0.144413
C43   C     C_R   0.296158 0.554281 0.682825 -0.140280
C44   C     C_R   0.120582 0.737389 0.672334 -0.120702
C45   C     C_R   0.748875 0.602383 0.565454 0.543344
C46   C     C_R   0.124862 0.742862 0.730918 0.043923
C47   C     C_R   0.219412 0.655726 0.766457 0.049317
C48   C     C_R   0.223048 0.663085 0.825532 -0.123602
C49   C     C_R   0.032813 0.837132 0.812648 -0.127067
C50   C     C_R   0.031201 0.831966 0.754105 -0.149077
C51   C     C_R   0.266064 0.109827 0.069516 0.543214
C52   C     C_R   0.601692 0.774486 0.080865 0.543541
C53   C     C_R   0.189661 0.787688 0.069734 0.545947
C54   C     C_R   0.240680 0.114862 0.907876 0.542539
C55   C     C_R   0.573128 0.777185 0.918149 0.546433
C56   C     C_R   0.099935 0.279439 0.585181 0.542017
C57   C     C_R   0.164664 0.787809 0.906470 0.541601
C58   C     C_R   0.674849 0.752597 0.138214 0.006434
C59   C     C_R   0.699487 0.631381 0.342603 -0.006595
C60   C     C_R   0.671573 0.556506 0.248900 -0.141664
Cr1   Cr    Cr6+3 0.189770 0.415650 0.511620 1.008653
Cr2   Cr    Cr6+3 0.930400 0.667320 0.496770 1.014855
Cr3   Cr    Cr6+3 0.879870 0.417010 0.491650 1.031974
Cr4   Cr    Cr6+3 0.149500 0.973980 0.985330 1.024062
Cr5   Cr    Cr6+3 0.457000 0.976510 0.994660 1.026855
Cr6   Cr    Cr6+3 0.411170 0.724270 0.995270 1.020944
H1    H     H_    0.680825 0.581061 0.141114 0.131435
H2    H     H_    0.050330 0.678278 0.234082 0.143256
H3    H     H_    0.649850 0.594110 0.749219 0.124401
H4    H     H_    0.077550 0.083003 0.822809 0.123940
H5    H     H_    0.307896 0.285218 0.874040 0.124452
H6    H     H_    0.992273 0.082720 0.722083 0.103086
H7    H     H_    0.280254 0.355267 0.775379 0.104042
H8    H     H_    0.988795 0.136566 0.621488 0.110178
H9    H     H_    0.214423 0.340506 0.676047 0.124152
H10   H     H_    0.300174 0.600131 0.853172 0.120171
H11   H     H_    0.683849 0.919140 0.150042 0.134669
H12   H     H_    0.962145 0.909939 0.829474 0.139054
H13   H     H_    0.383899 0.497777 0.768775 0.097870
H14   H     H_    0.958262 0.898777 0.727071 0.104002
H15   H     H_    0.357539 0.478016 0.664651 0.122334
H16   H     H_    0.046298 0.804935 0.645894 0.121459
H17   H     H_    0.651483 0.493585 0.221983 0.105986
H18   H     H_    0.728553 0.896622 0.255115 0.107972
H19   H     H_    0.735797 0.787802 0.343042 0.125391
H20   H     H_    0.148625 0.086302 0.249112 0.137546
H21   H     H_    0.188275 0.312822 0.240322 0.140170
H22   H     H_    0.323150 0.686978 0.264432 0.137582
O1    O     O_R   0.196340 0.303200 0.448500 -0.514048
O2    O     O_R   0.811960 0.658090 0.547150 -0.497686
O3    O     O_R   0.757930 0.506140 0.547110 -0.508765
O4    O     O_R   0.988670 0.321620 0.556040 -0.497457
O5    O     O_3   0.000020 0.499990 0.500010 -0.243990
O6    O     O_R   0.113660 0.883270 0.047820 -0.506767
O7    O     O_R   0.186930 0.068530 0.043990 -0.494853
O8    O     O_R   0.377770 0.089040 0.054220 -0.511365
O9    O     O_R   0.562800 0.872960 0.056970 -0.499926
O10   O     O_R   0.555390 0.700940 0.062700 -0.520554
O11   O     O_R   0.295020 0.731920 0.049950 -0.493988
O12   O     O_R   0.199310 0.519670 0.454880 -0.507913
O13   O     O_R   0.094290 0.884230 0.921550 -0.522948
O14   O     O_R   0.168980 0.069410 0.926940 -0.505812
O15   O     O_R   0.358400 0.089990 0.927950 -0.514881
O16   O     O_R   0.544850 0.873850 0.939920 -0.493270
O17   O     O_R   0.536020 0.701900 0.936430 -0.511754
O18   O     O_R   0.277070 0.732810 0.932890 -0.503942
O19   O     O_3   0.339220 0.891590 0.991750 -0.246094
O20   O     O_R   0.045660 0.691380 0.441680 -0.506380
O21   O     O_R   0.811930 0.659460 0.430950 -0.503856
O22   O     O_R   0.757900 0.507620 0.421760 -0.503749
O23   O     O_R   0.988630 0.322990 0.439840 -0.492552
O24   O     O_R   0.196380 0.301720 0.573850 -0.522703
O25   O     O_R   0.199350 0.518300 0.571080 -0.504728
O26   O     O_R   0.045700 0.689900 0.567030 -0.524740
C61   C     C_R   0.637685 0.867174 0.723474 0.054735
C62   C     C_R   0.540079 0.970446 0.733572 -0.083996
C63   C     C_R   0.530808 0.070572 0.706029 -0.107268
C64   C     C_R   0.618799 0.068860 0.668282 -0.103919
C65   C     C_R   0.716702 0.967115 0.658267 -0.126176
C66   C     C_R   0.726919 0.866829 0.685990 -0.089983
H23   H     H_    0.470176 0.973419 0.762313 0.122113
H24   H     H_    0.455315 0.149513 0.713922 0.115977
H25   H     H_    0.611478 0.146450 0.646997 0.111340
H26   H     H_    0.785712 0.966054 0.629470 0.102787
H27   H     H_    0.805755 0.789544 0.678819 0.125445
C67   C     C_R   0.631800 0.458303 0.329435 0.064691
C68   C     C_R   0.697991 0.345600 0.315793 -0.080750
C69   C     C_R   0.663787 0.258765 0.336132 -0.112444
C70   C     C_R   0.563540 0.283478 0.370216 -0.107068
C71   C     C_R   0.497612 0.395018 0.384146 -0.106973
C72   C     C_R   0.531197 0.482240 0.363775 -0.063983
H28   H     H_    0.776730 0.324904 0.289845 0.106219
H29   H     H_    0.715207 0.172261 0.325553 0.106180
H30   H     H_    0.537217 0.216177 0.385994 0.116667
H31   H     H_    0.420737 0.413717 0.410870 0.137705
H32   H     H_    0.480114 0.568248 0.375187 0.102700

loop_
_geom_bond_atom_site_label_1
_geom_bond_atom_site_label_2
_ccdc_geom_bond_type
C1    C21   S    
C67   C68   A    
C3    H19   S    
C6    C58   A    
C35   C36   A    
C9    C51   S    
C24   C27   S    
Cr6   O19   S    
C4    C8    A    
C69   C70   A    
C12   O22   A    
C7    C8    A    
C65   H26   S    
C53   O11   A    
C34   O25   A    
Cr4   O14   S    
C64   H25   S    
C55   O17   A    
C36   C37   A    
C19   C21   T    
Cr2   O26   S    
C44   H16   S    
C32   H8    S    
C5    C6    A    
C60   H17   S    
Cr1   O5    S    
Cr2   O20   S    
C29   C54   S    
C11   H20   S    
C40   C49   A    
C52   O9    A    
C17   C20   S    
C49   H12   S    
C18   C19   S    
C46   C47   A    
C48   H10   S    
C64   C65   A    
C68   H28   S    
C12   C59   S    
C33   H9    S    
Cr5   O8    S    
C31   C32   A    
C44   C46   A    
C29   C38   A    
C23   O1    A    
C7    C58   A    
C5    C60   A    
C51   O8    A    
C7    H11   S    
C15   C23   S    
C57   O18   A    
C42   H13   S    
C8    H18   S    
C37   H4    S    
C41   C43   A    
C34   C41   S    
Cr6   O18   S    
C1    O12   A    
C12   O21   A    
Cr1   O1    S    
Cr4   O13   S    
C10   H21   S    
C28   C45   S    
C62   H23   S    
C54   O15   A    
C24   C25   D    
C72   H32   S    
C10   C14   S    
C9    C14   T    
C66   H27   S    
C25   C26   S    
C30   C56   S    
C55   O16   A    
C18   H22   S    
Cr6   O11   S    
Cr3   O4    S    
C35   C39   A    
C63   H24   S    
C47   C48   A    
C16   C20   T    
C17   C18   D    
C45   O2    A    
C52   C58   S    
C2    C67   S    
C31   H6    S    
C71   H31   S    
C61   C66   A    
C22   C27   T    
C13   C15   T    
Cr1   O25   S    
C43   H15   S    
C41   C44   A    
Cr1   O12   S    
C25   H3    S    
C42   C43   A    
Cr5   O15   S    
Cr6   O17   S    
C29   C37   A    
C3    C4    A    
C23   O23   A    
Cr4   O19   S    
C70   C71   A    
C40   C48   A    
C46   C50   A    
C38   H5    S    
C6    H1    S    
C17   H2    S    
C40   C57   S    
C30   C33   A    
C53   O6    A    
C2    C59   A    
C54   O14   A    
Cr4   O7    S    
C4    C5    A    
C50   H14   S    
C65   C66   A    
C22   C55   S    
C34   O26   A    
C57   O13   A    
Cr3   O5    S    
C26   C28   T    
Cr6   O10   S    
Cr3   O22   S    
C71   C72   A    
Cr4   O6    S    
C63   C64   A    
C30   C32   A    
C11   C13   S    
C61   C62   A    
C38   C39   A    
Cr2   O21   S    
C67   C72   A    
Cr2   O2    S    
C52   O10   A    
C33   C35   A    
Cr5   O19   S    
C62   C63   A    
C2    C60   A    
C42   C47   A    
C39   H7    S    
Cr3   O23   S    
C45   O3    A    
C10   C11   D    
C1    O20   A    
Cr5   O9    S    
C70   H30   S    
C56   O4    A    
C24   C61   S    
C49   C50   A    
Cr2   O5    S    
Cr3   O3    S    
C31   C36   A    
Cr5   O16   S    
C69   H29   S    
Cr1   O24   S    
C56   O24   A    
C68   C69   A    
C51   O7    A    
C16   C53   S    
C3    C59   A    
