data_mof_unit_42850.cif
_audit_creation_date              2012-12-10T17:07:42-0500
_audit_creation_method            fapswitch 2.2
_symmetry_space_group_name_H-M    P1
_symmetry_Int_Tables_number       1
_space_group_crystal_system       triclinic
_cell_length_a                    19.37163
_cell_length_b                    11.044308
_cell_length_c                    9.8545
_cell_angle_alpha                 111.415048
_cell_angle_beta                  98.735989
_cell_angle_gamma                 90.827497
_cell_volume                      1934.39786262

loop_
_atom_site_label
_atom_site_type_symbol
_atom_type_description
_atom_site_fract_x
_atom_site_fract_y
_atom_site_fract_z
_atom_type_partial_charge
C1    C     C_R   0.494922 0.253957 0.440370 0.858250
C2    C     C_R   0.505071 0.746042 0.559630 0.854407
C3    C     C_2   0.492226 0.114337 0.406710 -0.359147
C4    C     C_2   0.507750 0.885661 0.593289 -0.360069
C5    C     C_2   0.501105 0.069625 0.516374 -0.144013
C6    C     C_2   0.498848 0.930371 0.483624 -0.146552
C7    C     C_2   0.508285 0.504722 0.079829 0.089216
C8    C     C_2   0.491621 0.495497 0.920232 0.087668
C9    C     C_R   0.367487 0.499348 0.500306 0.802925
C10   C     C_R   0.632524 0.500761 0.499728 0.805114
C11   C     C_R   0.264858 0.533154 0.631833 -0.185361
C12   C     C_R   0.735722 0.488759 0.372628 -0.186300
C13   C     C_R   0.192841 0.533339 0.629699 -0.231927
C14   C     C_R   0.807840 0.491305 0.375435 -0.223712
C15   C     C_R   0.146020 0.500526 0.495515 -0.026127
C16   C     C_R   0.854397 0.509884 0.506982 -0.037013
C17   C     C_R   0.172644 0.467168 0.361702 0.461192
C18   C     C_R   0.827136 0.529364 0.638011 0.460286
C19   C     C_R   0.245171 0.463876 0.365086 -0.282004
C20   C     C_R   0.754550 0.523240 0.632923 -0.277205
C21   C     C_R   0.291566 0.498897 0.499610 -0.087839
C22   C     C_R   0.708519 0.503855 0.501127 -0.094424
C23   C     C_R   0.930561 0.508650 0.504924 0.424898
C24   C     C_R   0.070042 0.502620 0.497920 0.432379
Cu1   Cu    Cu3+1 0.512140 0.521810 0.644910 0.957114
Cu2   Cu    Cu3+1 0.487860 0.478190 0.355090 0.956173
H1    H     H_    0.299561 0.560072 0.737081 0.165297
H2    H     H_    0.701326 0.474125 0.269547 0.170081
H3    H     H_    0.173828 0.560521 0.733908 0.166458
H4    H     H_    0.827036 0.477284 0.273510 0.177713
H5    H     H_    0.265084 0.431964 0.261672 0.168691
H6    H     H_    0.734468 0.533868 0.733130 0.179044
H7    H     H_    0.489774 0.863990 0.368490 0.180950
H8    H     H_    0.510171 0.136006 0.631509 0.181830
H9    H     H_    0.516909 0.952279 0.708252 0.142183
H10   H     H_    0.483075 0.047720 0.291747 0.141308
H11   H     H_    0.444230 0.439470 0.851035 0.140812
H12   H     H_    0.555602 0.560986 0.149106 0.139413
N1    N     N_R   0.024649 0.511404 0.383247 -0.187624
N2    N     N_R   0.976035 0.500106 0.619667 -0.170008
N3    N     N_R   0.956316 0.514121 0.386510 -0.258512
N4    N     N_R   0.044364 0.497466 0.616482 -0.262522
N5    N     N_2   0.469620 0.445420 0.137370 -0.034107
N6    N     N_2   0.530380 0.554580 0.862630 -0.034327
O1    O     O_R   0.506480 0.332340 0.577400 -0.576504
O2    O     O_R   0.493520 0.667660 0.422600 -0.578109
O3    O     O_R   0.485980 0.295500 0.332650 -0.613185
O4    O     O_R   0.514020 0.704500 0.667350 -0.613897
O5    O     O_R   0.410390 0.518410 0.622410 -0.602137
O6    O     O_R   0.589610 0.481590 0.377590 -0.601377
O7    O     O_R   0.389900 0.481570 0.377660 -0.567025
O8    O     O_R   0.610100 0.518430 0.622340 -0.566520
O9    O     O_3   0.127624 0.424016 0.227203 -0.567130
C25   C     C_3   0.133586 0.513232 0.156228 0.041980
H13   H     H_    0.185669 0.512513 0.121590 0.141419
H14   H     H_    0.125320 0.614127 0.229815 0.146248
C26   C     C_3   0.077988 0.473767 0.017938 -0.693420
H15   H     H_    0.024951 0.476676 0.048296 0.264132
H16   H     H_    0.082886 0.541956 0.959857 0.197862
H17   H     H_    0.084813 0.373475 0.942009 0.252511
O10   O     O_3   0.871006 0.546945 0.769426 -0.564307
C27   C     C_3   0.872896 0.678691 0.865333 0.062508
H18   H     H_    0.821322 0.702170 0.901343 0.135012
H19   H     H_    0.887534 0.745838 0.811160 0.140815
C28   C     C_3   0.927585 0.702242 0.002269 -0.743924
H20   H     H_    0.980155 0.684006 0.970506 0.249869
H21   H     H_    0.928509 0.804877 0.079991 0.200728
H22   H     H_    0.914929 0.636195 0.058709 0.252993
O11   O     O_3   0.594949 0.599120 0.941824 -0.514307
C29   C     C_3   0.608455 0.726472 0.947255 0.208335
H23   H     H_    0.561521 0.784096 0.964294 0.129675
H24   H     H_    0.626383 0.723615 0.844605 0.173011
C30   C     C_3   0.666828 0.796185 0.076388 -0.902105
H25   H     H_    0.714970 0.742626 0.062254 0.254315
H26   H     H_    0.678529 0.896651 0.081532 0.212915
H27   H     H_    0.650561 0.801771 0.181749 0.254920
O12   O     O_3   0.405161 0.400258 0.057935 -0.517930
C31   C     C_3   0.392046 0.272815 0.052551 0.205144
H28   H     H_    0.374013 0.275500 0.155046 0.175871
H29   H     H_    0.439200 0.215760 0.035960 0.129992
C32   C     C_3   0.333963 0.202437 0.923062 -0.887675
H30   H     H_    0.350275 0.197354 0.817906 0.251919
H31   H     H_    0.322717 0.101757 0.917705 0.212266
H32   H     H_    0.285552 0.255206 0.936969 0.260503

loop_
_geom_bond_atom_site_label_1
_geom_bond_atom_site_label_2
_ccdc_geom_bond_type
Cu1   O1    S    
C24   N4    A    
C30   H25   S    
C9    O7    A    
C10   O8    A    
C32   H30   S    
C7    C8    S    
N1    N3    A    
O12   C31   S    
C10   C22   S    
C12   H2    S    
C13   H3    S    
C19   C21   A    
Cu2   O6    S    
C5    C6    S    
C31   H29   S    
C26   H16   S    
C23   N2    A    
C12   C22   A    
C24   N1    A    
C27   H19   S    
C28   H21   S    
C29   H23   S    
C7    N5    D    
N2    N4    A    
C4    H9    S    
C19   H5    S    
C30   H26   S    
O11   C29   S    
C14   H4    S    
Cu1   N6    S    
C32   H31   S    
Cu2   N5    S    
C25   H14   S    
C9    O5    A    
C4    C6    D    
C31   H28   S    
C1    O3    A    
C26   H17   S    
C2    O4    A    
Cu1   Cu2   S    
O9    C25   S    
C11   C21   A    
C2    O2    A    
C1    C3    S    
C2    C4    S    
C27   H18   S    
C11   H1    S    
C28   H22   S    
C5    H8    S    
C29   C30   S    
N6    O11   S    
Cu1   O4    S    
Cu2   O3    S    
C15   C24   S    
C20   C22   A    
C16   C23   S    
C13   C15   A    
C30   H27   S    
C14   C16   A    
C8    H11   S    
C10   O6    A    
C17   O9    S    
C32   H32   S    
C20   H6    S    
C15   C17   A    
C25   H13   S    
C27   C28   S    
C8    N6    D    
C12   C14   A    
C3    C5    D    
C18   O10   S    
N5    O12   S    
C23   N3    A    
C6    H7    S    
Cu1   O8    S    
C1    O1    A    
Cu2   O7    S    
C11   C13   A    
C31   C32   S    
C9    C21   S    
C26   H15   S    
C3    H10   S    
C17   C19   A    
C7    H12   S    
C18   C20   A    
O10   C27   S    
Cu1   O5    S    
Cu2   O2    S    
C16   C18   A    
C28   H20   S    
C29   H24   S    
C25   C26   S    
