data_mof_unit_20271.cif
_audit_creation_date              2012-12-10T22:11:15-0500
_audit_creation_method            fapswitch 2.2
_symmetry_space_group_name_H-M    P1
_symmetry_Int_Tables_number       1
_space_group_crystal_system       triclinic
_cell_length_a                    12.122224
_cell_length_b                    12.292141
_cell_length_c                    22.957062
_cell_angle_alpha                 91.12225
_cell_angle_beta                  90.646689
_cell_angle_gamma                 90.580794
_cell_volume                      3419.73032113

loop_
_atom_site_label
_atom_site_type_symbol
_atom_type_description
_atom_site_fract_x
_atom_site_fract_y
_atom_site_fract_z
_atom_type_partial_charge
C1    C     C_R   0.657258 0.998299 0.579340 0.860703
C2    C     C_R   0.101821 0.860687 0.818886 -0.165065
C3    C     C_R   0.898756 0.220745 0.140579 -0.197973
C4    C     C_R   0.101243 0.779256 0.859421 -0.197974
C5    C     C_R   0.142899 0.908014 0.304842 -0.180465
C6    C     C_R   0.857100 0.091985 0.695159 -0.180466
C7    C     C_R   0.224509 0.906294 0.347436 -0.193849
C8    C     C_R   0.775490 0.093705 0.652564 -0.193850
C9    C     C_R   0.850972 0.103462 0.309801 -0.184450
C10   C     C_R   0.149029 0.896538 0.690200 -0.184450
C11   C     C_R   0.771299 0.100189 0.352193 -0.281031
C12   C     C_R   0.342742 0.001701 0.420660 0.860703
C13   C     C_R   0.228702 0.899812 0.647808 -0.281032
C14   C     C_3   0.995784 0.009561 0.247540 -0.089689
C15   C     C_3   0.004216 0.990439 0.752460 -0.089689
C16   C     C_R   0.655488 0.001188 0.420860 0.900906
C17   C     C_R   0.344511 0.998812 0.579140 0.900907
C18   C     C_R   0.094394 0.007086 0.289101 0.127006
C19   C     C_R   0.905606 0.992914 0.710898 0.127006
C20   C     C_R   0.256978 0.002924 0.376188 -0.023448
C21   C     C_R   0.743021 0.997076 0.623812 -0.023447
C22   C     C_R   0.898967 0.006906 0.288992 0.084542
C23   C     C_R   0.891986 0.785625 0.141936 -0.201118
C24   C     C_R   0.101033 0.993094 0.711008 0.084542
C25   C     C_R   0.740301 0.000976 0.376448 -0.079427
C26   C     C_R   0.259699 0.999024 0.623552 -0.079427
C27   C     C_R   0.996732 0.108407 0.208871 0.125099
C28   C     C_R   0.003268 0.891593 0.791129 0.125098
C29   C     C_R   0.998465 0.270267 0.125338 -0.025317
C30   C     C_R   0.001535 0.729733 0.874662 -0.025316
C31   C     C_R   0.993267 0.915551 0.203454 0.130713
C32   C     C_R   0.006733 0.084449 0.796546 0.130712
C33   C     C_R   0.991055 0.753064 0.116773 -0.027178
C34   C     C_R   0.108014 0.214376 0.858064 -0.201118
C35   C     C_R   0.008945 0.246936 0.883227 -0.027178
C36   C     C_R   0.992703 0.663356 0.074832 0.870396
C37   C     C_R   0.007297 0.336644 0.925167 0.870396
C38   C     C_R   0.999074 0.352574 0.081070 0.870021
C39   C     C_R   0.000926 0.647425 0.918930 0.870021
C40   C     C_R   0.124586 0.102759 0.320315 -0.162732
C41   C     C_R   0.875414 0.897241 0.679685 -0.162732
C42   C     C_R   0.206342 0.101054 0.362628 -0.191855
C43   C     C_R   0.793658 0.898946 0.637372 -0.191855
C44   C     C_R   0.871127 0.908099 0.315236 -0.275639
C45   C     C_R   0.090890 0.887555 0.174554 -0.169001
C46   C     C_R   0.128873 0.091901 0.684764 -0.275638
C47   C     C_R   0.791363 0.903652 0.358352 0.451068
C48   C     C_R   0.208636 0.096348 0.641648 0.451068
C49   C     C_R   0.096982 0.156614 0.191796 -0.183352
C50   C     C_R   0.903018 0.843385 0.808203 -0.183352
C51   C     C_R   0.097540 0.237983 0.151106 -0.196417
C52   C     C_R   0.902460 0.762016 0.848894 -0.196418
C53   C     C_R   0.892760 0.867511 0.184254 -0.174392
C54   C     C_R   0.107240 0.132490 0.815746 -0.174393
C55   C     C_R   0.909110 0.112444 0.825446 -0.169000
C56   C     C_R   0.090125 0.805994 0.132407 -0.195130
C57   C     C_R   0.909875 0.194005 0.867594 -0.195130
C58   C     C_R   0.898178 0.139314 0.181114 -0.165066
H1    H     H_    0.228430 0.176360 0.385338 0.164026
H2    H     H_    0.831645 0.071669 0.814947 0.135869
H3    H     H_    0.820594 0.099065 0.190199 0.137208
H4    H     H_    0.179406 0.900936 0.809802 0.137208
H5    H     H_    0.116314 0.831152 0.285419 0.140554
H6    H     H_    0.883685 0.168848 0.714582 0.140554
H7    H     H_    0.876447 0.182361 0.294471 0.151533
H8    H     H_    0.123555 0.817639 0.705530 0.151533
H9    H     H_    0.175790 0.273799 0.138990 0.157867
H10   H     H_    0.824210 0.726200 0.861009 0.157867
H11   H     H_    0.814132 0.747696 0.129194 0.157314
H12   H     H_    0.771571 0.823640 0.614661 0.164026
H13   H     H_    0.185867 0.252306 0.870805 0.157314
H14   H     H_    0.167406 0.784524 0.112167 0.159274
H15   H     H_    0.832594 0.215475 0.887833 0.159274
H16   H     H_    0.821334 0.242873 0.120239 0.158872
H17   H     H_    0.178665 0.757128 0.879762 0.158873
H18   H     H_    0.261292 0.829185 0.358175 0.160533
H19   H     H_    0.738707 0.170814 0.641825 0.160533
H20   H     H_    0.734904 0.176165 0.366430 0.182782
H21   H     H_    0.265097 0.823835 0.633571 0.182782
H22   H     H_    0.083961 0.179108 0.312232 0.138590
H23   H     H_    0.913154 0.834163 0.302613 0.132821
H24   H     H_    0.916040 0.820892 0.687767 0.138591
H25   H     H_    0.808132 0.746660 0.365863 0.324208
H26   H     H_    0.191865 0.253340 0.634136 0.324208
H27   H     H_    0.086845 0.165837 0.697386 0.132821
H28   H     H_    0.175689 0.129642 0.208456 0.138049
H29   H     H_    0.824311 0.870357 0.791543 0.138049
H30   H     H_    0.814427 0.893233 0.201600 0.138574
H31   H     H_    0.185573 0.106768 0.798399 0.138574
H32   H     H_    0.168356 0.928330 0.185054 0.135869
O1    O     O_R   0.621380 0.090460 0.561410 -0.630534
O2    O     O_R   0.912410 0.372520 0.941210 -0.629920
O3    O     O_R   0.905660 0.383870 0.059980 -0.630137
O4    O     O_R   0.094340 0.616130 0.940020 -0.630137
O5    O     O_R   0.092570 0.390420 0.063230 -0.627781
O6    O     O_R   0.907430 0.609580 0.936770 -0.627781
O7    O     O_R   0.900680 0.620930 0.055550 -0.626641
O8    O     O_R   0.099320 0.379070 0.944450 -0.626640
O9    O     O_3   0.764604 0.806052 0.383896 -0.754016
O10   O     O_3   0.235394 0.193948 0.616103 -0.754016
O11   O     O_R   0.378620 0.909540 0.438590 -0.630533
O12   O     O_R   0.617150 0.909540 0.438590 -0.551688
O13   O     O_R   0.382850 0.090460 0.561410 -0.551688
O14   O     O_R   0.619720 0.093230 0.440890 -0.645790
O15   O     O_R   0.380280 0.906770 0.559110 -0.645790
O16   O     O_R   0.618800 0.906770 0.559110 -0.627406
O17   O     O_R   0.381200 0.093230 0.440890 -0.627406
O18   O     O_R   0.087590 0.627480 0.058790 -0.629920
Zn1   Zn    Zn3+2 0.501730 0.123520 0.501540 0.984377
Zn2   Zn    Zn3+2 0.498270 0.876480 0.498460 0.984377
Zn3   Zn    Zn3+2 0.125690 0.504390 0.002180 0.938536
Zn4   Zn    Zn3+2 0.874310 0.495610 0.997820 0.938536

loop_
_geom_bond_atom_site_label_1
_geom_bond_atom_site_label_2
_ccdc_geom_bond_type
O15   Zn2   S    
C13   H21   S    
C1    C21   S    
C36   O18   A    
C41   C43   A    
C23   H11   S    
C14   C31   S    
C49   C51   A    
C15   C32   S    
C15   C19   S    
C6    C19   A    
O6    Zn4   S    
C17   C26   S    
C35   C37   S    
O16   Zn2   S    
O14   Zn1   S    
C9    C22   A    
C11   C25   A    
C6    H6    S    
O4    Zn3   S    
C33   C36   S    
C47   O9    S    
C5    H5    S    
C34   C35   A    
C57   H15   S    
C3    C29   A    
C3    H16   S    
C14   C18   S    
C4    H17   S    
C18   C40   A    
C21   C43   A    
C28   C50   A    
C16   O14   A    
C22   C44   A    
C45   C56   A    
C23   C33   A    
C38   O5    A    
C50   C52   A    
C40   H22   S    
C36   O7    A    
C14   C27   S    
C25   C47   A    
C32   C55   A    
C52   H10   S    
C44   C47   A    
C26   C48   A    
C1    O16   A    
C46   H27   S    
C33   C56   A    
C40   C42   A    
C1    O1    A    
H25   O9    S    
C55   H2    S    
O17   Zn1   S    
C32   C54   A    
C37   O8    A    
C23   C53   A    
C10   H8    S    
C48   O10   S    
C46   C48   A    
H26   O10   S    
C54   H31   S    
C44   H23   S    
C5    C7    A    
O7    Zn4   S    
O2    Zn4   S    
C6    C8    A    
C5    C18   A    
C10   C24   A    
O11   Zn2   S    
C10   C13   A    
C29   C38   S    
C2    C4    A    
C39   O4    A    
C11   H20   S    
C17   O15   A    
C12   C20   S    
C8    C21   A    
C19   C41   A    
C51   H9    S    
C31   C53   A    
C45   H32   S    
C9    C11   A    
C50   H29   S    
C16   O12   A    
C15   C24   S    
C34   C54   A    
C43   H12   S    
C55   C57   A    
C8    H19   S    
C13   C26   A    
O12   Zn2   S    
C29   C51   A    
C16   C25   S    
C30   C52   A    
O8    Zn3   S    
C37   O2    A    
C56   H14   S    
C49   H28   S    
C27   C58   A    
C42   H1    S    
C12   O17   A    
C20   C42   A    
C7    H18   S    
O18   Zn3   S    
O13   Zn1   S    
C35   C57   A    
C24   C46   A    
O1    Zn1   S    
C17   O13   A    
C12   O11   A    
O5    Zn3   S    
C14   C22   S    
C15   C28   S    
C58   H3    S    
C41   H24   S    
C38   O3    A    
C30   C39   S    
C53   H30   S    
C9    H7    S    
C39   O6    A    
O3    Zn4   S    
C3    C58   A    
C2    H4    S    
C7    C20   A    
C31   C45   A    
C2    C28   A    
C34   H13   S    
C4    C30   A    
C27   C49   A    
