data_mof_unit_16041.cif
_audit_creation_date              2012-12-11T14:01:34-0500
_audit_creation_method            fapswitch 2.2
_symmetry_space_group_name_H-M    P1
_symmetry_Int_Tables_number       1
_space_group_crystal_system       triclinic
_cell_length_a                    19.059192
_cell_length_b                    10.956974
_cell_length_c                    18.787365
_cell_angle_alpha                 89.591253
_cell_angle_beta                  90.306458
_cell_angle_gamma                 90.030429
_cell_volume                      3923.22912432

loop_
_atom_site_label
_atom_site_type_symbol
_atom_type_description
_atom_site_fract_x
_atom_site_fract_y
_atom_site_fract_z
_atom_type_partial_charge
Br1   Br    Br    0.356637 0.583802 0.434647 -0.508473
Br2   Br    Br    0.715790 0.736981 0.557767 -0.563816
Br3   Br    Br    0.845036 0.018915 0.447188 -0.548935
Br4   Br    Br    0.173169 0.160240 0.550842 -0.515717
Br5   Br    Br    0.211870 0.751064 0.051777 -0.586652
Br6   Br    Br    0.787867 0.751377 0.946140 -0.575778
Br7   Br    Br    0.711889 0.251076 0.051782 -0.588644
Br8   Br    Br    0.287887 0.251354 0.946158 -0.576737
C1    C     C_R   0.272165 0.043865 0.852648 0.590223
C2    C     C_R   0.017267 0.664194 0.960022 -0.078869
C3    C     C_R   0.502357 0.167476 0.032188 -0.074104
C4    C     C_R   0.517512 0.164141 0.959919 -0.078970
C5    C     C_2   0.250704 0.579037 0.920546 -0.035761
C6    C     C_2   0.749218 0.580511 0.079474 -0.038623
C7    C     C_2   0.750700 0.079032 0.920543 -0.035949
C8    C     C_2   0.249219 0.080500 0.079477 -0.037257
C9    C     C_2   0.252203 0.597454 0.080775 0.147496
C10   C     C_2   0.747602 0.597400 0.918694 0.146343
C11   C     C_2   0.752205 0.097451 0.080775 0.145608
C12   C     C_R   0.727768 0.044116 0.147263 0.583048
C13   C     C_2   0.247608 0.097390 0.918701 0.147582
C14   C     C_2   0.295824 0.533264 0.039351 -0.121507
C15   C     C_2   0.704077 0.533519 0.960917 -0.121086
C16   C     C_2   0.795818 0.033250 0.039348 -0.122148
C17   C     C_2   0.204078 0.033510 0.960920 -0.120119
C18   C     C_2   0.305946 0.562906 0.964281 -0.082561
C19   C     C_2   0.693982 0.563918 0.035788 -0.082065
C20   C     C_2   0.805942 0.062894 0.964278 -0.082189
C21   C     C_2   0.193983 0.063905 0.035791 -0.082388
C22   C     C_2   0.515642 0.835977 0.586418 -0.087107
C23   C     C_R   0.772163 0.543869 0.852645 0.590376
C24   C     C_2   0.544113 0.829087 0.433697 -0.068887
C25   C     C_2   0.957569 0.331394 0.566607 -0.101481
C26   C     C_2   0.984712 0.334878 0.413438 -0.100024
C27   C     C_2   0.559179 0.737015 0.478038 -0.092216
C28   C     C_2   0.535629 0.735235 0.551722 -0.083959
C29   C     C_2   0.969452 0.234313 0.451046 -0.090552
C30   C     C_2   0.944883 0.237443 0.523965 -0.126273
C31   C     C_2   0.253062 0.608934 0.570770 -0.051329
C32   C     C_2   0.752294 0.557120 0.414071 -0.089231
C33   C     C_2   0.750692 0.105545 0.572857 -0.055133
C34   C     C_R   0.227767 0.544114 0.147262 0.584575
C35   C     C_2   0.254516 0.060899 0.414919 -0.069239
C36   C     C_2   0.258772 0.609705 0.411489 0.154354
C37   C     C_2   0.760604 0.583203 0.575810 0.168448
C38   C     C_2   0.758566 0.095119 0.415101 0.156271
C39   C     C_2   0.259392 0.077490 0.574538 0.158628
C40   C     C_R   0.471602 0.821839 0.853153 0.540227
C41   C     C_R   0.528173 0.822695 0.146960 0.551749
C42   C     C_R   0.971585 0.321843 0.853166 0.551375
C43   C     C_R   0.028157 0.322691 0.146972 0.537152
C44   C     C_2   0.215917 0.674475 0.452540 -0.141848
C45   C     C_R   0.493191 0.059031 0.070311 -0.070887
C46   C     C_2   0.802328 0.528695 0.528086 -0.128948
C47   C     C_2   0.722585 0.176130 0.452590 -0.145846
C48   C     C_2   0.311569 0.051369 0.528783 -0.133611
C49   C     C_2   0.231870 0.698445 0.526245 -0.120289
C50   C     C_2   0.807470 0.573639 0.455832 -0.121727
C51   C     C_2   0.737937 0.197581 0.526797 -0.138214
C52   C     C_2   0.310113 0.086821 0.454797 -0.127695
C53   C     C_R   0.261187 0.635739 0.851306 0.561090
C54   C     C_R   0.738728 0.636427 0.148593 0.554810
C55   C     C_R   0.761186 0.135735 0.851304 0.563400
C56   C     C_R   0.519168 0.052761 0.924569 -0.076653
C57   C     C_R   0.238727 0.136427 0.148593 0.554121
C58   C     C_R   0.272790 0.045379 0.647617 0.583841
C59   C     C_R   0.728931 0.046390 0.350793 0.576030
C60   C     C_R   0.772404 0.547377 0.648484 0.577019
C61   C     C_R   0.229266 0.548824 0.349998 0.582556
C62   C     C_R   0.472368 0.824218 0.649356 0.552122
C63   C     C_R   0.562412 0.819462 0.359662 0.577014
C64   C     C_R   0.938413 0.320431 0.640283 0.555686
C65   C     C_R   0.027725 0.323817 0.350568 0.566450
C66   C     C_R   0.261174 0.640668 0.644620 0.553567
C67   C     C_R   0.993003 0.558983 0.070392 -0.070932
C68   C     C_R   0.739777 0.633585 0.352467 0.565449
C69   C     C_R   0.760322 0.138388 0.645865 0.547036
C70   C     C_R   0.240248 0.133117 0.352071 0.572658
C71   C     C_R   0.499353 0.832348 0.074798 0.006679
C72   C     C_R   0.498897 0.829080 0.925865 0.011194
C73   C     C_R   0.999282 0.332328 0.074835 0.008238
C74   C     C_R   0.998828 0.329105 0.925901 0.009360
C75   C     C_R   0.499301 0.944649 0.036433 0.026383
C76   C     C_R   0.505963 0.942212 0.961443 0.028160
C77   C     C_R   0.999170 0.444635 0.036488 0.027807
C78   C     C_R   0.018989 0.552836 0.924650 -0.076735
C79   C     C_R   0.005834 0.442241 0.961498 0.026727
C80   C     C_R   0.495935 0.720382 0.965326 -0.150157
C81   C     C_R   0.494023 0.722222 0.038046 -0.150207
C82   C     C_R   0.995880 0.220394 0.965352 -0.150609
C83   C     C_R   0.993968 0.222210 0.038073 -0.149772
C84   C     C_R   0.002107 0.667464 0.032291 -0.074294
Cr1   Cr    Cr6+3 0.230530 0.836340 0.748870 1.052338
Cr2   Cr    Cr6+3 0.614360 0.677860 0.250770 1.043658
Cr3   Cr    Cr6+3 0.885640 0.177860 0.749230 1.057297
Cr4   Cr    Cr6+3 0.114360 0.177860 0.250770 1.052082
Cr5   Cr    Cr6+3 0.769470 0.836340 0.251130 1.058545
Cr6   Cr    Cr6+3 0.730530 0.336340 0.748870 1.025948
Cr7   Cr    Cr6+3 0.269470 0.336340 0.251130 1.066075
Cr8   Cr    Cr6+3 0.387420 0.989430 0.750820 1.044288
Cr9   Cr    Cr6+3 0.612580 0.989430 0.249180 1.038722
Cr10  Cr    Cr6+3 0.887420 0.489430 0.750820 1.055121
Cr11  Cr    Cr6+3 0.112580 0.489430 0.249180 1.042132
Cr12  Cr    Cr6+3 0.385640 0.677860 0.749230 1.052106
H1    H     H_    0.491434 0.632082 0.940091 0.140453
H2    H     H_    0.850397 0.634078 0.441464 0.183979
H3    H     H_    0.732427 0.290912 0.545207 0.141727
H4    H     H_    0.352920 0.143158 0.435278 0.168479
H5    H     H_    0.266082 0.517872 0.552609 0.155715
H6    H     H_    0.709911 0.497232 0.431366 0.109898
H7    H     H_    0.752745 0.010537 0.557450 0.192172
H8    H     H_    0.213872 0.999776 0.434596 0.141066
H9    H     H_    0.479644 0.066060 0.125926 0.133319
H10   H     H_    0.532259 0.053982 0.868631 0.130041
H11   H     H_    0.979464 0.565945 0.126014 0.130376
H12   H     H_    0.492422 0.634955 0.065530 0.142198
H13   H     H_    0.032097 0.554120 0.868718 0.133523
H14   H     H_    0.998269 0.754279 0.059140 0.126421
H15   H     H_    0.026636 0.748316 0.931025 0.127062
H16   H     H_    0.498565 0.254314 0.059019 0.127022
H17   H     H_    0.526924 0.248231 0.930905 0.125627
H18   H     H_    0.321573 0.451434 0.059360 0.163597
H19   H     H_    0.678244 0.451673 0.941676 0.163905
H20   H     H_    0.821559 0.951410 0.059354 0.163509
H21   H     H_    0.178240 0.951674 0.941674 0.163885
H22   H     H_    0.359420 0.571682 0.945266 0.151386
H23   H     H_    0.991408 0.132097 0.940109 0.140979
H24   H     H_    0.640474 0.572639 0.054722 0.154210
H25   H     H_    0.859416 0.071662 0.945263 0.151001
H26   H     H_    0.140474 0.072629 0.054724 0.154513
H27   H     H_    0.197449 0.567945 0.940045 0.147328
H28   H     H_    0.802482 0.569602 0.060090 0.146870
H29   H     H_    0.697445 0.067947 0.940042 0.147047
H30   H     H_    0.302482 0.069586 0.060095 0.147491
H31   H     H_    0.584406 0.655093 0.458182 0.161401
H32   H     H_    0.529652 0.645361 0.575740 0.173195
H33   H     H_    0.980667 0.144196 0.430299 0.207017
H34   H     H_    0.992396 0.134934 0.065549 0.141546
H35   H     H_    0.922742 0.154082 0.545901 0.199866
H36   H     H_    0.517687 0.911279 0.450943 0.100985
H37   H     H_    0.524957 0.926918 0.565357 0.100564
H38   H     H_    0.971745 0.425565 0.432103 0.094117
H39   H     H_    0.981771 0.415392 0.548109 0.120693
H40   H     H_    0.163286 0.698770 0.435051 0.142297
H41   H     H_    0.834933 0.451520 0.543158 0.092591
H42   H     H_    0.677249 0.222613 0.429913 0.131073
H43   H     H_    0.360360 0.010671 0.547702 0.130509
H44   H     H_    0.218120 0.788445 0.545841 0.160025
O1    O     O_R   0.215090 0.709860 0.828130 -0.510459
O2    O     O_R   0.543740 0.718170 0.330000 -0.481676
O3    O     O_R   0.956260 0.218170 0.670000 -0.476688
O4    O     O_R   0.043740 0.218170 0.330000 -0.501914
O5    O     O_R   0.320940 0.626760 0.674370 -0.481344
O6    O     O_R   0.679060 0.626760 0.325630 -0.524213
O7    O     O_R   0.820940 0.126760 0.674370 -0.500024
O8    O     O_R   0.179060 0.126760 0.325630 -0.488567
O9    O     O_3   0.334530 0.834540 0.749640 -0.266781
O10   O     O_3   0.665470 0.834540 0.250360 -0.282757
O11   O     O_3   0.834530 0.334540 0.749640 -0.288934
O12   O     O_R   0.784910 0.709860 0.171870 -0.514263
O13   O     O_3   0.165470 0.334540 0.250360 -0.260422
O14   O     O_R   0.236990 0.958390 0.823710 -0.517067
O15   O     O_R   0.763010 0.958390 0.176290 -0.521105
O16   O     O_R   0.736990 0.458390 0.823710 -0.516930
O17   O     O_R   0.263010 0.458390 0.176290 -0.520985
O18   O     O_R   0.332380 0.074750 0.830850 -0.468101
O19   O     O_R   0.667620 0.074750 0.169150 -0.472742
O20   O     O_R   0.832380 0.574750 0.830850 -0.466464
O21   O     O_R   0.167620 0.574750 0.169150 -0.473625
O22   O     O_R   0.445800 0.917770 0.825070 -0.506761
O23   O     O_R   0.715090 0.209860 0.828130 -0.510084
O24   O     O_R   0.554200 0.917770 0.174930 -0.505194
O25   O     O_R   0.945800 0.417770 0.825070 -0.502751
O26   O     O_R   0.054200 0.417770 0.174930 -0.511649
O27   O     O_R   0.456410 0.716580 0.829970 -0.523788
O28   O     O_R   0.543590 0.716580 0.170030 -0.515930
O29   O     O_R   0.956410 0.216580 0.829970 -0.516643
O30   O     O_R   0.043590 0.216580 0.170030 -0.523494
O31   O     O_R   0.321080 0.625290 0.822650 -0.493969
O32   O     O_R   0.678920 0.625290 0.177350 -0.496902
O33   O     O_R   0.821080 0.125290 0.822650 -0.491463
O34   O     O_R   0.284910 0.209860 0.171870 -0.514648
O35   O     O_R   0.178920 0.125290 0.177350 -0.498821
O36   O     O_R   0.214930 0.711450 0.668160 -0.512825
O37   O     O_R   0.785070 0.711450 0.331840 -0.485499
O38   O     O_R   0.714930 0.211450 0.668160 -0.515442
O39   O     O_R   0.285070 0.211450 0.331840 -0.502338
O40   O     O_R   0.236850 0.959870 0.675420 -0.487928
O41   O     O_R   0.763150 0.959870 0.324580 -0.451740
O42   O     O_R   0.736850 0.459870 0.675420 -0.513245
O43   O     O_R   0.263150 0.459870 0.324580 -0.456101
O44   O     O_R   0.332230 0.076350 0.670880 -0.521811
O45   O     O_R   0.445660 0.919250 0.676780 -0.509929
O46   O     O_R   0.667770 0.076350 0.329120 -0.543490
O47   O     O_R   0.832230 0.576350 0.670880 -0.502452
O48   O     O_R   0.167770 0.576350 0.329120 -0.535964
O49   O     O_R   0.554340 0.919250 0.323220 -0.501222
O50   O     O_R   0.945660 0.419250 0.676780 -0.496785
O51   O     O_R   0.054340 0.419250 0.323220 -0.499474
O52   O     O_R   0.456260 0.718170 0.670000 -0.504233

loop_
_geom_bond_atom_site_label_1
_geom_bond_atom_site_label_2
_ccdc_geom_bond_type
C71   C75   A    
C55   O33   A    
C47   C51   S    
C26   C29   D    
Cr1   O1    S    
C11   C12   S    
Cr12  O9    S    
C72   C76   A    
C1    C13   S    
Cr10  O47   S    
C61   O43   A    
Cr7   O39   S    
C7    C20   D    
C6    H28   S    
Cr8   O45   S    
C25   H39   S    
Cr10  O25   S    
Cr5   O37   S    
C44   H40   S    
C22   H37   S    
C42   O25   A    
Cr3   O11   S    
C1    O18   A    
C24   H36   S    
C58   O40   A    
Cr10  O50   S    
C54   O32   A    
C4    C56   A    
C33   C69   S    
Cr9   O49   S    
C63   O2    A    
C66   O36   A    
C74   C79   A    
Cr4   O4    S    
C16   H20   S    
Cr4   O13   S    
Cr9   O24   S    
Cr8   O18   S    
C20   H25   S    
C18   H22   S    
C31   C66   S    
Cr9   O19   S    
C17   H21   S    
C9    C34   S    
C56   C76   A    
Cr7   O34   S    
C84   H14   S    
C2    H15   S    
C25   C64   S    
Cr7   O13   S    
Cr8   O9    S    
C67   C77   A    
C26   H38   S    
C4    H17   S    
C27   C28   S    
C71   C81   A    
Cr5   O15   S    
C58   O44   A    
C38   C47   D    
Cr10  O20   S    
C82   H23   S    
C8    H30   S    
C63   O49   A    
C15   C19   S    
C6    C19   D    
Cr12  O27   S    
C59   O46   A    
C43   C73   S    
C39   C58   S    
C3    C45   A    
C34   O17   A    
Cr6   O42   S    
C40   O27   A    
C36   C44   D    
Cr5   O41   S    
C81   H12   S    
C2    C84   A    
Cr2   O10   S    
C29   H33   S    
C69   O38   A    
Cr12  O52   S    
Cr8   O44   S    
C3    H16   S    
C28   H32   S    
C22   C62   S    
C45   H9    S    
C14   H18   S    
C24   C63   S    
C57   O34   A    
C77   C79   A    
Br2   C37   S    
C17   C21   S    
Br6   C10   S    
Cr11  O13   S    
C56   H10   S    
C60   O47   A    
Cr8   O22   S    
C10   C15   D    
Cr5   O12   S    
C42   O29   A    
C32   C50   D    
C33   C51   D    
C27   H31   S    
C78   C79   A    
Cr3   O33   S    
C47   H42   S    
C32   H6    S    
C8    C21   D    
C12   O15   A    
C61   O48   A    
C51   H3    S    
C32   C68   S    
C66   O5    A    
C50   H2    S    
C73   C83   A    
C43   O26   A    
C24   C27   D    
C29   C30   S    
C34   O21   A    
C83   H34   S    
C35   C70   S    
C19   H24   S    
Br1   C36   S    
C55   O23   A    
C21   H26   S    
C60   O42   A    
C30   H35   S    
C64   O3    A    
C37   C60   S    
Br8   C13   S    
C5    H27   S    
C36   C61   S    
Cr11  O51   S    
C23   O20   A    
Br5   C9    S    
Cr1   O9    S    
C31   C49   D    
C67   C84   A    
C46   H41   S    
C40   O22   A    
Cr6   O23   S    
C35   C52   D    
C37   C46   D    
C53   O31   A    
Br7   C11   S    
C65   O4    A    
C33   H7    S    
Cr12  O5    S    
C54   O12   A    
C5    C18   D    
C75   C76   A    
Cr3   O3    S    
Cr11  O48   S    
Cr4   O35   S    
C43   O30   A    
C41   C71   S    
C35   H8    S    
Cr9   O46   S    
C42   C74   S    
C46   C50   S    
C12   O19   A    
C13   C17   D    
C23   O16   A    
C2    C78   A    
C62   O52   A    
C16   C20   S    
C52   H4    S    
Cr10  O11   S    
Cr9   O10   S    
C41   O24   A    
Cr6   O16   S    
C3    C4    A    
C59   O41   A    
C7    H29   S    
Cr2   O2    S    
Cr2   O32   S    
Br3   C38   S    
C9    C14   D    
C74   C82   A    
C22   C28   D    
C45   C75   A    
Cr5   O10   S    
C40   C72   S    
C48   H43   S    
C57   O35   A    
C11   C16   D    
C38   C59   S    
Cr6   O38   S    
Cr6   O11   S    
C69   O7    A    
Cr7   O43   S    
Cr2   O6    S    
C70   O8    A    
C82   C83   A    
Cr4   O8    S    
Cr1   O14   S    
C62   O45   A    
C65   O51   A    
C68   O6    A    
Cr1   O36   S    
Cr3   O29   S    
C80   H1    S    
C67   H11   S    
C78   H13   S    
Cr3   O7    S    
Cr11  O26   S    
C1    O14   A    
C70   O39   A    
C8    C57   S    
C44   C49   S    
C26   C65   S    
C64   O50   A    
Cr12  O31   S    
Cr1   O40   S    
C48   C52   S    
C31   H5    S    
C5    C53   S    
C80   C81   A    
C72   C80   A    
C14   C18   S    
C49   H44   S    
Cr11  O21   S    
C7    C55   S    
C25   C30   D    
C10   C23   S    
C15   H19   S    
Cr4   O30   S    
C53   O1    A    
C41   O28   A    
C73   C77   A    
C68   O37   A    
Cr2   O28   S    
C39   C48   D    
Cr7   O17   S    
Br4   C39   S    
C6    C54   S    
