data_mof_unit_42269.cif
_audit_creation_date              2012-12-10T17:56:46-0500
_audit_creation_method            fapswitch 2.2
_symmetry_space_group_name_H-M    P1
_symmetry_Int_Tables_number       1
_space_group_crystal_system       triclinic
_cell_length_a                    10.831189
_cell_length_b                    9.567759
_cell_length_c                    10.910792
_cell_angle_alpha                 90.000296
_cell_angle_beta                  90.58002
_cell_angle_gamma                 90.000045
_cell_volume                      1130.62968681

loop_
_atom_site_label
_atom_site_type_symbol
_atom_type_description
_atom_site_fract_x
_atom_site_fract_y
_atom_site_fract_z
_atom_type_partial_charge
C1    C     C_R   0.262215 0.499953 0.499959 0.789415
C2    C     C_R   0.737785 0.499953 0.500041 0.789418
C3    C     C_R   0.936141 0.626907 0.499964 -0.148634
C4    C     C_R   0.063859 0.626907 0.500036 -0.148634
C5    C     C_R   0.408293 0.074564 0.442184 -0.039430
C6    C     C_R   0.591706 0.074564 0.557817 -0.039439
C7    C     C_R   0.407644 0.926397 0.442850 0.613197
C8    C     C_R   0.592355 0.926398 0.557150 0.613193
C9    C     C_R   0.491883 0.500426 0.262262 0.862564
C10   C     C_R   0.508115 0.500427 0.737738 0.862564
C11   C     C_R   0.439790 0.756796 0.111480 -0.286393
C12   C     C_R   0.560197 0.756801 0.888524 -0.286399
C13   C     C_R   0.465639 0.882703 0.053560 0.609946
C14   C     C_R   0.534347 0.882705 0.946450 0.609948
C15   C     C_R   0.519630 0.629206 0.938811 -0.076454
C16   C     C_R   0.480360 0.629204 0.061191 -0.076458
C17   C     C_R   0.484268 0.502085 0.127603 -0.300781
C18   C     C_R   0.515729 0.502087 0.872397 -0.300779
C19   C     C_R   0.496664 0.376062 0.063241 0.566958
C20   C     C_R   0.503337 0.376063 0.936757 0.566953
C21   C     C_R   0.063873 0.372912 0.499941 -0.155938
C22   C     C_R   0.936126 0.372912 0.500059 -0.155937
C23   C     C_R   0.871714 0.499926 0.500039 -0.030568
C24   C     C_R   0.128286 0.499926 0.499961 -0.030568
Cu1   Cu    Cu3+1 0.500000 0.640660 0.500000 1.046135
Cu2   Cu    Cu3+1 0.500000 0.359340 0.500000 1.036575
H1    H     H_    0.384823 0.760157 0.193047 0.254742
H2    H     H_    0.615164 0.760165 0.806959 0.254741
H3    H     H_    0.111878 0.273586 0.499872 0.164228
H4    H     H_    0.888121 0.273586 0.500127 0.164229
H5    H     H_    0.888207 0.726238 0.499814 0.203380
H6    H     H_    0.111794 0.726238 0.500186 0.203380
H7    H     H_    0.334775 0.130240 0.395426 0.184005
H8    H     H_    0.665222 0.130241 0.604576 0.184007
N1    N     N_R   0.500000 0.852070 0.500000 -0.271096
N2    N     N_R   0.500000 0.147940 0.500000 -0.238020
O1    O     O_R   0.319640 0.618740 0.499990 -0.535776
O2    O     O_R   0.680360 0.618740 0.500010 -0.535775
O3    O     O_R   0.319620 0.381170 0.499990 -0.603487
O4    O     O_R   0.680380 0.381170 0.500010 -0.603486
O5    O     O_R   0.500000 0.618810 0.319650 -0.579307
O6    O     O_R   0.500000 0.618810 0.680350 -0.579308
O7    O     O_R   0.499970 0.381240 0.319640 -0.510231
O8    O     O_R   0.500030 0.381240 0.680360 -0.510232
F1    F     F_    0.501097 0.251680 0.122133 -0.543572
F2    F     F_    0.498910 0.251682 0.877864 -0.543575
F3    F     F_    0.426058 0.003670 0.103541 -0.555533
F4    F     F_    0.573932 0.003674 0.896476 -0.555523
F5    F     F_    0.313275 0.858939 0.386246 -0.669125
F6    F     F_    0.686724 0.858941 0.613755 -0.669123

loop_
_geom_bond_atom_site_label_1
_geom_bond_atom_site_label_2
_ccdc_geom_bond_type
Cu1   O6    S    
C15   C18   A    
C6    C8    A    
C19   F1    S    
C1    O1    A    
Cu1   O2    S    
C10   O6    A    
C11   C16   A    
C2    O2    A    
C9    O5    A    
C19   C20   A    
C12   C15   A    
C11   H1    S    
Cu1   O1    S    
Cu1   Cu2   S    
Cu2   O8    S    
Cu1   O5    S    
C21   C22   A    
C3    H5    S    
C11   C13   A    
Cu2   O4    S    
C4    H6    S    
C21   H3    S    
Cu1   N1    S    
C9    C17   S    
C17   C19   A    
C10   C18   S    
Cu2   O7    S    
C8    F6    S    
C18   C20   A    
C4    C24   A    
Cu2   O3    S    
C9    O7    A    
C6    H8    S    
C1    O3    A    
C10   O8    A    
C15   C16   A    
C5    N2    A    
C2    O4    A    
C12   C14   A    
C7    F5    S    
C1    C24   S    
C13   F3    S    
C21   C24   A    
Cu2   N2    S    
C2    C23   S    
C5    C7    A    
C22   C23   A    
C14   F4    S    
C22   H4    S    
C12   H2    S    
C3    C23   A    
C13   C14   A    
C7    N1    A    
C20   F2    S    
C3    C4    A    
C6    N2    A    
C16   C17   A    
C8    N1    A    
C5    H7    S    
