data_mof_unit_32668.cif
_audit_creation_date              2012-12-10T17:32:22-0500
_audit_creation_method            fapswitch 2.2
_symmetry_space_group_name_H-M    P1
_symmetry_Int_Tables_number       1
_space_group_crystal_system       triclinic
_cell_length_a                    15.484081
_cell_length_b                    15.38328
_cell_length_c                    15.573007
_cell_angle_alpha                 92.982247
_cell_angle_beta                  71.523541
_cell_angle_gamma                 111.548867
_cell_volume                      3263.58916488

loop_
_atom_site_label
_atom_site_type_symbol
_atom_type_description
_atom_site_fract_x
_atom_site_fract_y
_atom_site_fract_z
_atom_type_partial_charge
C1    C     C_R   0.463275 0.257973 0.463257 0.504226
C2    C     C_R   0.517461 0.509248 0.116487 -0.126282
C3    C     C_R   0.666927 0.637427 0.114294 -0.091984
C4    C     C_R   0.540364 0.743771 0.532191 0.551842
C5    C     C_R   0.442462 0.419486 0.835285 0.008448
C6    C     C_R   0.424165 0.031079 0.350512 0.297286
C7    C     C_R   0.451390 0.160945 0.446513 -0.015422
C8    C     C_R   0.608260 0.890323 0.607569 0.213887
C9    C     C_R   0.626164 0.985329 0.620376 0.289255
C10   C     C_R   0.606934 0.039266 0.564548 0.237625
C11   C     C_R   0.558535 0.995682 0.500811 -0.059042
C12   C     C_R   0.349893 0.311937 0.970572 -0.090490
C13   C     C_R   0.555904 0.904275 0.477813 -0.075647
C14   C     C_R   0.512954 0.038685 0.458688 -0.026273
C15   C     C_R   0.477418 0.994793 0.387608 -0.045973
C16   C     C_R   0.756731 0.550955 0.463159 0.565026
C17   C     C_R   0.497097 0.915949 0.353244 -0.081064
C18   C     C_R   0.542215 0.874703 0.393475 0.294236
C19   C     C_R   0.496166 0.120698 0.488362 -0.164933
C20   C     C_R   0.410363 0.114258 0.380252 0.282912
C21   C     C_R   0.569440 0.847405 0.538100 -0.043105
C22   C     C_R   0.020087 0.609019 0.328460 0.279988
C23   C     C_R   0.417541 0.362068 0.013351 0.231087
C24   C     C_R   0.861074 0.571712 0.443306 -0.010080
C25   C     C_R   0.069255 0.370266 0.628051 -0.122125
C26   C     C_R   0.970521 0.355403 0.649817 -0.153637
C27   C     C_R   0.939411 0.400946 0.597699 -0.097203
C28   C     C_R   0.243168 0.447868 0.534046 0.487505
C29   C     C_R   0.007000 0.462381 0.521330 0.046459
C30   C     C_R   0.104669 0.464814 0.491538 0.023716
C31   C     C_R   0.980190 0.517372 0.470518 -0.026376
C32   C     C_R   0.045820 0.558552 0.382939 -0.038359
C33   C     C_R   0.135851 0.547309 0.349560 -0.117299
C34   C     C_R   0.491606 0.449091 0.972783 0.021459
C35   C     C_R   0.165165 0.502254 0.402993 -0.121383
C36   C     C_R   0.891175 0.533847 0.503209 0.185835
C37   C     C_R   0.926472 0.612703 0.357145 0.246404
C38   C     C_R   0.137743 0.425757 0.549667 0.020971
C39   C     C_R   0.552160 0.550604 0.258893 0.502326
C40   C     C_R   0.452892 0.447662 0.741294 0.538560
C41   C     C_R   0.696315 0.648624 0.019621 0.274857
C42   C     C_R   0.577061 0.569274 0.162159 -0.017409
C43   C     C_R   0.360146 0.340389 0.883138 0.220864
C44   C     C_3   0.437585 0.018686 0.201237 -0.126461
C45   C     C_R   0.513215 0.469686 0.878921 -0.054620
C46   C     C_3   0.725232 0.850999 0.635479 -0.068765
C47   C     C_3   0.729857 0.176859 0.501103 -0.104828
C48   C     C_3   0.592497 0.026580 0.765476 -0.087438
C49   C     C_3   0.678948 0.846662 0.312496 -0.132864
C50   C     C_3   0.882091 0.732160 0.328232 -0.118522
C51   C     C_3   0.142933 0.739431 0.248799 -0.093380
C52   C     C_3   0.865093 0.584724 0.644689 -0.120103
C53   C     C_3   0.777287 0.804436 0.980388 -0.130042
C54   C     C_3   0.302353 0.206850 0.814904 -0.091142
C55   C     C_3   0.490000 0.276874 0.056956 -0.137473
C56   C     C_R   0.548751 0.513108 0.021135 0.003289
C57   C     C_3   0.389159 0.227203 0.305158 -0.095833
C58   C     C_R   0.637809 0.585763 0.972743 0.050375
C59   C     C_R   0.667512 0.593693 0.878270 -0.127794
C60   C     C_R   0.606876 0.536681 0.832166 -0.127684
H1    H     H_    0.737444 0.645320 0.839265 0.145692
H2    H     H_    0.513818 0.021216 0.185981 0.085534
H3    H     H_    0.405669 0.972989 0.152907 0.133944
H4    H     H_    0.515406 0.155162 0.545195 0.187439
H5    H     H_    0.772401 0.923722 0.642576 0.146845
H6    H     H_    0.748785 0.832836 0.563799 0.095373
H7    H     H_    0.736655 0.803113 0.677914 0.131991
H8    H     H_    0.719547 0.165878 0.433268 0.115495
H9    H     H_    0.786265 0.150213 0.505557 0.132588
H10   H     H_    0.757859 0.253515 0.508068 0.151348
H11   H     H_    0.541774 0.953693 0.791941 0.133358
H12   H     H_    0.092023 0.338182 0.672816 0.151473
H13   H     H_    0.550993 0.068327 0.754462 0.131348
H14   H     H_    0.625851 0.059243 0.818262 0.125735
H15   H     H_    0.711643 0.860258 0.368271 0.090820
H16   H     H_    0.705845 0.911899 0.268155 0.103964
H17   H     H_    0.704747 0.795068 0.270587 0.123809
H18   H     H_    0.935981 0.775972 0.361471 0.081886
H19   H     H_    0.806335 0.714997 0.375352 0.103813
H20   H     H_    0.889972 0.775407 0.269375 0.137373
H21   H     H_    0.185147 0.574294 0.281695 0.163391
H22   H     H_    0.186201 0.742762 0.294803 0.120207
H23   H     H_    0.861448 0.382833 0.616165 0.186965
H24   H     H_    0.099334 0.784716 0.271589 0.133872
H25   H     H_    0.195796 0.768272 0.180432 0.149424
H26   H     H_    0.821378 0.563245 0.717015 0.138090
H27   H     H_    0.855512 0.648621 0.625884 0.120255
H28   H     H_    0.943116 0.600780 0.638643 0.127972
H29   H     H_    0.917762 0.309463 0.708522 0.132422
H30   H     H_    0.718215 0.806002 0.954939 0.119128
H31   H     H_    0.847248 0.857570 0.937949 0.145840
H32   H     H_    0.764365 0.824932 0.051581 0.110437
H33   H     H_    0.446855 0.460079 0.156781 0.168599
H34   H     H_    0.234233 0.493569 0.371826 0.145759
H35   H     H_    0.285112 0.157652 0.873142 0.092072
H36   H     H_    0.378131 0.220889 0.768186 0.118978
H37   H     H_    0.251165 0.171762 0.776474 0.153554
H38   H     H_    0.471627 0.223502 0.007865 0.108745
H39   H     H_    0.492001 0.240538 0.115146 0.112558
H40   H     H_    0.564809 0.330483 0.026207 0.136701
H41   H     H_    0.469535 0.247561 0.270734 0.104065
H42   H     H_    0.374502 0.281811 0.350442 0.127679
H43   H     H_    0.354536 0.224754 0.252322 0.178999
H44   H     H_    0.290667 0.247946 0.004505 0.142386
H45   H     H_    0.638791 0.543795 0.759540 0.175742
H46   H     H_    0.714681 0.681334 0.150290 0.120404
H47   H     H_    0.479708 0.886737 0.293278 0.161592
H48   H     H_    0.438472 0.089486 0.189290 0.133608
O1    O     O_3   0.500000 0.500000 0.500000 -0.454721
O2    O     O_R   0.588830 0.499590 0.285390 -0.538098
O3    O     O_R   0.395900 0.395880 0.699370 -0.489239
O4    O     O_R   0.493280 0.582590 0.315890 -0.516305
O5    O     O_R   0.521980 0.521940 0.699340 -0.556566
O6    O     O_3   0.378608 0.980835 0.290319 -0.548862
O7    O     O_3   0.625072 0.838824 0.666508 -0.525845
O8    O     O_3   0.640590 0.135064 0.571640 -0.571870
O9    O     O_3   0.668108 0.027389 0.685550 -0.539810
O10   O     O_3   0.575632 0.808353 0.346402 -0.533419
O11   O     O_3   0.897892 0.649763 0.296338 -0.511657
O12   O     O_R   0.708210 0.582550 0.530770 -0.546825
O13   O     O_3   0.082523 0.646540 0.242332 -0.531860
O14   O     O_3   0.830573 0.510571 0.592172 -0.581608
O15   O     O_3   0.785878 0.716008 0.972511 -0.569116
O16   O     O_3   0.288661 0.290493 0.844872 -0.534201
O17   O     O_3   0.418779 0.318202 0.087883 -0.600383
O18   O     O_3   0.343968 0.138897 0.354297 -0.548469
O19   O     O_R   0.270260 0.395900 0.573760 -0.541320
O20   O     O_R   0.537060 0.322180 0.411040 -0.554135
O21   O     O_R   0.484470 0.699370 0.484430 -0.480819
O22   O     O_R   0.404710 0.279110 0.530840 -0.535925
O23   O     O_R   0.573760 0.699350 0.573690 -0.513697
O24   O     O_R   0.714470 0.499570 0.411000 -0.513476
O25   O     O_R   0.307050 0.521980 0.484470 -0.547701
Zn1   Zn    Zn3+2 0.574690 0.574670 0.574650 0.942788
Zn2   Zn    Zn3+2 0.583640 0.456100 0.403530 0.947852
Zn3   Zn    Zn3+2 0.447120 0.574690 0.447120 0.962044
Zn4   Zn    Zn3+2 0.394550 0.394550 0.574700 0.956572

loop_
_geom_bond_atom_site_label_1
_geom_bond_atom_site_label_2
_ccdc_geom_bond_type
C45   C60   A    
C34   C56   A    
O1    Zn2   S    
C9    O9    S    
C1    O20   A    
O23   Zn1   S    
C50   H19   S    
C51   H25   S    
C3    C42   A    
C26   H29   S    
C57   H42   S    
C12   C23   A    
C26   C27   A    
C24   C36   A    
C22   C32   A    
C46   O7    S    
C41   C58   A    
C46   H6    S    
C12   C43   A    
C17   H47   S    
C11   C14   A    
C27   C29   A    
C57   H41   S    
C30   C38   A    
O1    Zn4   S    
C39   C42   S    
C6    O6    S    
C8    O7    S    
C6    C15   A    
C52   O14   S    
C39   O2    A    
C47   H9    S    
C49   O10   S    
C49   H17   S    
C8    C9    A    
C55   H40   S    
C53   H31   S    
O25   Zn3   S    
C49   H15   S    
C54   H37   S    
C40   O3    A    
C9    C10   A    
C18   O10   S    
C31   C36   A    
C54   H36   S    
C2    H33   S    
C28   O19   A    
C55   O17   S    
C23   O17   S    
C5    C43   A    
C44   O6    S    
C59   C60   A    
C44   H3    S    
O1    Zn3   S    
O2    Zn2   S    
O4    Zn3   S    
C50   H18   S    
C24   C37   A    
C4    O23   A    
C44   H48   S    
C3    H46   S    
C47   O8    S    
C57   H43   S    
C59   H1    S    
C28   O25   A    
C48   H14   S    
C52   H28   S    
C46   H5    S    
C1    O22   A    
C53   O15   S    
O20   Zn2   S    
C57   O18   S    
C25   H12   S    
C44   H2    S    
C58   C59   A    
C22   C37   A    
C5    C45   A    
C40   O5    A    
C50   O11   S    
C50   H20   S    
C36   O14   S    
C47   H10   S    
C20   O18   S    
C29   C30   A    
C25   C38   A    
O21   Zn3   S    
C31   C32   A    
C37   O11   S    
C28   C38   S    
C19   H4    S    
C23   C34   A    
C53   H32   S    
C17   C18   A    
C49   H16   S    
C13   C21   A    
C34   C45   A    
C51   H22   S    
C54   H35   S    
C4    O21   A    
C13   C18   A    
C39   O4    A    
C7    C19   A    
O5    Zn1   S    
C51   O13   S    
C48   H11   S    
C47   H8    S    
C10   O8    S    
O3    Zn4   S    
C22   O13   S    
C35   H34   S    
C15   C17   A    
C54   O16   S    
C3    C41   A    
O1    Zn1   S    
C1    C7    S    
C14   C19   A    
C52   H27   S    
C48   H13   S    
C8    C21   A    
C12   H44   S    
C48   O9    S    
C30   C35   A    
C32   C33   A    
C41   O15   S    
C16   O12   A    
C25   C26   A    
C46   H7    S    
C29   C31   A    
C2    C56   A    
C4    C21   S    
C11   C13   A    
C6    C20   A    
C2    C42   A    
O24   Zn2   S    
C43   O16   S    
C55   H38   S    
C52   H26   S    
C33   C35   A    
C56   C58   A    
O12   Zn1   S    
C16   O24   A    
C10   C11   A    
C27   H23   S    
C16   C24   S    
C7    C20   A    
C5    C40   S    
C55   H39   S    
C53   H30   S    
C14   C15   A    
O19   Zn4   S    
O22   Zn4   S    
C33   H21   S    
C51   H24   S    
C60   H45   S    
