data_mof_unit_5978.cif
_audit_creation_date              2012-12-10T17:31:55-0500
_audit_creation_method            fapswitch 2.2
_symmetry_space_group_name_H-M    P1
_symmetry_Int_Tables_number       1
_space_group_crystal_system       triclinic
_cell_length_a                    11.955362
_cell_length_b                    11.550182
_cell_length_c                    12.92808
_cell_angle_alpha                 90.040416
_cell_angle_beta                  93.728279
_cell_angle_gamma                 86.32007
_cell_volume                      1777.73282466

loop_
_atom_site_label
_atom_site_type_symbol
_atom_type_description
_atom_site_fract_x
_atom_site_fract_y
_atom_site_fract_z
_atom_type_partial_charge
C1    C     C_R   0.477226 0.508379 0.299131 0.927211
C2    C     C_R   0.974400 0.551190 0.519555 0.075186
C3    C     C_R   0.499777 0.281791 0.499986 0.896961
C4    C     C_R   0.500240 0.718205 0.500203 0.986475
C5    C     C_1   0.499450 0.161419 0.500092 -0.182045
C6    C     C_1   0.500568 0.838547 0.500258 -0.149036
C7    C     C_1   0.499721 0.059285 0.500180 0.009253
C8    C     C_1   0.500298 0.940666 0.500251 0.010840
C9    C     C_R   0.539824 0.528540 0.812434 -0.244091
C10   C     C_R   0.461974 0.528249 0.187379 -0.241139
C11   C     C_R   0.351402 0.532523 0.023988 -0.101874
C12   C     C_R   0.523127 0.507310 0.700800 0.928364
C13   C     C_R   0.651957 0.524821 0.975469 -0.106912
C14   C     C_R   0.356181 0.516157 0.131154 0.025613
C15   C     C_R   0.647624 0.512547 0.867650 0.027361
C16   C     C_R   0.557094 0.556196 0.134257 0.404915
C17   C     C_R   0.444205 0.562644 0.866762 0.412809
C18   C     C_R   0.553532 0.541009 0.027762 -0.052973
C19   C     C_R   0.449136 0.544758 0.972696 -0.050421
C20   C     C_3   0.756253 0.487674 0.812440 -0.348247
C21   C     C_3   0.867070 0.479651 0.880614 -0.427183
C22   C     C_3   0.968164 0.459844 0.814852 -0.776685
C23   C     C_R   0.042173 0.638048 0.557481 -0.334047
C24   C     C_3   0.249911 0.489498 0.184678 -0.351594
C25   C     C_3   0.142678 0.474739 0.114449 -0.424581
C26   C     C_3   0.044838 0.445786 0.178158 -0.776691
C27   C     C_R   0.957230 0.363710 0.438227 -0.331992
C28   C     C_R   0.158895 0.621871 0.554737 0.145315
C29   C     C_R   0.840273 0.380834 0.439402 0.098524
C30   C     C_R   0.143506 0.435423 0.480563 -0.065811
C31   C     C_R   0.856539 0.563978 0.520170 -0.028484
C32   C     C_R   0.025383 0.448940 0.479312 0.088675
H1    H     H_    0.273019 0.528549 0.978240 0.189217
H2    H     H_    0.689115 0.756330 0.318707 0.379184
H3    H     H_    0.961974 0.378533 0.769479 0.254527
H4    H     H_    0.972801 0.533864 0.760841 0.275151
H5    H     H_    0.046566 0.452559 0.866082 0.261297
H6    H     H_    0.876584 0.561753 0.924343 0.256767
H7    H     H_    0.867259 0.406122 0.936089 0.227223
H8    H     H_    0.750553 0.403834 0.770744 0.219488
H9    H     H_    0.762913 0.558754 0.755645 0.226900
H10   H     H_    0.064915 0.362785 0.220756 0.245266
H11   H     H_    0.026741 0.516077 0.234564 0.283153
H12   H     H_    0.731021 0.514439 0.020644 0.188842
H13   H     H_    0.968498 0.436747 0.125822 0.259758
H14   H     H_    0.118128 0.556658 0.071284 0.253523
H15   H     H_    0.157748 0.403207 0.058439 0.228713
H16   H     H_    0.267909 0.407425 0.229346 0.210950
H17   H     H_    0.230085 0.561718 0.238745 0.236117
H18   H     H_    0.816082 0.640672 0.553144 0.122300
H19   H     H_    0.184083 0.358176 0.448650 0.131545
H20   H     H_    0.787779 0.314517 0.408515 0.133461
H21   H     H_    0.210378 0.690953 0.580423 0.169256
H22   H     H_    0.005359 0.718348 0.587479 0.156073
H23   H     H_    0.993865 0.284563 0.405956 0.146695
H24   H     H_    0.321434 0.803969 0.709254 0.368494
N1    N     N_R   0.792200 0.479100 0.480660 -0.089986
N2    N     N_R   0.207800 0.520900 0.519340 -0.102619
O1    O     O_R   0.578300 0.494420 0.341180 -0.538859
O2    O     O_2   0.286243 0.735782 0.892442 -0.305912
O3    O     O_3   0.374363 0.734356 0.714925 -0.578651
O4    O     O_2   0.761636 0.549866 0.236389 -0.333057
O5    O     O_2   0.715775 0.710768 0.114731 -0.299596
O6    O     O_3   0.622018 0.719191 0.288741 -0.551871
O7    O     O_R   0.421700 0.505580 0.658820 -0.530046
O8    O     O_R   0.390690 0.507830 0.353590 -0.657807
O9    O     O_R   0.609310 0.492170 0.646410 -0.660691
O10   O     O_R   0.593810 0.327740 0.493800 -0.633742
O11   O     O_R   0.406190 0.672260 0.506200 -0.612154
O12   O     O_R   0.406190 0.341150 0.506220 -0.623657
O13   O     O_R   0.593810 0.658850 0.493780 -0.610288
O14   O     O_2   0.237613 0.581447 0.771343 -0.336388
S1    S     S_3+6 0.330340 0.654625 0.811303 0.002242
S2    S     S_3+6 0.669296 0.634202 0.193372 0.018581
Zn1   Zn    Zn3+2 0.625270 0.491050 0.491710 0.985640
Zn2   Zn    Zn3+2 0.374730 0.508950 0.508290 0.991268

loop_
_geom_bond_atom_site_label_1
_geom_bond_atom_site_label_2
_ccdc_geom_bond_type
C30   C32   A    
C30   H19   S    
O5    S2    D    
C28   N2    A    
C27   C29   A    
C22   H4    S    
C12   O7    A    
C25   H15   S    
C3    O10   A    
C21   H7    S    
C28   H21   S    
O8    Zn2   S    
N1    Zn1   S    
C24   H17   S    
H2    O6    S    
C1    O8    A    
C25   C26   S    
N2    Zn2   S    
C7    C8    S    
C10   C16   A    
C21   C22   S    
C24   C25   S    
O10   Zn1   S    
C17   S1    S    
C22   H3    S    
C11   C19   A    
O7    Zn2   S    
C13   C18   A    
C23   H22   S    
C16   S2    S    
C30   N2    A    
C2    C32   A    
C9    C17   A    
C4    O11   A    
C17   C19   A    
C1    O1    A    
C29   N1    A    
C26   H11   S    
C20   H9    S    
C13   C15   A    
O12   Zn2   S    
C15   C20   S    
C20   H8    S    
C11   C14   A    
C27   H23   S    
O13   Zn1   S    
C4    C6    S    
O9    Zn1   S    
C9    C12   S    
C21   H6    S    
C31   H18   S    
C4    O13   A    
C24   H16   S    
O1    Zn1   S    
O2    S1    D    
C11   H1    S    
C3    O12   A    
C20   C21   S    
C26   H10   S    
O11   Zn2   S    
C16   C18   A    
C18   C19   A    
C10   C14   A    
C14   C24   S    
C2    C23   A    
C5    C7    T    
O6    S2    S    
H24   O3    S    
O4    S2    D    
C6    C8    T    
C12   O9    A    
C1    C10   S    
C26   H13   S    
O3    S1    S    
C27   C32   A    
C23   C28   A    
C22   H5    S    
C25   H14   S    
C13   H12   S    
C2    C31   A    
C31   N1    A    
C9    C15   A    
O14   S1    D    
C3    C5    S    
C29   H20   S    
