data_mof_unit_44024.cif
_audit_creation_date              2012-12-10T18:32:43-0500
_audit_creation_method            fapswitch 2.2
_symmetry_space_group_name_H-M    P1
_symmetry_Int_Tables_number       1
_space_group_crystal_system       triclinic
_cell_length_a                    15.014455
_cell_length_b                    15.296091
_cell_length_c                    15.740049
_cell_angle_alpha                 89.744994
_cell_angle_beta                  104.621487
_cell_angle_gamma                 82.64289
_cell_volume                      3466.48373643

loop_
_atom_site_label
_atom_site_type_symbol
_atom_type_description
_atom_site_fract_x
_atom_site_fract_y
_atom_site_fract_z
_atom_type_partial_charge
C1    C     C_R   0.442139 0.662675 0.490703 0.878453
C2    C     C_3   0.447307 0.591488 0.036796 -0.136467
C3    C     C_3   0.507610 0.504069 0.084835 0.040833
C4    C     C_3   0.462454 0.425044 0.036498 -0.050868
C5    C     C_3   0.479541 0.420852 0.943874 -0.511240
C6    C     C_1   0.500608 0.502072 0.174653 0.081469
C7    C     C_1   0.506943 0.505953 0.826926 0.056754
C8    C     C_1   0.503726 0.502718 0.750988 -0.154891
C9    C     C_R   0.407787 0.754780 0.502423 -0.134913
C10   C     C_R   0.592007 0.243853 0.539963 -0.191687
C11   C     C_R   0.281678 0.870780 0.508085 0.209511
C12   C     C_R   0.501165 0.500203 0.661647 0.897208
C13   C     C_R   0.312902 0.783302 0.491221 -0.204726
C14   C     C_R   0.472275 0.812001 0.534397 -0.213173
C15   C     C_R   0.444725 0.897199 0.557366 0.079881
C16   C     C_R   0.348442 0.928963 0.537913 0.080767
C17   C     C_R   0.511755 0.954462 0.589590 -0.001480
C18   C     C_R   0.483330 0.045632 0.575687 0.056792
C19   C     C_R   0.387593 0.077198 0.559604 -0.205582
C20   C     C_R   0.321508 0.019307 0.544334 -0.231206
C21   C     C_R   0.605950 0.923867 0.633491 0.095710
C22   C     C_R   0.674011 0.981239 0.640227 0.155302
C23   C     C_R   0.557962 0.337083 0.514622 0.884875
C24   C     C_R   0.646946 0.069060 0.607452 0.004071
C25   C     C_R   0.551330 0.101525 0.576229 0.042169
C26   C     C_R   0.713745 0.125475 0.605381 -0.255906
C27   C     C_R   0.686651 0.212375 0.572718 0.611840
C28   C     C_R   0.526042 0.187369 0.539904 -0.319095
C29   C     C_R   0.839067 0.645702 0.623006 -0.392919
C30   C     C_R   0.753256 0.615934 0.607711 0.749475
C31   C     C_R   0.792864 0.513147 0.506791 -0.106616
C32   C     C_R   0.882722 0.538233 0.521312 -0.042915
C33   C     C_R   0.904296 0.608457 0.578706 0.027097
C34   C     C_R   0.498870 0.500056 0.338343 0.879323
C35   C     C_R   0.950997 0.495894 0.481372 0.100618
C36   C     C_R   0.040486 0.524437 0.499460 0.059321
C37   C     C_R   0.054609 0.601160 0.547677 -0.206350
C38   C     C_R   0.989770 0.641010 0.590369 0.215228
C39   C     C_R   0.932608 0.426049 0.423752 -0.186656
C40   C     C_R   0.999742 0.384592 0.386175 -0.153310
C41   C     C_R   0.088762 0.408333 0.407095 0.075338
C42   C     C_R   0.111759 0.476873 0.465863 -0.115391
C43   C     C_R   0.155395 0.362623 0.370209 -0.372001
C44   C     C_R   0.245076 0.384801 0.391066 0.264443
C45   C     C_3   0.437515 0.586991 0.935291 0.721495
C46   C     C_R   0.206256 0.491617 0.489931 0.627922
C47   C     C_3   0.611079 0.513005 0.978424 -0.183608
C48   C     C_3   0.611864 0.501077 0.079013 0.704260
C49   C     C_1   0.497206 0.500637 0.249113 -0.205119
C50   C     C_3   0.509638 0.509372 0.919140 0.054539
H1    H     H_    0.375710 0.593190 0.045676 0.179716
H2    H     H_    0.249100 0.046961 0.531018 0.159575
H3    H     H_    0.454246 0.210956 0.509334 0.180955
H4    H     H_    0.263967 0.736877 0.469759 0.187817
H5    H     H_    0.544704 0.790470 0.538522 0.210325
H6    H     H_    0.362216 0.146486 0.560050 0.147413
H7    H     H_    0.787318 0.102855 0.629172 0.197494
H8    H     H_    0.982203 0.331941 0.341585 0.139879
H9    H     H_    0.853616 0.697606 0.669038 0.175507
H10   H     H_    0.768417 0.463385 0.462150 0.165710
H11   H     H_    0.655376 0.455489 0.960533 0.135443
H12   H     H_    0.113690 0.634365 0.549402 0.215836
H13   H     H_    0.866637 0.401580 0.405272 0.140730
H14   H     H_    0.137909 0.310397 0.325090 0.166769
H15   H     H_    0.414818 0.406701 0.896167 0.243091
H16   H     H_    0.534040 0.365141 0.940731 0.179505
H17   H     H_    0.385990 0.440442 0.028400 0.200270
N1    N     N_R   0.731690 0.552720 0.548990 -0.142679
N2    N     N_R   0.268300 0.447240 0.450950 -0.152541
O1    O     O_R   0.383120 0.605620 0.475300 -0.588881
O2    O     O_R   0.531890 0.639510 0.506740 -0.584673
O3    O     O_R   0.425580 0.483050 0.607130 -0.546696
O4    O     O_R   0.574360 0.516930 0.638570 -0.571315
O5    O     O_R   0.468110 0.360490 0.493260 -0.620848
O6    O     O_R   0.616880 0.394380 0.524700 -0.557454
O7    O     O_R   0.425640 0.483070 0.361430 -0.597189
O8    O     O_R   0.574420 0.516950 0.392870 -0.620575
Zn1   Zn    Zn3+2 0.400660 0.477370 0.479010 1.005157
Zn2   Zn    Zn3+2 0.599340 0.522630 0.520990 1.020873
N3    N     N_2   0.481909 0.672633 0.072021 -0.289606
H18   H     H_    0.543831 0.687245 0.062688 0.291118
C51   C     C_3   0.458848 0.707144 0.150413 -0.727570
H19   H     H_    0.458797 0.779705 0.149594 0.230399
H20   H     H_    0.511791 0.678260 0.209733 0.263553
H21   H     H_    0.388854 0.693559 0.153701 0.224428
F1    F     F_    0.349238 0.565748 0.895925 -0.684682
N4    N     N_2   0.494180 0.340542 0.085161 -0.287498
H22   H     H_    0.560150 0.312308 0.085034 0.264877
C52   C     C_3   0.428970 0.276802 0.068449 -0.808700
H23   H     H_    0.457455 0.217773 0.112947 0.241911
H24   H     H_    0.417001 0.256257 0.999298 0.248614
H25   H     H_    0.361895 0.305094 0.081228 0.246263
F2    F     F_    0.753030 0.265158 0.573844 -0.663809
N5    N     N_2   0.769824 0.950968 0.677859 -0.319101
H26   H     H_    0.794162 0.890920 0.657011 0.213539
C53   C     C_3   0.800336 0.960667 0.771675 -0.781288
H27   H     H_    0.765694 0.917943 0.806868 0.244236
H28   H     H_    0.784385 0.030499 0.788245 0.253332
H29   H     H_    0.876607 0.941118 0.794034 0.240345
N6    N     N_2   0.184864 0.901444 0.495959 -0.312011
H30   H     H_    0.168171 0.931358 0.549520 0.221739
C54   C     C_3   0.115582 0.850458 0.446755 -0.795462
H31   H     H_    0.045889 0.889939 0.434702 0.245629
H32   H     H_    0.115061 0.789202 0.484581 0.232624
H33   H     H_    0.129172 0.834224 0.382067 0.250408
N7    N     N_2   0.446932 0.670453 0.894407 -0.303699
H34   H     H_    0.508908 0.695053 0.916214 0.219851
C55   C     C_3   0.367158 0.738321 0.876165 -0.683406
H35   H     H_    0.384031 0.797469 0.845405 0.207959
H36   H     H_    0.347869 0.757447 0.937779 0.243138
H37   H     H_    0.307183 0.714955 0.829268 0.283664
N8    N     N_2   0.630020 0.839065 0.677935 -0.284158
H38   H     H_    0.698073 0.810281 0.691462 0.261891
C56   C     C_3   0.583593 0.822519 0.745694 -0.690666
H39   H     H_    0.549257 0.762364 0.730475 0.263219
H40   H     H_    0.530149 0.878309 0.750767 0.226777
H41   H     H_    0.635156 0.811790 0.810489 0.216941
N9    N     N_2   0.007675 0.716638 0.641922 -0.319013
H42   H     H_    0.966970 0.774693 0.615611 0.218485
C57   C     C_3   0.102194 0.725318 0.688925 -0.741669
H43   H     H_    0.101151 0.773730 0.741102 0.234380
H44   H     H_    0.140304 0.749801 0.643715 0.233077
H45   H     H_    0.138802 0.661097 0.720654 0.284662
F3    F     F_    0.240121 0.544729 0.555428 -0.670041
N10   N     N_2   0.313347 0.339768 0.353196 -0.245638
H46   H     H_    0.325646 0.273031 0.368917 0.206042
C58   C     C_3   0.298004 0.357426 0.259857 -0.749548
H47   H     H_    0.237599 0.326633 0.222346 0.213845
H48   H     H_    0.360642 0.329296 0.238951 0.242061
H49   H     H_    0.285418 0.429614 0.244414 0.253801
F4    F     F_    0.690224 0.651046 0.650461 -0.682919
N11   N     N_2   0.651922 0.591944 0.962935 -0.314265
H50   H     H_    0.708618 0.601787 0.012960 0.293528
C59   C     C_3   0.674672 0.602010 0.879411 -0.746417
H51   H     H_    0.724515 0.650766 0.884579 0.236598
H52   H     H_    0.612013 0.628627 0.827826 0.265456
H53   H     H_    0.707123 0.538439 0.859854 0.253750
F5    F     F_    0.650252 0.568951 0.127485 -0.696997
N12   N     N_2   0.671038 0.418523 0.115292 -0.342786
H54   H     H_    0.730381 0.407614 0.092996 0.212027
C60   C     C_3   0.694329 0.399969 0.209539 -0.729970
H55   H     H_    0.755554 0.348139 0.228530 0.212681
H56   H     H_    0.636769 0.373223 0.228619 0.240069
H57   H     H_    0.712012 0.459462 0.246960 0.286213

loop_
_geom_bond_atom_site_label_1
_geom_bond_atom_site_label_2
_ccdc_geom_bond_type
C19   H6    S    
C10   C27   A    
N4    H22   S    
O1    Zn1   S    
C22   N5    S    
C41   C42   A    
C36   C42   A    
C19   C20   A    
C9    C14   A    
C3    C6    S    
C59   H53   S    
N8    C56   S    
C56   H39   S    
C7    C8    T    
C30   F4    S    
C4    N4    S    
C57   H43   S    
C25   C28   A    
C26   C27   A    
C29   C30   A    
O7    Zn1   S    
C36   C37   A    
C24   C26   A    
C60   H56   S    
C34   O8    A    
N7    H34   S    
C15   C16   A    
C53   H29   S    
C29   C33   A    
C3    C48   S    
C11   C13   A    
C55   H35   S    
C54   H33   S    
C18   C19   A    
C42   C46   A    
C9    C13   A    
N9    H42   S    
C46   N2    A    
O3    Zn1   S    
C29   H9    S    
N11   H50   S    
C53   H28   S    
C52   H24   S    
C57   H45   S    
C8    C12   S    
N5    C53   S    
N1    Zn2   S    
C14   H5    S    
C12   O3    A    
C21   C22   A    
C41   C43   A    
C46   F3    S    
N2    Zn1   S    
N5    H26   S    
C18   C25   A    
O2    Zn2   S    
N8    H38   S    
C57   H44   S    
C43   H14   S    
C37   H12   S    
C47   C50   S    
O8    Zn2   S    
C2    C45   S    
C31   N1    A    
C44   N10   S    
C40   H8    S    
C32   C35   A    
C1    C9    S    
C24   C25   A    
N3    C51   S    
C60   H57   S    
C39   C40   A    
N3    H18   S    
C59   H52   S    
C17   C21   A    
C11   N6    S    
C35   C36   A    
C31   H10   S    
C35   C39   A    
C43   C44   A    
C58   H48   S    
C37   C38   A    
C11   C16   A    
C47   C48   S    
C16   C20   A    
C53   H27   S    
N6    C54   S    
C17   C18   A    
O4    Zn2   S    
C44   N2    A    
C1    O2    A    
C52   H25   S    
C54   H32   S    
C5    H15   S    
C40   C41   A    
C51   H20   S    
N4    C52   S    
N10   H46   S    
C22   C24   A    
C5    C50   S    
C27   F2    S    
C23   O5    A    
C3    C4    S    
C21   N8    S    
C45   N7    S    
C13   H4    S    
C10   C28   A    
C15   C17   A    
C34   C49   S    
C48   N12   S    
C31   C32   A    
C1    O1    A    
C7    C50   S    
C23   O6    A    
C5    H16   S    
C47   H11   S    
C4    H17   S    
C56   H40   S    
N12   H54   S    
C59   H51   S    
C10   C23   S    
C51   H21   S    
C39   H13   S    
C33   C38   A    
C55   H37   S    
C48   F5    S    
C47   N11   S    
C32   C33   A    
C2    C3    S    
C58   H49   S    
C20   H2    S    
C60   H55   S    
N12   C60   S    
N7    C55   S    
C45   C50   S    
N6    H30   S    
C55   H36   S    
C45   F1    S    
C6    C49   T    
C54   H31   S    
C26   H7    S    
N9    C57   S    
C56   H41   S    
C2    N3    S    
C2    H1    S    
C38   N9    S    
C4    C5    S    
N11   C59   S    
C51   H19   S    
O5    Zn1   S    
C34   O7    A    
N10   C58   S    
C14   C15   A    
C52   H23   S    
C12   O4    A    
O6    Zn2   S    
C30   N1    A    
C58   H47   S    
C28   H3    S    
