data_mof_unit_50639.cif
_audit_creation_date              2012-12-11T16:45:31-0500
_audit_creation_method            fapswitch 2.2
_symmetry_space_group_name_H-M    P1
_symmetry_Int_Tables_number       1
_space_group_crystal_system       triclinic
_cell_length_a                    8.313402
_cell_length_b                    17.377701
_cell_length_c                    18.815799
_cell_angle_alpha                 98.576957
_cell_angle_beta                  90.765836
_cell_angle_gamma                 96.837171
_cell_volume                      2667.4213883

loop_
_atom_site_label
_atom_site_type_symbol
_atom_type_description
_atom_site_fract_x
_atom_site_fract_y
_atom_site_fract_z
_atom_type_partial_charge
Ba1   Ba    Ba6+2 0.849550 0.533890 0.465080 1.664864
Ba2   Ba    Ba6+2 0.340280 0.466170 0.534930 1.651559
C1    C     C_3   0.654012 0.808460 0.268986 -0.373398
C2    C     C_R   0.909478 0.419088 0.097164 0.035611
C3    C     C_R   0.762042 0.375218 0.073884 -0.110674
C4    C     C_3   0.104961 0.688620 0.273154 0.345273
C5    C     C_R   0.703637 0.372604 0.003983 -0.090288
C6    C     C_R   0.788725 0.416122 0.955771 -0.011868
C7    C     C_R   0.939826 0.459052 0.978093 -0.040821
C8    C     C_R   0.723413 0.416972 0.886174 0.354742
C9    C     C_R   0.817312 0.453808 0.834523 -0.096340
C10   C     C_R   0.972405 0.496110 0.857295 -0.055528
C11   C     C_R   0.029741 0.500389 0.929840 -0.011776
C12   C     C_3   0.607719 0.728338 0.291043 0.325233
C13   C     C_R   0.764274 0.450325 0.761117 0.010082
C14   C     C_R   0.871648 0.481717 0.712415 -0.299352
C15   C     C_R   0.021921 0.525340 0.734021 0.040625
C16   C     C_3   0.111848 0.709977 0.197677 -0.364343
C17   C     C_R   0.070128 0.535404 0.808341 -0.016407
C18   C     C_R   0.150815 0.503487 0.072934 0.011259
C19   C     C_R   0.211704 0.503324 0.143940 0.001461
C20   C     C_R   0.115071 0.464120 0.192773 -0.041160
C21   C     C_R   0.967050 0.420532 0.167484 -0.045929
C22   C     C_R   0.213181 0.583694 0.835521 -0.041929
C23   C     C_3   0.390339 0.289390 0.316524 0.334687
C24   C     C_R   0.267076 0.588958 0.907439 -0.046518
C25   C     C_R   0.178456 0.545391 0.954305 -0.000380
C26   C     C_R   0.240134 0.546107 0.025432 -0.046227
C27   C     C_R   0.413728 0.634400 0.932177 -0.141178
C28   C     C_3   0.147005 0.726282 0.646296 0.717396
C29   C     C_R   0.479128 0.632569 0.001098 0.412897
C30   C     C_R   0.392262 0.588475 0.048576 -0.023887
C31   C     C_R   0.368706 0.542060 0.165981 -0.061759
C32   C     C_R   0.456284 0.584785 0.117869 -0.104050
C33   C     C_R   0.432817 0.534490 0.234870 0.014425
C34   C     C_3   0.402295 0.284726 0.234878 -0.230744
C35   C     C_R   0.337650 0.491216 0.279220 -0.266185
C36   C     C_R   0.173215 0.466482 0.264346 0.017387
C37   C     C_R   0.387276 0.722426 0.486988 0.168855
C38   C     C_R   0.544825 0.747788 0.515100 0.011906
C39   C     C_R   0.604449 0.827683 0.521124 -0.170668
C40   C     C_3   0.293783 0.790015 0.650430 -0.349989
C41   C     C_R   0.508388 0.881180 0.497955 0.006080
C42   C     C_R   0.354946 0.853817 0.465226 -0.206939
C43   C     C_R   0.294383 0.774232 0.459600 -0.005006
C44   C     C_R   0.586847 0.165160 0.487923 -0.144504
C45   C     C_3   0.019323 0.300022 0.731967 0.314496
C46   C     C_R   0.644568 0.244601 0.490868 0.021273
C47   C     C_R   0.884960 0.226167 0.557829 0.006308
C48   C     C_R   0.825890 0.146675 0.556336 -0.094094
C49   C     C_R   0.675435 0.116078 0.521736 0.020646
C50   C     C_1   0.616125 0.033454 0.516031 -0.003079
C51   C     C_1   0.566737 0.964159 0.508431 0.002096
C52   C     C_3   0.971902 0.281979 0.367224 0.277645
C53   C     C_R   0.791200 0.274991 0.527201 -0.274873
C54   C     C_3   0.930516 0.196460 0.329569 -0.269586
C55   C     C_3   0.703365 0.634695 0.680327 0.366792
C56   C     C_3   0.923872 0.247715 0.779879 -0.258772
C57   C     C_3   0.705451 0.656337 0.761803 -0.374807
C58   C     C_R   0.947631 0.131605 0.373327 -0.009777
C59   C     C_R   0.830500 0.065154 0.363615 -0.041996
C60   C     C_R   0.856661 0.998022 0.392659 -0.047374
C61   C     C_R   0.997209 0.997124 0.433666 -0.061448
C62   C     C_R   0.114770 0.062451 0.443520 -0.068246
C63   C     C_R   0.091975 0.128665 0.412183 -0.051736
C64   C     C_R   0.454888 0.209634 0.195191 0.084405
C65   C     C_R   0.478366 0.205192 0.120921 -0.081248
C66   C     C_R   0.529182 0.138384 0.081198 -0.066880
C67   C     C_3   0.531797 0.260051 0.678998 0.355360
C68   C     C_R   0.555750 0.074612 0.115058 -0.046664
C69   C     C_R   0.530910 0.077504 0.188607 -0.086273
C70   C     C_R   0.480553 0.144367 0.228676 -0.039132
C71   C     C_R   0.003958 0.246224 0.852239 0.029675
C72   C     C_R   0.172168 0.245958 0.860743 -0.065504
C73   C     C_R   0.241120 0.242088 0.928189 -0.082930
C74   C     C_R   0.142841 0.237180 0.987344 -0.054812
C75   C     C_R   0.975527 0.235321 0.979125 -0.057038
C76   C     C_R   0.906386 0.239695 0.912029 -0.045348
C77   C     C_3   0.527169 0.148494 0.801864 0.123971
C78   C     C_3   0.467871 0.175752 0.688066 0.278812
C79   C     C_3   0.455347 0.427594 0.899274 0.226372
C80   C     C_3   0.751174 0.632371 0.998929 0.155098
C81   C     C_3   0.366507 0.602186 0.422332 0.571911
C82   C     C_3   0.974697 0.825013 0.645030 0.161713
C83   C     C_R   0.000002 0.460906 0.049445 0.029367
H1    H     H_    0.633968 0.733151 0.349780 0.055627
H2    H     H_    0.610138 0.583639 0.664577 0.069961
H3    H     H_    0.784667 0.828168 0.281667 0.141888
H4    H     H_    0.806387 0.703307 0.779892 0.150095
H5    H     H_    0.721081 0.604900 0.788339 0.038528
H6    H     H_    0.589002 0.677622 0.778556 0.114912
H7    H     H_    0.476207 0.711488 0.278992 -0.017836
H8    H     H_    0.580798 0.851505 0.298587 0.063424
H9    H     H_    0.302147 0.240454 0.328648 -0.014270
H10   H     H_    0.345708 0.345766 0.337464 0.017711
H11   H     H_    0.281909 0.292368 0.212332 0.050716
H12   H     H_    0.406593 0.762506 0.642831 0.093773
H13   H     H_    0.489362 0.335068 0.223994 0.080732
H14   H     H_    0.630263 0.805529 0.210347 0.135499
H15   H     H_    0.106131 0.656071 0.157472 0.078536
H16   H     H_    0.097043 0.349122 0.765184 0.058771
H17   H     H_    0.929862 0.327246 0.702553 -0.060551
H18   H     H_    0.804361 0.269444 0.789049 0.099525
H19   H     H_    0.899920 0.186722 0.750925 0.149422
H20   H     H_    0.665450 0.265602 0.674909 -0.070014
H21   H     H_    0.478774 0.271156 0.627770 0.045204
H22   H     H_    0.458052 0.139458 0.634095 0.019056
H23   H     H_    0.284204 0.828416 0.608979 0.019652
H24   H     H_    0.994104 0.647239 0.276197 0.116541
H25   H     H_    0.341949 0.172196 0.707812 0.059267
H26   H     H_    0.692660 0.342229 0.109888 0.065169
H27   H     H_    0.592036 0.335111 0.987856 0.095124
H28   H     H_    0.833315 0.475646 0.656494 0.056651
H29   H     H_    0.896167 0.385428 0.201367 0.110911
H30   H     H_    0.286529 0.616812 0.800993 0.107790
H31   H     H_    0.481933 0.669129 0.896990 0.085793
H32   H     H_    0.575527 0.614606 0.133554 0.144665
H33   H     H_    0.212620 0.659141 0.283084 -0.049378
H34   H     H_    0.303831 0.826611 0.704382 0.123744
H35   H     H_    0.392570 0.477983 0.327409 0.009437
H36   H     H_    0.475107 0.141512 0.458238 0.053065
H37   H     H_    0.283179 0.894043 0.444461 0.085000
H38   H     H_    0.897946 0.108780 0.580400 0.068339
H39   H     H_    0.723217 0.848612 0.545234 0.068595
H40   H     H_    0.836358 0.336245 0.528523 0.066457
H41   H     H_    0.007431 0.741538 0.187235 0.148165
H42   H     H_    0.226596 0.747970 0.191698 0.113017
H43   H     H_    0.124161 0.696528 0.589988 0.026291
H44   H     H_    0.720734 0.064259 0.331760 0.048888
H45   H     H_    0.863258 0.303541 0.392309 0.025029
H46   H     H_    0.766817 0.946925 0.384109 0.066481
H47   H     H_    0.015292 0.945617 0.457326 0.074139
H48   H     H_    0.224788 0.061132 0.474436 0.066846
H49   H     H_    0.188393 0.176561 0.417374 0.082199
H50   H     H_    0.457634 0.253888 0.093685 0.045787
H51   H     H_    0.547780 0.136116 0.024115 0.053893
H52   H     H_    0.594973 0.022824 0.084262 0.070825
H53   H     H_    0.550545 0.027750 0.214628 0.063370
H54   H     H_    0.462310 0.144041 0.285389 0.062822
H55   H     H_    0.250058 0.249192 0.815604 0.126516
H56   H     H_    0.071162 0.288006 0.408198 0.033689
H57   H     H_    0.370564 0.242291 0.934564 0.060367
H58   H     H_    0.195495 0.233940 0.039438 0.062233
H59   H     H_    0.899185 0.230215 0.024747 0.065306
H60   H     H_    0.776245 0.237790 0.906836 0.055853
H61   H     H_    0.406140 0.114410 0.805174 0.036456
H62   H     H_    0.526699 0.210543 0.826784 0.093629
H63   H     H_    0.614856 0.122459 0.833167 0.066161
H64   H     H_    0.486608 0.488857 0.889411 0.024688
H65   H     H_    0.444236 0.426946 0.957806 -0.002692
H66   H     H_    0.334353 0.405465 0.873811 0.090868
H67   H     H_    0.805853 0.190321 0.305540 0.110442
H68   H     H_    0.749519 0.618154 0.939206 0.023038
H69   H     H_    0.744081 0.577753 0.023521 0.026179
H70   H     H_    0.869236 0.667354 0.016386 0.083938
H71   H     H_    0.438828 0.556377 0.432891 0.083015
H72   H     H_    0.406563 0.637343 0.379499 -0.315356
H73   H     H_    0.266246 0.564211 0.397051 0.048610
H74   H     H_    0.050582 0.877984 0.673168 0.022989
H75   H     H_    0.847062 0.834593 0.654945 0.085047
H76   H     H_    0.993574 0.819092 0.586211 0.031258
H77   H     H_    0.011812 0.185994 0.283491 0.115796
H78   H     H_    0.823342 0.619059 0.663202 -0.003916
O1    O     O_2   0.878040 0.448040 0.325130 -0.441200
O2    O     O_2   0.223469 0.230786 0.555598 -0.514010
O3    O     O_3   0.117765 0.254906 0.686254 -0.608552
O4    O     O_3   0.126800 0.453980 0.414370 -0.510178
O5    O     O_3   0.569440 0.593820 0.536390 -0.484989
O6    O     O_2   0.359400 0.311980 0.465480 -0.485679
O7    O     O_3   0.543393 0.285745 0.347218 -0.651533
O8    O     O_2   0.426281 0.459849 0.754987 -0.483345
O9    O     O_3   0.485431 0.313356 0.736710 -0.571722
O10   O     O_3   0.651020 0.589120 0.368830 -0.495134
O11   O     O_2   0.767936 0.532082 0.243195 -0.492275
O12   O     O_3   0.668343 0.699868 0.650124 -0.621355
O13   O     O_3   0.020577 0.324251 0.312099 -0.656538
O14   O     O_3   0.698279 0.674110 0.252068 -0.605199
O15   O     O_2   0.830300 0.688050 0.534560 -0.467034
O16   O     O_3   0.068750 0.630380 0.404830 -0.476765
O17   O     O_2   0.953681 0.768198 0.444424 -0.498852
O18   O     O_3   0.577221 0.143693 0.730260 -0.656441
O19   O     O_3   0.569188 0.379028 0.868850 -0.644056
O20   O     O_3   0.625644 0.676874 0.022625 -0.641444
O21   O     O_3   0.321851 0.645836 0.486463 -0.671790
O22   O     O_3   0.006635 0.757742 0.674274 -0.647186
O23   O     O_3   0.100993 0.757081 0.323001 -0.607830
O24   O     O_2   0.311660 0.551990 0.674910 -0.459985
O25   O     O_3   0.062910 0.546080 0.585630 -0.484377
O26   O     O_3   0.538690 0.410940 0.631180 -0.488755
O27   O     O_3   0.190640 0.675298 0.692161 -0.642927
O28   O     O_3   0.620260 0.406250 0.463620 -0.455262
O29   O     O_3   0.120960 0.369680 0.595180 -0.459628
P1    P     P_3+3 0.048060 0.426210 0.336320 0.967736
P2    P     P_3+3 0.655920 0.678120 0.556130 1.015372
P3    P     P_3+3 0.102151 0.733113 0.410233 0.981565
P4    P     P_3+3 0.141640 0.573850 0.663690 1.004987
P5    P     P_3+3 0.086441 0.268754 0.596971 0.953359
P6    P     P_3+3 0.635088 0.581143 0.274193 0.944164
P7    P     P_3+3 0.539348 0.308260 0.441206 0.934851
P8    P     P_3+3 0.556197 0.409226 0.722853 0.991791

loop_
_geom_bond_atom_site_label_1
_geom_bond_atom_site_label_2
_ccdc_geom_bond_type
C23   O7    S    
C43   P3    S    
C46   C53   A    
C45   H16   S    
O24   P4    D    
Ba2   O6    S    
O4    P1    S    
C71   C72   A    
C65   H50   S    
Ba2   O26   S    
C73   C74   A    
C14   H28   S    
C82   H75   S    
C5    C6    A    
O16   P3    S    
C75   C76   A    
C42   C43   A    
C10   C11   A    
O15   P2    D    
C78   H22   S    
Ba1   O10   S    
C24   C25   A    
C35   C36   A    
C39   H39   S    
C33   C35   A    
O28   P7    S    
C77   H61   S    
C34   C64   S    
C40   H34   S    
C55   C57   S    
C19   C31   A    
Ba1   O4    S    
C79   H65   S    
C20   C36   A    
C1    H14   S    
C54   H77   S    
C5    H27   S    
Ba1   Ba2   S    
C57   H4    S    
C52   O13   S    
C7    C11   A    
Ba2   O24   S    
C76   H60   S    
C7    C83   A    
C55   O12   S    
C80   H68   S    
C9    C13   A    
C41   C51   S    
C70   H54   S    
C64   C70   A    
C53   H40   S    
Ba1   O1    S    
C14   C15   A    
C55   H78   S    
C71   C76   A    
C44   H36   S    
C68   C69   A    
O13   P1    S    
C54   H67   S    
O12   P2    S    
C37   O21   S    
C59   H44   S    
C37   C43   A    
C32   H32   S    
C64   C65   A    
O10   P6    S    
C23   H9    S    
C45   H17   S    
O5    P2    S    
C19   C20   A    
C39   C41   A    
C82   O22   S    
C16   H15   S    
C79   O19   S    
C52   H45   S    
O7    P7    S    
C82   H74   S    
C48   C49   A    
C69   H53   S    
C44   C46   A    
C79   H64   S    
C4    C16   S    
C28   H43   S    
O11   P6    D    
C72   C73   A    
C46   P7    S    
C65   C66   A    
C28   O22   S    
O23   P3    S    
C66   H51   S    
C74   C75   A    
C12   H1    S    
C40   H12   S    
C37   C38   A    
C3    C5    A    
C2    C21   A    
C67   H20   S    
O1    P1    D    
C6    C7    A    
C38   P2    S    
C2    C83   A    
C18   C26   A    
Ba1   O5    S    
C78   O18   S    
C79   H66   S    
C72   H55   S    
C80   O20   S    
C45   C56   S    
C49   C50   S    
C58   C59   A    
C67   O9    S    
C30   C32   A    
Ba1   P1    S    
C41   C42   A    
C60   C61   A    
C73   H57   S    
O2    P5    D    
C16   H42   S    
Ba1   O15   S    
C34   H11   S    
C29   C30   A    
C81   H72   S    
C26   C30   A    
C9    C10   A    
C18   C83   A    
C31   C32   A    
C1    H8    S    
C57   H6    S    
O29   P5    S    
C47   P5    S    
O17   P3    D    
C12   H7    S    
C1    C12   S    
C68   H52   S    
C80   H70   S    
Ba1   O28   S    
O26   P8    S    
C66   C68   A    
C38   C39   A    
C27   H31   S    
C58   C63   A    
C23   H10   S    
O14   P6    S    
C55   H2    S    
C4    H24   S    
O8    P8    D    
C56   H19   S    
C15   C17   A    
Ba2   O5    S    
C50   C51   T    
C35   H35   S    
Ba1   O25   S    
C45   O3    S    
C62   H48   S    
Ba2   O29   S    
C29   O20   S    
C1    H3    S    
C60   H46   S    
C28   C40   S    
C48   H38   S    
C63   H49   S    
C22   C24   A    
C2    C3    A    
C67   C78   S    
C77   H62   S    
C67   H21   S    
C52   C54   S    
C77   H63   S    
C81   H71   S    
O27   P4    S    
C56   C71   S    
C3    H26   S    
C4    O23   S    
C36   P1    S    
O6    P7    D    
C62   C63   A    
Ba2   O4    S    
C17   C22   A    
O3    P5    S    
C69   C70   A    
C27   C29   A    
C47   C53   A    
C16   H41   S    
C21   H29   S    
C13   P8    S    
Ba1   O16   S    
C81   H73   S    
C8    O19   S    
C44   C49   A    
C10   C17   A    
C42   H37   S    
C31   C33   A    
C61   H47   S    
C81   O21   S    
O9    P8    S    
Ba2   P4    S    
C28   O27   S    
C59   C60   A    
Ba2   O25   S    
C22   H30   S    
C75   H59   S    
C12   O14   S    
C8    C9    A    
C23   C34   S    
C61   C62   A    
C80   H69   S    
C74   H58   S    
C77   O18   S    
C52   H56   S    
C54   C58   S    
C18   C19   A    
O25   P4    S    
C24   C27   A    
C6    C8    A    
C47   C48   A    
C78   H25   S    
C25   C26   A    
C20   C21   A    
C11   C25   A    
C15   P4    S    
C34   H13   S    
C56   H18   S    
C40   H23   S    
Ba2   O28   S    
C57   H5    S    
C82   H76   S    
C13   C14   A    
C33   P6    S    
C4    H33   S    
Ba1   P2    S    
