data_mof_unit_35142.cif
_audit_creation_date              2012-12-10T17:33:02-0500
_audit_creation_method            fapswitch 2.2
_symmetry_space_group_name_H-M    P1
_symmetry_Int_Tables_number       1
_space_group_crystal_system       triclinic
_cell_length_a                    15.522409
_cell_length_b                    15.489225
_cell_length_c                    17.888389
_cell_angle_alpha                 90.211659
_cell_angle_beta                  109.443384
_cell_angle_gamma                 68.450439
_cell_volume                      3737.5107241

loop_
_atom_site_label
_atom_site_type_symbol
_atom_type_description
_atom_site_fract_x
_atom_site_fract_y
_atom_site_fract_z
_atom_type_partial_charge
C1    C     C_R   0.463040 0.740692 0.531463 0.493010
C2    C     C_R   0.602523 0.410291 0.082679 -0.100940
C3    C     C_R   0.653381 0.348750 0.041001 -0.149127
C4    C     C_R   0.533380 0.260024 0.468261 0.479383
C5    C     C_R   0.630313 0.372239 0.959747 0.050931
C6    C     C_R   0.558650 0.461957 0.920132 0.033934
C7    C     C_R   0.679145 0.306998 0.917806 -0.129878
C8    C     C_R   0.656497 0.329055 0.836416 -0.123813
C9    C     C_R   0.536820 0.482227 0.837584 -0.123333
C10   C     C_R   0.312410 0.992793 0.523143 0.019678
C11   C     C_R   0.441710 0.838966 0.539431 0.013411
C12   C     C_R   0.377261 0.688935 0.174031 0.192419
C13   C     C_R   0.645850 0.104848 0.454489 -0.132159
C14   C     C_R   0.677502 0.008068 0.462031 -0.148178
C15   C     C_R   0.621024 0.964584 0.479388 -0.121858
C16   C     C_R   0.757600 0.447968 0.532284 0.521922
C17   C     C_R   0.528330 0.017871 0.486319 0.032500
C18   C     C_R   0.492615 0.117016 0.471403 0.030172
C19   C     C_R   0.469480 0.976202 0.506556 0.010512
C20   C     C_R   0.372544 0.033899 0.505022 0.057456
C21   C     C_R   0.336450 0.130645 0.482187 -0.142135
C22   C     C_R   0.394824 0.171078 0.465236 -0.124141
C23   C     C_R   0.463269 0.527351 0.157641 0.200554
C24   C     C_R   0.503252 0.878601 0.526528 -0.143003
C25   C     C_R   0.347921 0.895400 0.538990 -0.115632
C26   C     C_R   0.555013 0.160060 0.461369 0.021268
C27   C     C_R   0.024278 0.387590 0.654674 0.031125
C28   C     C_R   0.241629 0.552898 0.469296 0.483539
C29   C     C_R   0.862591 0.426821 0.550241 0.014774
C30   C     C_R   0.068444 0.616803 0.374579 -0.131143
C31   C     C_R   0.972897 0.618704 0.348053 -0.148283
C32   C     C_R   0.943715 0.572589 0.395622 -0.119420
C33   C     C_R   0.008694 0.526712 0.473623 0.043771
C34   C     C_R   0.468237 0.558349 0.085177 -0.032425
C35   C     C_R   0.103924 0.531092 0.502389 0.030194
C36   C     C_R   0.982256 0.477293 0.524098 0.002559
C37   C     C_R   0.049683 0.436778 0.603630 0.015371
C38   C     C_R   0.139149 0.450037 0.631640 -0.142075
C39   C     C_R   0.164687 0.497315 0.582757 -0.122189
C40   C     C_R   0.560426 0.440154 0.711649 0.493970
C41   C     C_R   0.889340 0.469953 0.498852 -0.188733
C42   C     C_R   0.930701 0.381646 0.626426 0.262563
C43   C     C_R   0.135884 0.570662 0.450435 0.017073
C44   C     C_R   0.441139 0.560330 0.287565 0.535269
C45   C     C_R   0.411926 0.653724 0.051877 -0.034260
C46   C     C_R   0.424439 0.592864 0.204595 0.028796
C47   C     C_R   0.585455 0.416558 0.796661 0.043712
C48   C     C_R   0.366446 0.717586 0.096438 -0.127180
C49   C     C_3   0.255429 0.788602 0.887375 -0.017216
C50   C     C_3   0.194926 0.892007 0.855935 -0.371750
C51   C     C_3   0.208325 0.049133 0.521594 -0.277614
C52   C     C_3   0.210039 0.098987 0.595523 -0.440897
C53   C     C_3   0.905711 0.251924 0.655790 -0.016589
C54   C     C_3   0.871877 0.207652 0.710418 -0.368163
C55   C     C_3   0.092813 0.345807 0.740632 -0.257415
C56   C     C_R   0.525404 0.497321 0.044161 0.029902
C57   C     C_3   0.178606 0.254644 0.744286 -0.455108
C58   C     C_3   0.404578 0.796474 0.255261 0.002065
C59   C     C_3   0.358256 0.873885 0.299416 -0.352560
C60   C     C_3   0.411959 0.406555 0.145149 -0.007566
C61   C     C_3   0.442108 0.304047 0.174487 -0.362318
C62   C     C_R   0.509966 0.526968 0.963963 -0.021197
C63   C     C_R   0.449435 0.621302 0.931283 -0.121460
C64   C     C_R   0.401754 0.684282 0.974541 0.262621
H1    H     H_    0.734353 0.238689 0.947907 0.106611
H2    H     H_    0.191154 0.424931 0.692137 0.115764
H3    H     H_    0.832837 0.502661 0.441436 0.107295
H4    H     H_    0.090897 0.648133 0.334184 0.138665
H5    H     H_    0.869444 0.575203 0.369316 0.102449
H6    H     H_    0.921873 0.653551 0.288832 0.118919
H7    H     H_    0.232384 0.508763 0.609928 0.139211
H8    H     H_    0.694177 0.278044 0.804430 0.102803
H9    H     H_    0.711048 0.282110 0.072653 0.105327
H10   H     H_    0.324889 0.791025 0.072495 0.175654
H11   H     H_    0.441728 0.650169 0.873605 0.118284
H12   H     H_    0.300647 0.862477 0.547846 0.106673
H13   H     H_    0.628621 0.389889 0.146337 0.182167
H14   H     H_    0.214460 0.763001 0.916619 0.128061
H15   H     H_    0.262483 0.750263 0.835529 0.123070
H16   H     H_    0.233203 0.919531 0.825515 0.158095
H17   H     H_    0.120727 0.901496 0.812448 0.091656
H18   H     H_    0.185327 0.932152 0.906185 0.155916
H19   H     H_    0.247781 0.046817 0.650364 0.153329
H20   H     H_    0.249071 0.147242 0.600469 0.159819
H21   H     H_    0.132751 0.140422 0.591458 0.128513
H22   H     H_    0.164196 0.100011 0.466110 0.136765
H23   H     H_    0.262315 0.176987 0.476558 0.116642
H24   H     H_    0.167657 0.002763 0.520122 0.134908
H25   H     H_    0.982933 0.205119 0.662909 0.117314
H26   H     H_    0.856158 0.257216 0.592964 0.131137
H27   H     H_    0.794238 0.252238 0.703467 0.155673
H28   H     H_    0.875562 0.137300 0.694623 0.092552
H29   H     H_    0.920530 0.200138 0.773735 0.154025
H30   H     H_    0.150093 0.199635 0.723002 0.143377
H31   H     H_    0.220111 0.264035 0.707210 0.155905
H32   H     H_    0.230560 0.230412 0.807143 0.140880
H33   H     H_    0.121081 0.397218 0.772019 0.123483
H34   H     H_    0.574565 0.830580 0.527676 0.105255
H35   H     H_    0.052790 0.330235 0.776483 0.195671
H36   H     H_    0.423937 0.828290 0.210605 0.119722
H37   H     H_    0.473560 0.743492 0.299510 0.124211
H38   H     H_    0.335794 0.845434 0.343331 0.194691
H39   H     H_    0.412614 0.904332 0.331709 0.096824
H40   H     H_    0.291833 0.930057 0.256189 0.148823
H41   H     H_    0.391101 0.414872 0.078884 0.132040
H42   H     H_    0.346378 0.448847 0.160828 0.121965
H43   H     H_    0.462362 0.293743 0.240460 0.171111
H44   H     H_    0.379469 0.282100 0.145889 0.090614
H45   H     H_    0.694338 0.136373 0.446059 0.131859
H46   H     H_    0.506716 0.259796 0.158863 0.156062
H47   H     H_    0.651636 0.889273 0.485495 0.101186
H48   H     H_    0.747995 0.966116 0.456873 0.116018
H49   H     H_    0.360799 0.245552 0.445041 0.141273
H50   H     H_    0.479935 0.546963 0.802583 0.085002
O1    O     O_3   0.500000 0.500000 0.500000 -0.443862
O2    O     O_R   0.596500 0.492780 0.688380 -0.528925
O3    O     O_R   0.388780 0.611210 0.325000 -0.510342
O4    O     O_R   0.499860 0.410860 0.661600 -0.544749
O5    O     O_R   0.514860 0.485140 0.325020 -0.500367
O6    O     O_3   0.349504 0.777715 0.942435 -0.564238
O7    O     O_3   0.901231 0.340944 0.677076 -0.557994
O8    O     O_3   0.336536 0.755127 0.217859 -0.532805
O9    O     O_3   0.492423 0.433094 0.182079 -0.555319
O10   O     O_R   0.707110 0.418540 0.472990 -0.558407
O11   O     O_R   0.267620 0.606720 0.435250 -0.547239
O12   O     O_R   0.540230 0.674660 0.578090 -0.535622
O13   O     O_R   0.485030 0.300080 0.513670 -0.543923
O14   O     O_R   0.403610 0.721990 0.472930 -0.555848
O15   O     O_R   0.571130 0.303270 0.435320 -0.547360
O16   O     O_R   0.717650 0.497270 0.578120 -0.506629
O17   O     O_R   0.307610 0.477470 0.513630 -0.547622
Zn1   Zn    Zn3+2 0.572030 0.427990 0.434470 0.936198
Zn2   Zn    Zn3+2 0.587090 0.540470 0.584680 0.953708
Zn3   Zn    Zn3+2 0.449010 0.423430 0.546420 0.919473
Zn4   Zn    Zn3+2 0.391880 0.608100 0.434430 0.933904

loop_
_geom_bond_atom_site_label_1
_geom_bond_atom_site_label_2
_ccdc_geom_bond_type
C40   C47   S    
C40   O4    A    
C21   H23   S    
C34   C56   A    
C29   C42   A    
C60   O9    S    
C19   C20   A    
C18   C26   A    
O13   Zn3   S    
C12   C48   A    
O17   Zn3   S    
C6    C9    A    
C7    C8    A    
C41   H3    S    
C53   C54   S    
C14   H48   S    
C5    C6    A    
C62   C63   A    
C63   H11   S    
C24   H34   S    
C9    H50   S    
C36   C37   A    
C30   C31   A    
C27   C55   S    
C49   O6    S    
C61   H46   S    
C11   C24   A    
C33   C36   A    
C49   H14   S    
O10   Zn1   S    
C52   H20   S    
C61   H44   S    
C54   H29   S    
C13   H45   S    
C17   C19   A    
C22   H49   S    
C38   H2    S    
O12   Zn2   S    
C10   C20   A    
C57   H32   S    
C1    C11   S    
C1    O14   A    
C35   C43   A    
O4    Zn3   S    
O15   Zn1   S    
O11   Zn4   S    
C23   C46   A    
C13   C14   A    
C36   C41   A    
C61   H43   S    
C10   C51   S    
C51   H22   S    
C44   C46   S    
O5    Zn1   S    
O1    Zn1   S    
C31   H6    S    
C38   C39   A    
C8    H8    S    
C58   O8    S    
C51   C52   S    
C48   H10   S    
C58   H36   S    
C1    O12   A    
C12   C46   A    
O14   Zn4   S    
C5    C7    A    
C23   O9    S    
O2    Zn2   S    
O1    Zn2   S    
C44   O5    A    
C16   C29   S    
C49   H15   S    
C60   C61   S    
C52   H19   S    
C35   C39   A    
C54   H28   S    
C37   C38   A    
C15   H47   S    
C7    H1    S    
C31   C32   A    
C23   C34   A    
C55   H33   S    
C17   C18   A    
C58   H37   S    
C32   H5    S    
C34   C45   A    
C30   C43   A    
C10   C25   A    
C9    C47   A    
C57   H30   S    
C55   C57   S    
C53   H25   S    
C56   C62   A    
C13   C26   A    
O16   Zn2   S    
C59   H40   S    
O3    Zn4   S    
C60   H42   S    
C28   O11   A    
C50   H18   S    
C45   C48   A    
C15   C17   A    
C52   H21   S    
C39   H7    S    
C28   C43   S    
C4    O13   A    
C29   C41   A    
C18   C22   A    
C59   H38   S    
C3    C5    A    
C50   H16   S    
C51   H24   S    
C4    C26   S    
C4    O15   A    
O1    Zn3   S    
C45   C64   A    
C64   O6    S    
C28   O17   A    
C59   H39   S    
C32   C33   A    
C6    C62   A    
C2    C3    A    
C58   C59   S    
C8    C47   A    
C54   H27   S    
C2    H13   S    
C53   O7    S    
C27   C42   A    
C40   O2    A    
O1    Zn4   S    
C44   O3    A    
C27   C37   A    
C33   C35   A    
C19   C24   A    
C16   O10   A    
C3    H9    S    
C63   C64   A    
C12   O8    S    
C20   C21   A    
C42   O7    S    
C25   H12   S    
C49   C50   S    
C57   H31   S    
C55   H35   S    
C53   H26   S    
C11   C25   A    
C14   C15   A    
C2    C56   A    
C16   O16   A    
C21   C22   A    
C30   H4    S    
C60   H41   S    
C50   H17   S    
