data_mof_unit_41051.cif
_audit_creation_date              2013-03-05T15:48:30-0500
_audit_creation_method            fapswitch 2.2
_symmetry_space_group_name_H-M    P1
_symmetry_Int_Tables_number       1
_space_group_crystal_system       monoclinic
_cell_length_a                    20.019241
_cell_length_b                    7.3208
_cell_length_c                    13.9261
_cell_angle_alpha                 90.0
_cell_angle_beta                  103.087687
_cell_angle_gamma                 90.0
_cell_volume                      1987.95069405

loop_
_atom_site_label
_atom_site_type_symbol
_atom_site_description
_atom_site_fract_x
_atom_site_fract_y
_atom_site_fract_z
_atom_type_partial_charge
O1    O     O_R   0.449830 0.506740 0.599960 -0.589627
O2    O     O_R   0.550170 0.006740 0.400040 -0.589626
O3    O     O_R   0.588980 0.179860 0.596720 -0.569013
O4    O     O_R   0.411020 0.679860 0.403280 -0.569013
C1    C     C_R   0.615142 0.343791 0.618852 0.954160
C2    C     C_R   0.384858 0.843791 0.381148 0.954159
O5    O     O_R   0.452740 0.177340 0.612040 -0.581040
O6    O     O_R   0.547260 0.677340 0.387960 -0.581040
O7    O     O_R   0.412960 0.002070 0.415460 -0.600132
O8    O     O_R   0.587040 0.502070 0.584540 -0.600132
C3    C     C_R   0.435333 0.345631 0.634563 0.915626
C4    C     C_R   0.564667 0.845631 0.365437 0.915626
O9    O     O_3   0.487110 0.337570 0.435490 -0.272844
O10   O     O_3   0.512890 0.837570 0.564510 -0.272844
V1    V     V_3+5 0.502390 0.064650 0.511970 1.214552
V2    V     V_3+5 0.497610 0.564650 0.488030 1.214551
C5    C     C_R   0.612001 0.933409 0.126949 -0.145021
C6    C     C_R   0.387999 0.433408 0.873051 -0.145021
H1    H     H_    0.517710 0.914642 0.173994 0.126187
H2    H     H_    0.482290 0.414641 0.826006 0.126187
H3    H     H_    0.693941 0.981727 0.009122 0.187998
H4    H     H_    0.306059 0.481726 0.990878 0.187998
H5    H     H_    0.586073 0.967604 0.052009 0.143474
H6    H     H_    0.413927 0.467603 0.947991 0.143474
C7    C     C_R   0.605377 0.857796 0.292117 -0.073295
C8    C     C_R   0.394623 0.357796 0.707882 -0.073295
C9    C     C_R   0.935830 0.838048 0.316566 -0.137260
C10   C     C_R   0.064170 0.338049 0.683434 -0.137260
C11   C     C_R   0.901568 0.826416 0.392962 -0.016972
C12   C     C_R   0.098432 0.326416 0.607038 -0.016972
C13   C     C_R   0.830207 0.837906 0.373622 -0.142254
C14   C     C_R   0.169793 0.337906 0.626377 -0.142253
C15   C     C_R   0.791432 0.866935 0.276709 0.073029
C16   C     C_R   0.208568 0.366935 0.723291 0.073028
C17   C     C_R   0.827658 0.886884 0.200077 0.098514
C18   C     C_R   0.172342 0.386884 0.799923 0.098514
C19   C     C_R   0.718044 0.878160 0.252667 0.096975
C20   C     C_R   0.281956 0.378160 0.747333 0.096976
C21   C     C_R   0.683681 0.922253 0.154680 0.173064
C22   C     C_R   0.316319 0.422252 0.845320 0.173063
C23   C     C_R   0.720789 0.953238 0.083930 -0.184694
C24   C     C_R   0.279211 0.453237 0.916070 -0.184694
C25   C     C_R   0.791459 0.933034 0.105597 -0.168661
C26   C     C_R   0.208541 0.433034 0.894403 -0.168661
C27   C     C_R   0.677071 0.845385 0.321151 -0.242171
C28   C     C_R   0.322929 0.345385 0.678848 -0.242171
C29   C     C_R   0.573041 0.902000 0.195617 -0.148969
C30   C     C_R   0.426958 0.402000 0.804383 -0.148969
C31   C     C_R   0.899623 0.862324 0.219197 -0.167050
C32   C     C_R   0.100377 0.362324 0.780803 -0.167050
H7    H     H_    0.699079 0.811317 0.397119 0.119552
H8    H     H_    0.300921 0.311318 0.602881 0.119552
H9    H     H_    0.990917 0.832725 0.334018 0.171544
H10   H     H_    0.009083 0.332725 0.665982 0.171544
H11   H     H_    0.806984 0.828789 0.436101 0.158249
H12   H     H_    0.193016 0.328789 0.563899 0.158249
H13   H     H_    0.930641 0.808515 0.467997 0.171398
H14   H     H_    0.069359 0.308516 0.532002 0.171398
H15   H     H_    0.817691 0.947194 0.046313 0.167492
H16   H     H_    0.182309 0.447194 0.953687 0.167492
C33   C     C_3   0.236146 0.726849 0.155462 -0.187184
C34   C     C_3   0.763854 0.226849 0.844538 -0.187183
H17   H     H_    0.221305 0.595457 0.175665 0.239050
H18   H     H_    0.778695 0.095457 0.824335 0.239050
C35   C     C_3   0.312702 0.748773 0.211835 0.020070
C36   C     C_3   0.687297 0.248773 0.788165 0.020071
H19   H     H_    0.341228 0.836001 0.169526 0.140147
H20   H     H_    0.658772 0.336002 0.830474 0.140147
H21   H     H_    0.264725 0.608198 0.360496 0.214143
H22   H     H_    0.735275 0.108198 0.639504 0.214143
C37   C     C_3   0.185477 0.815128 0.305148 0.347223
C38   C     C_3   0.814523 0.315128 0.694852 0.347223
C39   C     C_3   0.227628 0.053989 0.198232 0.415788
C40   C     C_3   0.772372 0.553989 0.801768 0.415788
C41   C     C_3   0.187159 0.866916 0.192730 -0.227652
C42   C     C_3   0.812841 0.366916 0.807270 -0.227652
C43   C     C_3   0.314454 0.847847 0.311614 -0.085215
C44   C     C_3   0.685546 0.347847 0.688386 -0.085215
C45   C     C_3   0.259502 0.759366 0.361211 -0.439241
C46   C     C_3   0.740498 0.259366 0.638789 -0.439240
C47   C     C_3   0.292820 0.048164 0.283811 -0.471588
C48   C     C_3   0.707180 0.548164 0.716189 -0.471587
H23   H     H_    0.335483 0.120769 0.261604 0.222596
H24   H     H_    0.664517 0.620770 0.738396 0.222596
H25   H     H_    0.284321 0.120192 0.350327 0.219144
H26   H     H_    0.715679 0.620192 0.649673 0.219144
H27   H     H_    0.269298 0.799322 0.440171 0.178577
H28   H     H_    0.730702 0.299321 0.559829 0.178577
O11   O     O_R   0.912980 0.203550 0.915410 -0.569720
O12   O     O_R   0.087020 0.703550 0.084590 -0.569719
O13   O     O_R   0.047270 0.535570 0.887960 -0.589389
O14   O     O_R   0.952730 0.035570 0.112040 -0.589389
C49   C     C_R   0.062210 0.368455 0.860798 0.927533
C50   C     C_R   0.937790 0.868455 0.139202 0.927533
O15   O     O_R   0.911030 0.532970 0.903270 -0.554630
O16   O     O_R   0.088970 0.032970 0.096730 -0.554630
O17   O     O_R   0.949820 0.708150 0.099970 -0.566430
O18   O     O_R   0.050180 0.208150 0.900030 -0.566430
C51   C     C_R   0.885301 0.366414 0.878487 0.937440
C52   C     C_R   0.114699 0.866414 0.121513 0.937440
O19   O     O_3   0.012900 0.375230 0.064480 -0.257153
O20   O     O_3   0.987100 0.875230 0.935520 -0.257153
V3    V     V_3+5 0.997610 0.648190 0.988040 1.262697
V4    V     V_3+5 0.002390 0.148190 0.011960 1.262697
N1    N     N_3   0.229007 0.717819 0.048108 -0.204846
H29   H     H_    0.273066 0.761280 0.026558 0.161307
H30   H     H_    0.187329 0.789746 0.006908 0.145275
N2    N     N_3   0.770993 0.217819 0.951892 -0.204846
H31   H     H_    0.726934 0.261282 0.973442 0.161307
H32   H     H_    0.812671 0.289744 0.993092 0.145275
I1    I     I_    0.367404 0.495242 0.211968 -0.423070
I2    I     I_    0.632596 0.995242 0.788032 -0.423071
I3    I     I_    0.109430 0.625459 0.328158 -0.358538
I4    I     I_    0.890570 0.125459 0.671842 -0.358538
I5    I     I_    0.173646 0.288566 0.214129 -0.314108
I6    I     I_    0.826354 0.788566 0.785871 -0.314108
I7    I     I_    0.257564 0.129704 0.065753 -0.493022
I8    I     I_    0.742436 0.629704 0.934247 -0.493022
I9    I     I_    0.149688 0.013273 0.398242 -0.422015
I10   I     I_    0.850312 0.513273 0.601758 -0.422016

loop_
_geom_bond_atom_site_label_1
_geom_bond_atom_site_label_2
_geom_bond_distance
_ccdc_geom_bond_type
C36   H20   1.110607 S    
C28   H8    1.079095 S    
C9    C11   1.392862 A    
C23   C25   1.386069 A    
O1    C3    1.330742 A    
C38   C42   1.618547 S    
O2    C4    1.330742 A    
C17   C25   1.392343 A    
C2    O7    1.328810 A    
C37   C45   1.564709 S    
O3    V1    2.045160 S    
C21   C23   1.380415 A    
C33   C41   1.585265 S    
C42   C51   1.560875 S    
O5    C3    1.336864 A    
N1    H30   1.042024 S    
C5    H5    1.084393 S    
C40   C42   1.584209 S    
O11   C51   1.365265 A    
C6    H6    1.084393 S    
O15   C51   1.338155 A    
C34   N2    1.470753 S    
C27   H7    1.079095 S    
C38   I4    2.137605 S    
N2    H31   1.043632 S    
C37   I3    2.137605 S    
C33   H17   1.063265 S    
C5    C21   1.401444 A    
C39   C47   1.555967 S    
O12   C52   1.365266 A    
C6    C22   1.401442 A    
C35   I1    2.154810 S    
C34   H18   1.063265 S    
C10   C32   1.396607 A    
C35   H19   1.110605 S    
C17   C31   1.416019 A    
C13   C15   1.412354 A    
C31   C50   1.487396 S    
C12   C14   1.395075 A    
C33   N1    1.470754 S    
C7    C29   1.391320 A    
C16   C18   1.427119 A    
C8    C30   1.391320 A    
O5    V1    2.058624 S    
O6    V2    2.058625 S    
C46   H28   1.111521 S    
C39   C41   1.584209 S    
C34   C42   1.585265 S    
C24   C26   1.386069 A    
C40   C48   1.555968 S    
C40   I8    2.137949 S    
C45   H27   1.111521 S    
C47   H23   1.107810 S    
O15   V3    2.045154 S    
C43   C45   1.565547 S    
C36   C44   1.560774 S    
C37   C41   1.618549 S    
C35   C43   1.560775 S    
C34   C36   1.563980 S    
H22   C46   1.111854 S    
C39   I7    2.137947 S    
O4    C2    1.317742 A    
C10   H10   1.074868 S    
C2    C43   1.518868 S    
C3    C8    1.446213 S    
C48   H26   1.111940 S    
C15   C19   1.433361 A    
C14   C16   1.412356 A    
O4    V2    2.045160 S    
O13   C49   1.334362 A    
C44   C48   1.553096 S    
O14   V4    2.058657 S    
C43   C47   1.553097 S    
O6    C4    1.336864 A    
C40   I6    2.067440 S    
C38   I10   2.172303 S    
O14   C50   1.334361 A    
H1    C29   1.084051 S    
O1    V2    2.049291 S    
H2    C30   1.084051 S    
O20   V4    2.252211 S    
O2    V1    2.049291 S    
O17   V3    2.052576 S    
H3    C23   1.078936 S    
C11   H13   1.082781 S    
O19   V4    1.808907 S    
C48   H24   1.107813 S    
O16   V4    2.045156 S    
O11   V4    2.021381 S    
H21   C45   1.111854 S    
C19   C27   1.412189 A    
C7    C27   1.403168 A    
C18   C32   1.416019 A    
O19   V3    2.252211 S    
C16   C20   1.433361 A    
C5    C29   1.383260 A    
O13   V3    2.058656 S    
O3    C1    1.317742 A    
C6    C30   1.383261 A    
C9    H9    1.074868 S    
C32   C49   1.487394 S    
C25   H15   1.079107 S    
N1    H29   1.043632 S    
O16   C52   1.338155 A    
C50   O17   1.339148 A    
C37   I9    2.172304 S    
C4    C7    1.446214 S    
C13   H11   1.077423 S    
C10   C12   1.392863 A    
O7    V1    2.032673 S    
C1    O8    1.328809 A    
C11   C13   1.395077 A    
O8    V2    2.032676 S    
C39   I5    2.067439 S    
C20   C22   1.419279 A    
H4    C24   1.078936 S    
C26   H16   1.079107 S    
O18   V4    2.052577 S    
C12   H14   1.082782 S    
C22   C24   1.380415 A    
C41   C52   1.560875 S    
C15   C17   1.427119 A    
N2    H32   1.042026 S    
C44   C46   1.565547 S    
O20   V3    1.808908 S    
O12   V3    2.021380 S    
C20   C28   1.412187 A    
C18   C26   1.392342 A    
C8    C28   1.403170 A    
C33   C35   1.563980 S    
C19   C21   1.419279 A    
C38   C46   1.564709 S    
O9    V2    1.809276 S    
O10   V1    1.809276 S    
C36   I2    2.154811 S    
C1    C44   1.518869 S    
C49   O18   1.339149 A    
C14   H12   1.077425 S    
C47   H25   1.111940 S    
C9    C31   1.396608 A    
