data_mof_unit_24833.cif
_audit_creation_date              2012-12-10T17:49:40-0500
_audit_creation_method            fapswitch 2.2
_symmetry_space_group_name_H-M    P1
_symmetry_Int_Tables_number       1
_space_group_crystal_system       triclinic
_cell_length_a                    14.717242
_cell_length_b                    14.636351
_cell_length_c                    15.879963
_cell_angle_alpha                 76.839929
_cell_angle_beta                  102.825239
_cell_angle_gamma                 115.028325
_cell_volume                      2987.28401094

loop_
_atom_site_label
_atom_site_type_symbol
_atom_type_description
_atom_site_fract_x
_atom_site_fract_y
_atom_site_fract_z
_atom_type_partial_charge
C1    C     C_R   0.880231 0.311845 0.513566 0.818610
C2    C     C_3   0.054056 0.430469 0.075150 -0.426378
C3    C     C_3   0.000276 0.498379 0.083309 0.199273
C4    C     C_3   0.056096 0.608163 0.037460 -0.375350
C5    C     C_3   0.055784 0.607978 0.939845 -0.356210
C6    C     C_1   0.000602 0.499037 0.175397 -0.051483
C7    C     C_1   0.998892 0.499201 0.824833 -0.019085
C8    C     C_1   0.999063 0.499826 0.749197 -0.111296
C9    C     C_R   0.812870 0.203595 0.513466 -0.118065
C10   C     C_R   0.187451 0.798460 0.472980 -0.138446
C11   C     C_R   0.785689 0.026827 0.516890 -0.015214
C12   C     C_R   0.999762 0.500053 0.659646 0.830686
C13   C     C_R   0.851161 0.128977 0.521511 -0.221235
C14   C     C_R   0.708528 0.176252 0.500176 -0.136342
C15   C     C_R   0.640594 0.077985 0.484703 0.089700
C16   C     C_R   0.679278 0.000931 0.496955 0.074760
C17   C     C_R   0.534620 0.053860 0.461166 -0.060549
C18   C     C_R   0.466837 0.949741 0.466687 0.005408
C19   C     C_R   0.506909 0.875284 0.475583 -0.179079
C20   C     C_R   0.610655 0.901072 0.487198 -0.154500
C21   C     C_R   0.493739 0.129629 0.429705 0.609817
C22   C     C_R   0.389970 0.103453 0.418180 -0.248818
C23   C     C_R   0.119804 0.688654 0.486010 0.800114
C24   C     C_R   0.323649 0.002206 0.436080 0.024981
C25   C     C_R   0.361007 0.924053 0.460141 0.087278
C26   C     C_R   0.220075 0.978814 0.429717 -0.172899
C27   C     C_R   0.151575 0.878284 0.449331 -0.021771
C28   C     C_R   0.291688 0.823131 0.479619 -0.219793
C29   C     C_R   0.717142 0.670730 0.357041 0.493641
C30   C     C_R   0.797742 0.639898 0.378946 0.013116
C31   C     C_R   0.714341 0.508163 0.487581 0.084579
C32   C     C_R   0.626697 0.531441 0.465236 -0.054497
C33   C     C_R   0.631830 0.617622 0.400597 0.019882
C34   C     C_R   0.000254 0.499973 0.340345 0.824432
C35   C     C_R   0.536505 0.475532 0.506087 -0.004187
C36   C     C_R   0.457544 0.513668 0.486794 0.019403
C37   C     C_R   0.468683 0.601880 0.424157 -0.215968
C38   C     C_R   0.552898 0.651258 0.381039 -0.128385
C39   C     C_R   0.520262 0.381740 0.563381 0.582293
C40   C     C_R   0.436082 0.334125 0.606924 -0.239743
C41   C     C_R   0.361707 0.373246 0.592040 0.050310
C42   C     C_R   0.369329 0.461630 0.530080 -0.023849
C43   C     C_R   0.277395 0.321919 0.636558 -0.249187
C44   C     C_R   0.199451 0.356439 0.617844 0.103597
C45   C     C_3   0.055991 0.431683 0.977223 -0.240188
C46   C     C_R   0.286492 0.492258 0.513402 0.048365
C47   C     C_3   0.888934 0.457307 0.937975 0.489177
C48   C     C_3   0.889953 0.455458 0.036197 -0.381266
C49   C     C_1   0.000621 0.499510 0.250852 -0.150363
C50   C     C_3   0.999122 0.497834 0.917484 0.103730
Cu1   Cu    Cu3+1 0.081750 0.475690 0.522550 0.956361
Cu2   Cu    Cu3+1 0.918250 0.524310 0.477450 1.004580
H1    H     H_    0.015024 0.351604 0.108621 0.208603
H2    H     H_    0.136809 0.469811 0.966066 0.162895
H3    H     H_    0.133171 0.459208 0.109631 0.178417
H4    H     H_    0.018552 0.658226 0.042633 0.194951
H5    H     H_    0.635685 0.841067 0.488968 0.187709
H6    H     H_    0.317993 0.762199 0.502296 0.156474
H7    H     H_    0.361373 0.163315 0.395305 0.180198
H8    H     H_    0.932402 0.149903 0.533696 0.186090
H9    H     H_    0.681476 0.232619 0.504523 0.248096
H10   H     H_    0.459532 0.796582 0.469772 0.132027
H11   H     H_    0.192685 0.039807 0.411628 0.166333
H12   H     H_    0.556733 0.717933 0.332781 0.197295
H13   H     H_    0.283524 0.555971 0.465023 0.116844
H14   H     H_    0.133185 0.315475 0.650622 0.138336
H15   H     H_    0.427518 0.263501 0.651153 0.180717
H16   H     H_    0.863657 0.680624 0.345688 0.164601
H17   H     H_    0.722726 0.452081 0.541929 0.217414
H18   H     H_    0.412855 0.634822 0.405949 0.123083
H19   H     H_    0.270841 0.254245 0.684295 0.153135
H20   H     H_    0.844583 0.379372 0.921005 0.137201
H21   H     H_    0.849142 0.375709 0.066955 0.160966
H22   H     H_    0.848746 0.501207 0.043457 0.213855
H23   H     H_    0.135240 0.640007 0.925964 0.166631
H24   H     H_    0.019160 0.658851 0.898255 0.232751
H25   H     H_    0.135660 0.640552 0.070254 0.176921
N1    N     N_R   0.795410 0.560790 0.443550 -0.234819
N2    N     N_R   0.204590 0.439170 0.556520 -0.186974
O1    O     O_R   0.977910 0.338120 0.529720 -0.592602
O2    O     O_R   0.839850 0.379180 0.491640 -0.565622
O3    O     O_R   0.069060 0.479460 0.639610 -0.576203
O4    O     O_R   0.931000 0.520530 0.601530 -0.560769
O5    O     O_R   0.160150 0.620820 0.508360 -0.593712
O6    O     O_R   0.022090 0.661880 0.470280 -0.562123
O7    O     O_R   0.069000 0.479470 0.398470 -0.579764
O8    O     O_R   0.930940 0.520540 0.360390 -0.569178
C51   C     C_2   0.044720 0.862011 0.446366 0.882083
O9    O     O_2   0.001061 0.816210 0.509904 -0.563295
O10   O     O_R   0.995428 0.903278 0.371906 -0.735907
H26   H     H_    0.922475 0.886680 0.377032 0.373726
C52   C     C_2   0.832053 0.950454 0.535070 0.840228
O11   O     O_2   0.911805 0.972413 0.508643 -0.572422
O12   O     O_R   0.788272 0.855944 0.586248 -0.757423
H27   H     H_    0.827775 0.811451 0.594235 0.362614
C53   C     C_2   0.016597 0.324422 0.955886 0.845023
O13   O     O_2   0.068894 0.300572 0.922194 -0.576070
O14   O     O_R   0.921808 0.252405 0.975645 -0.778914
H28   H     H_    0.904734 0.183860 0.958275 0.351232
F1    F     F_    0.551490 0.228212 0.401602 -0.655358
F2    F     F_    0.722933 0.752472 0.294084 -0.663819
F3    F     F_    0.840087 0.518628 0.887644 -0.645939
F4    F     F_    0.580157 0.329523 0.574280 -0.685482

loop_
_geom_bond_atom_site_label_1
_geom_bond_atom_site_label_2
_ccdc_geom_bond_type
C10   C27   A    
C41   C42   A    
C36   C42   A    
C19   C20   A    
C26   H11   S    
C3    C6    S    
C7    C8    T    
C13   H8    S    
C25   C28   A    
C26   C27   A    
C29   C30   A    
C36   C37   A    
C24   C26   A    
C2    H3    S    
C42   C46   A    
C46   N2    A    
C19   H10   S    
C1    O2    A    
C15   C16   A    
C29   C33   A    
C3    C48   S    
C18   C19   A    
C34   O7    A    
C9    C13   A    
Cu1   O1    S    
C44   H14   S    
C11   C52   S    
C35   C36   A    
C40   H15   S    
C53   O14   S    
C47   C48   S    
C16   C20   A    
C47   F3    S    
C21   C22   A    
C4    H4    S    
C41   C43   A    
O12   H27   S    
C18   C25   A    
Cu2   N1    S    
Cu1   O7    S    
C47   C50   S    
C38   H12   S    
Cu2   O8    S    
C2    C45   S    
C23   O5    A    
C12   O3    A    
Cu1   Cu2   S    
C32   C35   A    
C48   H22   S    
C1    C9    S    
C24   C25   A    
C46   H13   S    
C39   C40   A    
C9    C14   A    
C14   H9    S    
C17   C21   A    
C12   O4    A    
C5    H23   S    
Cu2   O4    S    
C35   C39   A    
C43   C44   A    
C37   C38   A    
C11   C16   A    
C31   C32   A    
C8    C12   S    
C53   O13   D    
C52   O12   S    
C17   C18   A    
C29   F2    S    
Cu1   O3    S    
C40   C41   A    
C51   O10   S    
C45   H2    S    
C22   C24   A    
C5    C50   S    
C3    C4    S    
C22   H7    S    
C31   N1    A    
C10   C28   A    
C15   C17   A    
Cu2   O6    S    
C34   C49   S    
C43   H19   S    
C21   F1    S    
C48   H21   S    
C44   N2    A    
C7    C50   S    
C4    C5    S    
C2    H1    S    
Cu2   O2    S    
C39   F4    S    
C28   H6    S    
C10   C23   S    
C33   C38   A    
C32   C33   A    
C5    H24   S    
C2    C3    S    
C4    H25   S    
C11   C13   A    
O10   H26   S    
C45   C50   S    
C52   O11   D    
C34   O8    A    
C6    C49   T    
C27   C51   S    
Cu1   N2    S    
C47   H20   S    
C30   N1    A    
C31   H17   S    
C51   O9    D    
O14   H28   S    
C23   O6    A    
C1    O1    A    
C14   C15   A    
C20   H5    S    
C37   H18   S    
C45   C53   S    
Cu1   O5    S    
C30   H16   S    
