data_mof_unit_65989.cif
_audit_creation_date              2012-12-10T18:27:37-0500
_audit_creation_method            fapswitch 2.2
_symmetry_space_group_name_H-M    P1
_symmetry_Int_Tables_number       1
_space_group_crystal_system       triclinic
_cell_length_a                    16.098609
_cell_length_b                    17.275235
_cell_length_c                    19.348625
_cell_angle_alpha                 91.646696
_cell_angle_beta                  92.22889
_cell_angle_gamma                 95.250857
_cell_volume                      5351.53704878

loop_
_atom_site_label
_atom_site_type_symbol
_atom_type_description
_atom_site_fract_x
_atom_site_fract_y
_atom_site_fract_z
_atom_type_partial_charge
C1    C     C_R   0.490210 0.349658 0.498272 0.859942
C2    C     C_R   0.509790 0.650342 0.501728 0.859944
C3    C     C_R   0.488134 0.264789 0.492161 -0.176197
C4    C     C_R   0.511866 0.735211 0.507839 -0.176198
C5    C     C_R   0.563506 0.229927 0.490390 -0.160963
C6    C     C_R   0.436494 0.770073 0.509610 -0.160963
C7    C     C_R   0.563398 0.149927 0.481551 0.250034
C8    C     C_R   0.436603 0.850073 0.518449 0.250033
C9    C     C_R   0.486968 0.103437 0.476164 -0.124827
C10   C     C_R   0.513032 0.896563 0.523835 -0.124826
C11   C     C_R   0.411438 0.137864 0.476781 0.678601
C12   C     C_R   0.588562 0.862136 0.523218 0.678600
C13   C     C_R   0.412029 0.218293 0.484782 -0.248380
C14   C     C_R   0.587971 0.781706 0.515217 -0.248379
C15   C     C_2   0.485061 0.018844 0.473084 0.564680
C16   C     C_2   0.514939 0.981156 0.526916 0.564680
C17   C     C_R   0.750452 0.459487 0.467575 0.490172
C18   C     C_R   0.249547 0.540513 0.532424 0.490175
C19   C     C_R   0.836097 0.456172 0.473788 -0.207848
C20   C     C_R   0.163903 0.543828 0.526211 -0.207849
C21   C     C_R   0.884253 0.506628 0.519812 0.089029
C22   C     C_R   0.115747 0.493372 0.480187 0.089028
C23   C     C_R   0.500275 0.500078 0.367577 0.861317
C24   C     C_R   0.499724 0.499922 0.632423 0.861315
C25   C     C_R   0.844305 0.558392 0.561660 -0.180209
C26   C     C_R   0.155695 0.441609 0.438339 -0.180209
C27   C     C_R   0.757196 0.559118 0.555361 0.041002
C28   C     C_R   0.242804 0.440883 0.444638 0.041000
C29   C     C_2   0.974975 0.499634 0.527644 0.173433
C30   C     C_2   0.025025 0.500367 0.472356 0.173433
C31   C     C_R   0.424443 0.482752 0.253005 -0.272694
C32   C     C_R   0.575558 0.517241 0.746995 -0.272693
C33   C     C_R   0.421710 0.482928 0.180893 0.312498
C34   C     C_R   0.578291 0.517065 0.819107 0.312496
C35   C     C_R   0.495962 0.500388 0.145785 -0.112064
C36   C     C_R   0.504038 0.499610 0.854215 -0.112063
C37   C     C_R   0.571387 0.518432 0.184146 -0.229209
C38   C     C_R   0.428612 0.481573 0.815854 -0.229210
C39   C     C_R   0.573808 0.518186 0.256192 0.670534
C40   C     C_R   0.426190 0.481818 0.743809 0.670535
C41   C     C_R   0.500078 0.500068 0.291383 -0.216748
C42   C     C_R   0.499922 0.499932 0.708617 -0.216751
C43   C     C_R   0.502966 0.499347 0.930130 0.471141
C44   C     C_R   0.497034 0.500651 0.069870 0.471141
Cu1   Cu    Cu3+1 0.415410 0.495980 0.496480 1.034087
Cu2   Cu    Cu3+1 0.584590 0.504020 0.503520 1.034087
H1    H     H_    0.366735 0.469343 0.279005 0.209080
H2    H     H_    0.633267 0.530645 0.720996 0.209082
H3    H     H_    0.274052 0.402039 0.411757 0.146323
H4    H     H_    0.725948 0.597962 0.588243 0.146323
H5    H     H_    0.879970 0.597162 0.599104 0.189612
H6    H     H_    0.120030 0.402839 0.400895 0.189612
H7    H     H_    0.135027 0.586595 0.556926 0.197253
H8    H     H_    0.864973 0.413405 0.443074 0.197253
H9    H     H_    0.629051 0.532169 0.158144 0.212825
H10   H     H_    0.370946 0.467840 0.841856 0.212824
H11   H     H_    0.623010 0.264657 0.495202 0.216629
H12   H     H_    0.376991 0.735343 0.504799 0.216629
H13   H     H_    0.646852 0.756016 0.514693 0.202858
H14   H     H_    0.353148 0.243983 0.485306 0.202857
N1    N     N_R   0.548864 0.553638 0.038249 -0.191202
N2    N     N_R   0.451136 0.446360 0.961750 -0.191199
N3    N     N_R   0.551399 0.553259 0.969626 -0.148093
N4    N     N_R   0.448601 0.446739 0.030374 -0.148090
N5    N     N_R   0.711660 0.510070 0.508820 -0.212094
N6    N     N_R   0.288340 0.489930 0.491180 -0.212094
O1    O     O_R   0.420280 0.382610 0.496690 -0.587527
O2    O     O_R   0.579720 0.617390 0.503310 -0.587525
O3    O     O_R   0.563150 0.389410 0.502640 -0.572661
O4    O     O_R   0.436850 0.610590 0.497360 -0.572661
O5    O     O_R   0.428540 0.496590 0.397170 -0.607495
O6    O     O_R   0.571460 0.503410 0.602830 -0.607495
O7    O     O_R   0.571410 0.503390 0.403120 -0.491118
O8    O     O_R   0.428590 0.496610 0.596880 -0.491118
Br1   Br    Br    0.693135 0.388902 0.399689 -0.379404
Br2   Br    Br    0.306864 0.611098 0.600311 -0.379396
Br3   Br    Br    0.985119 0.523752 0.380679 -0.384556
Br4   Br    Br    0.014881 0.476248 0.619321 -0.384556
Br5   Br    Br    0.313763 0.464072 0.134419 -0.350560
Br6   Br    Br    0.686240 0.535913 0.865581 -0.350559
F1    F     F_    0.648129 0.536803 0.290982 -0.594928
F2    F     F_    0.351868 0.463208 0.709018 -0.594926
F3    F     F_    0.550181 0.020794 0.584171 -0.594739
F4    F     F_    0.449819 0.979206 0.415828 -0.594738
F5    F     F_    0.337286 0.093421 0.471240 -0.567585
F6    F     F_    0.662714 0.906578 0.528758 -0.567586
Br7   Br    Br    0.330904 0.892559 0.525476 -0.259956
Br8   Br    Br    0.669096 0.107441 0.474524 -0.259955

loop_
_geom_bond_atom_site_label_1
_geom_bond_atom_site_label_2
_ccdc_geom_bond_type
Cu1   O5    S    
C24   C42   S    
C6    H12   S    
C2    C4    S    
C43   N3    A    
C39   C41   A    
C13   H14   S    
Cu1   Cu2   S    
C44   N4    A    
C14   H13   S    
C35   C37   A    
C2    O2    A    
C15   C16   D    
N1    N3    A    
Cu2   O3    S    
N2    N4    A    
C34   Br6   S    
C30   Br3   S    
C29   Br4   S    
Cu1   O1    S    
C31   C33   A    
C22   C30   S    
Cu2   O6    S    
C3    C13   A    
C27   H4    S    
C40   C42   A    
C31   H1    S    
C32   H2    S    
C23   O7    A    
C40   F2    S    
C39   F1    S    
Cu2   N5    S    
C4    C6    A    
C5    C7    A    
C33   Br5   S    
C6    C8    A    
C21   C29   S    
C16   F3    S    
C1    O3    A    
Cu1   O8    S    
C1    C3    S    
C32   C34   A    
C28   N6    A    
C25   H5    S    
Cu2   O2    S    
C29   C30   D    
C27   N5    A    
C26   H6    S    
C28   H3    S    
C7    Br8   S    
C35   C44   S    
C9    C11   A    
C10   C12   A    
C19   H8    S    
C12   C14   A    
C25   C27   A    
C17   C19   A    
C24   O6    A    
C7    C9    A    
C21   C25   A    
C18   Br2   S    
C31   C41   A    
C19   C21   A    
Cu1   O4    S    
C17   N5    A    
C20   C22   A    
C20   H7    S    
C3    C5    A    
C15   F4    S    
C1    O1    A    
C5    H11   S    
C44   N1    A    
C18   N6    A    
C26   C28   A    
C23   C41   S    
C12   F6    S    
C8    Br7   S    
C36   C38   A    
C9    C15   S    
C37   C39   A    
C10   C16   S    
C38   C40   A    
C11   C13   A    
C24   O8    A    
C11   F5    S    
C33   C35   A    
C34   C36   A    
C18   C20   A    
C4    C14   A    
C37   H9    S    
C38   H10   S    
C23   O5    A    
C8    C10   A    
C22   C26   A    
Cu1   N6    S    
C17   Br1   S    
C32   C42   A    
C36   C43   S    
C2    O4    A    
Cu2   O7    S    
C43   N2    A    
