data_mof_unit_20515.cif
_audit_creation_date              2012-12-10T17:48:21-0500
_audit_creation_method            fapswitch 2.2
_symmetry_space_group_name_H-M    P1
_symmetry_Int_Tables_number       1
_space_group_crystal_system       triclinic
_cell_length_a                    13.839483
_cell_length_b                    14.709706
_cell_length_c                    14.726922
_cell_angle_alpha                 115.116855
_cell_angle_beta                  106.512709
_cell_angle_gamma                 71.448172
_cell_volume                      2534.32850394

loop_
_atom_site_label
_atom_site_type_symbol
_atom_type_description
_atom_site_fract_x
_atom_site_fract_y
_atom_site_fract_z
_atom_type_partial_charge
C1    C     C_R   0.518416 0.118474 0.688301 0.807452
C2    C     C_R   0.483437 0.881314 0.311695 0.808091
C3    C     C_R   0.541664 0.355837 0.924177 0.065251
C4    C     C_R   0.507580 0.639207 0.077810 0.066494
C5    C     C_R   0.578022 0.313162 0.001547 0.093477
C6    C     C_R   0.488708 0.680090 0.000695 0.096848
C7    C     C_R   0.527539 0.463541 0.949707 0.083950
C8    C     C_R   0.533668 0.530455 0.053157 0.083295
C9    C     C_R   0.568538 0.486316 0.128721 -0.212883
C10   C     C_R   0.511123 0.505794 0.875020 -0.232303
C11   C     C_R   0.591479 0.380478 0.103422 -0.242879
C12   C     C_R   0.493502 0.611102 0.900119 -0.243350
C13   C     C_R   0.324420 0.299904 0.331392 -0.325340
C14   C     C_R   0.679977 0.696164 0.663339 -0.329612
C15   C     C_R   0.352964 0.216140 0.361737 0.071713
C16   C     C_R   0.646676 0.783772 0.638554 0.073641
C17   C     C_R   0.489692 0.283572 0.486358 0.021396
C18   C     C_R   0.513326 0.714253 0.510139 0.020832
C19   C     C_R   0.465947 0.370714 0.457934 -0.030328
C20   C     C_R   0.543245 0.622131 0.531424 -0.030459
C21   C     C_R   0.380692 0.377845 0.378228 0.106311
C22   C     C_R   0.631045 0.612912 0.608335 0.105651
C23   C     C_R   0.687481 0.986756 0.505270 0.827470
C24   C     C_R   0.312484 0.013474 0.495086 0.827183
C25   C     C_R   0.522703 0.450758 0.506511 0.049522
C26   C     C_R   0.489624 0.539708 0.479153 0.050033
C27   C     C_R   0.404831 0.542901 0.399418 -0.268340
C28   C     C_R   0.613234 0.443018 0.579468 -0.276869
C29   C     C_R   0.352236 0.463342 0.348106 0.000246
C30   C     C_R   0.667983 0.521137 0.628978 -0.002077
C31   C     C_1   0.205972 0.021712 0.489928 -0.179404
C32   C     C_1   0.793940 0.979337 0.511630 -0.178105
C33   C     C_2   0.010526 0.032285 0.483852 -0.027496
C34   C     C_2   0.989170 0.970411 0.519293 -0.028519
C35   C     C_1   0.883387 0.973890 0.516409 -0.043855
C36   C     C_1   0.116458 0.028029 0.486091 -0.047745
C37   C     C_R   0.537186 0.184115 0.796531 -0.108908
C38   C     C_R   0.479870 0.814072 0.203719 -0.109760
C39   C     C_R   0.600258 0.204349 0.975154 0.156278
C40   C     C_R   0.465776 0.788812 0.025917 0.157763
C41   C     C_R   0.579240 0.141410 0.871772 -0.189156
C42   C     C_R   0.463316 0.854147 0.128497 -0.188050
C43   C     C_R   0.517471 0.290145 0.823259 -0.266598
C44   C     C_R   0.497979 0.708223 0.177396 -0.255615
Cu1   Cu    Cu3+1 0.526370 0.916390 0.524860 0.933604
Cu2   Cu    Cu3+1 0.473630 0.083610 0.475140 0.932907
H1    H     H_    0.257863 0.303042 0.271745 0.154566
H2    H     H_    0.743912 0.694550 0.725682 0.155345
H3    H     H_    0.378419 0.605843 0.372688 0.140692
H4    H     H_    0.646680 0.373975 0.596494 0.145355
H5    H     H_    0.618394 0.352716 0.165557 0.136181
H6    H     H_    0.482953 0.637208 0.838751 0.141899
H7    H     H_    0.502632 0.681365 0.236359 0.156625
H8    H     H_    0.480001 0.320535 0.763866 0.160547
H9    H     H_    0.448762 0.936731 0.151286 0.169918
H10   H     H_    0.595048 0.058666 0.848440 0.168000
H11   H     H_    0.583573 0.531187 0.208958 0.142934
H12   H     H_    0.515988 0.458736 0.796211 0.139078
H13   H     H_    0.448813 0.727562 0.452566 0.126347
H14   H     H_    0.551159 0.273233 0.547494 0.124897
H15   H     H_    0.686064 0.846365 0.679916 0.126002
H16   H     H_    0.310031 0.156141 0.324444 0.128407
N1    N     N_R   0.433980 0.209250 0.437830 -0.176536
N2    N     N_R   0.566020 0.790750 0.562170 -0.176126
O1    O     O_R   0.534760 0.019630 0.662610 -0.592334
O2    O     O_R   0.465240 0.980370 0.337390 -0.591507
O3    O     O_R   0.490220 0.160840 0.620610 -0.587218
O4    O     O_R   0.509780 0.839160 0.379390 -0.587170
O5    O     O_R   0.663260 0.919400 0.523940 -0.577976
O6    O     O_R   0.336740 0.080600 0.476060 -0.579030
O7    O     O_R   0.618720 0.060610 0.481950 -0.573491
O8    O     O_R   0.381280 0.939390 0.518050 -0.573053
C45   C     C_R   0.071197 0.898529 0.563174 0.144637
C46   C     C_R   0.069754 0.793548 0.524817 -0.158473
C47   C     C_R   0.146792 0.725583 0.565344 -0.150497
C48   C     C_R   0.225775 0.761680 0.644346 -0.101918
C49   C     C_R   0.226944 0.866149 0.684137 -0.134349
C50   C     C_R   0.149580 0.934561 0.644586 -0.130360
H17   H     H_    0.009694 0.764142 0.462832 0.124376
H18   H     H_    0.145551 0.644746 0.535147 0.129586
H19   H     H_    0.285734 0.708839 0.675085 0.122301
H20   H     H_    0.287653 0.894229 0.745830 0.132547
H21   H     H_    0.150833 0.015560 0.677439 0.123717
C51   C     C_R   0.928233 0.105122 0.441160 0.135327
C52   C     C_R   0.930629 0.209894 0.479779 -0.137228
C53   C     C_R   0.852465 0.278971 0.441582 -0.124942
C54   C     C_R   0.771034 0.244521 0.365231 -0.116458
C55   C     C_R   0.768690 0.140405 0.325304 -0.137456
C56   C     C_R   0.847612 0.070632 0.361768 -0.131493
H22   H     H_    0.992278 0.238290 0.540171 0.131990
H23   H     H_    0.854776 0.359335 0.471191 0.130374
H24   H     H_    0.710061 0.298388 0.336673 0.122915
H25   H     H_    0.705670 0.113751 0.266074 0.133170
H26   H     H_    0.845400 0.989879 0.328535 0.124326
C57   C     C_3   0.646968 0.157339 0.057252 -0.417199
C58   C     C_3   0.681484 0.039542 0.019277 -0.863210
H27   H     H_    0.614341 0.003767 0.977600 0.252630
H28   H     H_    0.739863 0.011494 0.969247 0.254443
H29   H     H_    0.717556 0.014800 0.085147 0.243324
H30   H     H_    0.716775 0.187354 0.103724 0.209000
H31   H     H_    0.589742 0.182430 0.107888 0.195848
C59   C     C_3   0.445381 0.832940 0.943309 -0.411366
C60   C     C_3   0.416312 0.950652 0.977646 -0.874798
H32   H     H_    0.343495 0.982578 0.009326 0.254763
H33   H     H_    0.479521 0.984659 0.035254 0.253111
H34   H     H_    0.403888 0.972922 0.911272 0.241705
H35   H     H_    0.515733 0.804467 0.908076 0.204663
H36   H     H_    0.380671 0.803899 0.883534 0.199924
C61   C     C_R   0.266867 0.473205 0.262745 0.108864
C62   C     C_R   0.178760 0.554280 0.281347 -0.158989
C63   C     C_R   0.098873 0.565165 0.201040 -0.130150
C64   C     C_R   0.106801 0.495772 0.101551 -0.110904
C65   C     C_R   0.194936 0.415661 0.082089 -0.136493
C66   C     C_R   0.275062 0.404482 0.162336 -0.148765
H37   H     H_    0.172048 0.608836 0.357935 0.133515
H38   H     H_    0.030906 0.627525 0.215932 0.126941
H39   H     H_    0.044692 0.504517 0.039728 0.121887
H40   H     H_    0.201238 0.362394 0.004852 0.124622
H41   H     H_    0.343370 0.342639 0.146425 0.129790
C67   C     C_R   0.767961 0.500008 0.696781 0.117119
C68   C     C_R   0.772273 0.469665 0.776704 -0.147602
C69   C     C_R   0.867527 0.441315 0.834818 -0.132817
C70   C     C_R   0.959119 0.442365 0.813230 -0.116428
C71   C     C_R   0.955570 0.473030 0.734447 -0.138217
C72   C     C_R   0.860554 0.501651 0.676357 -0.169689
H42   H     H_    0.702074 0.466984 0.793250 0.131225
H43   H     H_    0.870414 0.417524 0.895915 0.129593
H44   H     H_    0.032963 0.418850 0.857037 0.114855
H45   H     H_    0.026572 0.473579 0.717656 0.128722
H46   H     H_    0.859268 0.523480 0.614372 0.123882

loop_
_geom_bond_atom_site_label_1
_geom_bond_atom_site_label_2
_ccdc_geom_bond_type
C7    C10   A    
C54   C55   A    
C27   C29   A    
C45   C46   A    
C23   O5    A    
C57   C58   S    
C4    C8    A    
C24   O6    A    
C70   C71   A    
C39   C41   A    
C52   C53   A    
C25   C28   A    
C3    C43   A    
C26   C27   A    
C20   C26   A    
C29   C61   S    
C10   H12   S    
Cu2   O2    S    
C3    C7    A    
C53   H23   S    
C6    C12   A    
C64   H39   S    
C58   H29   S    
C69   H43   S    
C33   C36   S    
C34   C35   S    
C56   H26   S    
C62   C63   A    
C1    O3    A    
C28   H4    S    
C72   H46   S    
C63   C64   A    
C8    C9    A    
C58   H28   S    
C1    O1    A    
C45   C50   A    
C59   H36   S    
C63   H38   S    
C17   H14   S    
C47   H18   S    
C18   C20   A    
C66   H41   S    
C49   C50   A    
C40   C42   A    
C54   H24   S    
Cu1   O8    S    
C44   H7    S    
C64   C65   A    
C12   H6    S    
C46   C47   A    
Cu1   O5    S    
C32   C35   T    
C23   O7    A    
C7    C8    A    
C6    C40   A    
C48   C49   A    
C4    C6    A    
C13   H1    S    
C53   C54   A    
C14   H2    S    
C4    C44   A    
C3    C5    A    
C25   C26   A    
Cu1   Cu2   S    
C21   C29   A    
C37   C43   A    
C47   C48   A    
C41   H10   S    
C38   C44   A    
C42   H9    S    
C2    C38   S    
C43   H8    S    
C58   H27   S    
Cu1   O4    S    
C33   C34   D    
C68   C69   A    
C13   C21   A    
C59   H35   S    
C60   H33   S    
C51   C52   A    
C9    C11   A    
C39   C57   S    
Cu2   O7    S    
C10   C12   A    
C61   C66   A    
C20   C22   A    
C46   H17   S    
C13   C15   A    
Cu1   O1    S    
C14   C16   A    
C51   C56   A    
C67   C68   A    
C24   O8    A    
C65   C66   A    
C55   H25   S    
C22   C30   A    
C19   C21   A    
C57   H30   S    
C2    O2    A    
C48   H19   S    
C50   H21   S    
C52   H22   S    
C5    C11   A    
C1    C37   S    
Cu1   N2    S    
C2    O4    A    
Cu2   N1    S    
C23   C32   S    
C14   C22   A    
C5    C39   A    
C24   C31   S    
Cu2   O3    S    
C61   C62   A    
C17   N1    A    
C18   N2    A    
C70   H44   S    
C30   C67   S    
C49   H20   S    
C28   C30   A    
C17   C19   A    
C15   H16   S    
C71   H45   S    
C60   H34   S    
C9    H11   S    
C67   C72   A    
C37   C41   A    
C59   C60   S    
C19   C25   A    
C33   C51   S    
Cu2   O6    S    
C11   H5    S    
C34   C45   S    
C40   C59   S    
C65   H40   S    
C38   C42   A    
C57   H31   S    
C18   H13   S    
C68   H42   S    
C55   C56   A    
C16   H15   S    
C60   H32   S    
C15   N1    A    
C31   C36   T    
C16   N2    A    
C69   C70   A    
C62   H37   S    
C27   H3    S    
C71   C72   A    
