data_mof_unit_29089.cif
_audit_creation_date              2012-12-10T16:50:11-0500
_audit_creation_method            fapswitch 2.2
_symmetry_space_group_name_H-M    P1
_symmetry_Int_Tables_number       1
_space_group_crystal_system       triclinic
_cell_length_a                    23.494818
_cell_length_b                    8.683133
_cell_length_c                    7.455254
_cell_angle_alpha                 103.723137
_cell_angle_beta                  94.298817
_cell_angle_gamma                 92.087337
_cell_volume                      1471.05350055

loop_
_atom_site_label
_atom_site_type_symbol
_atom_type_description
_atom_site_fract_x
_atom_site_fract_y
_atom_site_fract_z
_atom_type_partial_charge
C1    C     C_R   0.498277 0.199408 0.452641 0.888552
C2    C     C_R   0.501723 0.800592 0.547359 0.888552
C3    C     C_R   0.234329 0.498496 0.348427 -0.107335
C4    C     C_R   0.765672 0.501498 0.651568 -0.107339
C5    C     C_R   0.293432 0.496511 0.344363 -0.211478
C6    C     C_R   0.706568 0.503479 0.655633 -0.211475
C7    C     C_R   0.328569 0.503241 0.507475 -0.035189
C8    C     C_R   0.671431 0.496762 0.492524 -0.035189
C9    C     C_R   0.303497 0.513162 0.674823 -0.223216
C10   C     C_R   0.696502 0.486860 0.325179 -0.223211
C11   C     C_R   0.244296 0.514918 0.678478 -0.121948
C12   C     C_R   0.755703 0.485107 0.321523 -0.121944
C13   C     C_R   0.209390 0.506534 0.515041 0.338298
C14   C     C_R   0.790610 0.493478 0.484956 0.338307
C15   C     C_2   0.497457 0.031031 0.426439 -0.365078
C16   C     C_2   0.502543 0.968969 0.573561 -0.365078
C17   C     C_R   0.391000 0.500624 0.502418 0.796491
C18   C     C_R   0.609000 0.499376 0.497582 0.796491
C19   C     C_R   0.883584 0.627925 0.582787 0.512474
C20   C     C_R   0.116416 0.372090 0.417207 0.512473
C21   C     C_R   0.877136 0.366757 0.386521 0.502257
C22   C     C_R   0.122863 0.633258 0.613473 0.502257
C23   C     C_R   0.936951 0.355336 0.412175 -0.058210
C24   C     C_R   0.063049 0.644680 0.587818 -0.058209
C25   C     C_R   0.969995 0.497655 0.497370 -0.032999
C26   C     C_R   0.030004 0.502360 0.502622 -0.033001
C27   C     C_R   0.942948 0.635888 0.577322 -0.016757
C28   C     C_R   0.057052 0.364127 0.422671 -0.016755
C29   C     C_R   0.965101 0.210643 0.353677 0.005894
C30   C     C_R   0.034898 0.789373 0.646314 0.005896
C31   C     C_R   0.024984 0.219960 0.354818 -0.223159
C32   C     C_R   0.975016 0.780056 0.645174 -0.223160
Cu1   Cu    Cu3+1 0.506340 0.517380 0.684380 0.952803
Cu2   Cu    Cu3+1 0.493660 0.482620 0.315620 0.952802
H1    H     H_    0.047492 0.112816 0.311113 0.179988
H2    H     H_    0.952508 0.887199 0.688880 0.179987
H3    H     H_    0.207756 0.493194 0.221688 0.137567
H4    H     H_    0.792245 0.506788 0.778303 0.137561
H5    H     H_    0.311508 0.489689 0.213442 0.156574
H6    H     H_    0.688492 0.510285 0.786552 0.156573
H7    H     H_    0.329527 0.519066 0.802734 0.157853
H8    H     H_    0.670472 0.480966 0.197270 0.157851
H9    H     H_    0.225744 0.522603 0.808482 0.140495
H10   H     H_    0.774255 0.477434 0.191521 0.140486
H11   H     H_    0.492678 0.957928 0.285310 0.179551
H12   H     H_    0.507322 0.042072 0.714689 0.179551
H13   H     H_    0.454788 0.379215 0.948331 0.223947
H14   H     H_    0.545212 0.620785 0.051669 0.223947
N1    N     N_R   0.851721 0.496183 0.483855 -0.463088
N2    N     N_R   0.148279 0.503832 0.516140 -0.463086
N3    N     N_2   0.484110 0.456420 0.038520 -0.218042
N4    N     N_2   0.515890 0.543580 0.961480 -0.218042
O1    O     O_R   0.504120 0.286130 0.619770 -0.582066
O2    O     O_R   0.495880 0.713870 0.380230 -0.582067
O3    O     O_R   0.493410 0.256770 0.308360 -0.582273
O4    O     O_R   0.506590 0.743230 0.691640 -0.582273
O5    O     O_R   0.423230 0.514630 0.655730 -0.590746
O6    O     O_R   0.576770 0.485370 0.344270 -0.590746
O7    O     O_R   0.412530 0.485280 0.344320 -0.584723
O8    O     O_R   0.587470 0.514720 0.655680 -0.584722
O9    O     O_2   0.857745 0.752303 0.682572 -0.560787
O10   O     O_2   0.142255 0.247711 0.317424 -0.560791
O11   O     O_2   0.844836 0.252934 0.262264 -0.540496
O12   O     O_2   0.155163 0.747082 0.737729 -0.540499
C33   C     C_R   0.934640 0.048424 0.303333 0.135240
C34   C     C_R   0.887236 0.014139 0.395580 -0.053450
C35   C     C_R   0.854672 0.870895 0.331282 -0.070507
C36   C     C_R   0.872340 0.753022 0.187528 -0.108992
C37   C     C_R   0.922721 0.777690 0.109007 -0.072903
C38   C     C_R   0.953660 0.923701 0.166193 -0.167240
H15   H     H_    0.873894 0.100598 0.512721 0.135898
H16   H     H_    0.816069 0.850400 0.394755 0.166684
H17   H     H_    0.847846 0.641232 0.139461 0.119454
H18   H     H_    0.937575 0.684100 0.002185 0.139670
H19   H     H_    0.992472 0.936606 0.102526 0.120995
C39   C     C_R   0.065360 0.951592 0.696657 0.135239
C40   C     C_R   0.046340 0.076316 0.833796 -0.167239
C41   C     C_R   0.077280 0.222326 0.890982 -0.072907
C42   C     C_R   0.127661 0.246991 0.812462 -0.108994
C43   C     C_R   0.145329 0.129117 0.668709 -0.070501
C44   C     C_R   0.112764 0.985875 0.604410 -0.053449
H20   H     H_    0.007528 0.063413 0.897462 0.120994
H21   H     H_    0.062426 0.315917 0.997803 0.139670
H22   H     H_    0.152156 0.358781 0.860528 0.119453
H23   H     H_    0.183932 0.149611 0.605236 0.166684
H24   H     H_    0.126106 0.899415 0.487270 0.135898

loop_
_geom_bond_atom_site_label_1
_geom_bond_atom_site_label_2
_ccdc_geom_bond_type
C10   H8    S    
C21   N1    A    
C40   C41   A    
Cu1   N4    S    
Cu2   N3    S    
C32   H2    S    
C24   C26   A    
C42   H22   S    
C14   N1    S    
C33   C38   A    
C35   H16   S    
C1    O1    A    
C20   N2    A    
C41   H21   S    
C18   O6    A    
C36   C37   A    
C7    C17   S    
C11   H9    S    
C1    C15   S    
C2    C16   S    
C44   H24   S    
C3    C13   A    
C22   N2    A    
Cu1   O4    S    
C34   C35   A    
Cu2   O3    S    
C20   O10   S    
C25   C26   A    
Cu1   O1    S    
C35   C36   A    
C6    H6    S    
C39   C40   A    
C4    C6    A    
C2    O2    A    
C16   H12   S    
C5    C7    A    
C41   C42   A    
H13   N3    S    
C20   C28   A    
C36   H17   S    
C8    C18   S    
N3    N4    D    
C43   H23   S    
C30   C39   S    
C19   N1    A    
C34   H15   S    
Cu1   Cu2   S    
C37   H18   S    
C9    C11   A    
C10   C12   A    
C17   O7    A    
C29   C33   S    
C18   O8    A    
C4    H4    S    
Cu2   O2    S    
Cu1   O8    S    
C21   C23   A    
Cu2   O7    S    
C31   H1    S    
C15   H11   S    
C23   C29   A    
C19   C27   A    
C7    C9    A    
Cu1   O5    S    
C27   C32   A    
C26   C28   A    
C28   C31   A    
C12   C14   A    
C43   C44   A    
C3    C5    A    
C39   C44   A    
C6    C8    A    
C25   C27   A    
C9    H7    S    
C5    H5    S    
C1    O3    A    
C29   C31   A    
C2    O4    A    
C30   C32   A    
C11   C13   A    
C40   H20   S    
C19   O9    S    
C13   N2    S    
C22   C24   A    
C23   C25   A    
C4    C14   A    
C37   C38   A    
C24   C30   A    
C21   O11   S    
C22   O12   S    
C42   C43   A    
H14   N4    S    
C3    H3    S    
C8    C10   A    
C33   C34   A    
C38   H19   S    
Cu2   O6    S    
C12   H10   S    
C15   C16   D    
C17   O5    A    
