data_mof_unit_30269.cif
_audit_creation_date              2012-12-11T15:32:03-0500
_audit_creation_method            fapswitch 2.2
_symmetry_space_group_name_H-M    P1
_symmetry_Int_Tables_number       1
_space_group_crystal_system       triclinic
_cell_length_a                    13.578457
_cell_length_b                    13.584376
_cell_length_c                    27.679728
_cell_angle_alpha                 90.431255
_cell_angle_beta                  89.960838
_cell_angle_gamma                 120.098547
_cell_volume                      4417.08105128

loop_
_atom_site_label
_atom_site_type_symbol
_atom_type_description
_atom_site_fract_x
_atom_site_fract_y
_atom_site_fract_z
_atom_type_partial_charge
Br1   Br    Br    0.592343 0.972570 0.164107 -0.434682
Br2   Br    Br    0.441401 0.246418 0.881583 -0.413577
Br3   Br    Br    0.518100 0.399232 0.606207 -0.505173
Br4   Br    Br    0.812118 0.032065 0.881646 -0.472360
Br5   Br    Br    0.511271 0.564199 0.747700 -0.544045
Br6   Br    Br    0.487517 0.543301 0.865244 -0.350101
Br7   Br    Br    0.911615 0.636715 0.198364 -0.588485
Br8   Br    Br    0.572600 0.998340 0.283968 -0.549861
C1    C     C_R   0.619842 0.898016 0.431442 0.555932
C2    C     C_R   0.265592 0.924238 0.258541 -0.089845
C3    C     C_R   0.247376 0.915802 0.207935 0.281239
C4    C     C_R   0.599908 0.218597 0.431274 0.557574
C5    C     C_R   0.056684 0.754672 0.221531 0.129319
C6    C     C_R   0.075767 0.765442 0.271399 -0.088699
C7    C     C_R   0.180290 0.849271 0.289962 -0.035096
C8    C     C_R   0.142964 0.828291 0.189638 0.067343
C9    C     C_1   0.122673 0.813727 0.138099 0.069794
C10   C     C_1   0.203831 0.855002 0.341024 -0.028799
C11   C     C_1   0.096308 0.794600 0.095989 0.049787
C12   C     C_R   0.611586 0.374441 0.217977 -0.114400
C13   C     C_1   0.635050 0.865414 0.383855 0.028692
C14   C     C_R   0.618537 0.895259 0.258413 0.203727
C15   C     C_R   0.625475 0.883522 0.208056 0.214072
C16   C     C_R   0.279674 0.878895 0.430514 0.550390
C17   C     C_R   0.682703 0.742711 0.221975 -0.143256
C18   C     C_R   0.676801 0.755051 0.271819 -0.146312
C19   C     C_R   0.645682 0.831632 0.290241 0.018523
C20   C     C_R   0.658214 0.807143 0.189979 0.012712
C21   C     C_1   0.673150 0.797231 0.138917 0.017398
C22   C     C_1   0.641950 0.846068 0.341776 0.000901
C23   C     C_R   0.604946 0.361407 0.268120 -0.112302
C24   C     C_1   0.691793 0.787080 0.097111 0.039780
C25   C     C_R   0.635515 0.268673 0.617474 0.037841
C26   C     C_R   0.696416 0.229108 0.644463 -0.156309
C27   C     C_R   0.707427 0.244915 0.693746 -0.083562
C28   C     C_R   0.619509 0.900915 0.569388 0.583993
C29   C     C_R   0.660929 0.303508 0.716800 0.035903
C30   C     C_R   0.606392 0.349788 0.690202 -0.082807
C31   C     C_R   0.593316 0.332928 0.640412 0.162112
C32   C     C_R   0.572242 0.280976 0.796461 -0.128822
C33   C     C_R   0.580472 0.303620 0.845764 0.181756
C34   C     C_R   0.668849 0.321014 0.291604 0.046283
C35   C     C_R   0.786427 0.391153 0.840038 -0.148645
C36   C     C_R   0.778153 0.365900 0.790913 0.277769
C37   C     C_R   0.670745 0.317244 0.768880 0.000336
C38   C     C_R   0.689117 0.366738 0.867029 -0.006516
C39   C     C_R   0.217672 0.859003 0.614177 -0.017053
C40   C     C_R   0.601202 0.221994 0.568848 0.569207
C41   C     C_R   0.213799 0.947553 0.639004 -0.140916
C42   C     C_R   0.175593 0.932523 0.686537 -0.175238
C43   C     C_R   0.140906 0.829013 0.709736 0.056612
C44   C     C_R   0.141165 0.738610 0.684599 0.323135
C45   C     C_R   0.681031 0.345805 0.190889 0.054406
C46   C     C_R   0.176649 0.753260 0.636616 -0.075036
C47   C     C_R   0.005915 0.729175 0.776781 0.327753
C48   C     C_R   0.988276 0.708224 0.826300 -0.098127
C49   C     C_R   0.174086 0.870850 0.844327 -0.128531
C50   C     C_R   0.194621 0.889734 0.794950 -0.171074
C51   C     C_R   0.112097 0.817401 0.761178 0.042444
C52   C     C_R   0.279558 0.881246 0.568373 0.557014
C53   C     C_R   0.072227 0.777893 0.859775 -0.004133
C54   C     C_R   0.633259 0.863682 0.617361 0.041956
C55   C     C_R   0.534324 0.794490 0.644955 0.215195
C56   C     C_1   0.690932 0.365142 0.139594 -0.006805
C57   C     C_R   0.544325 0.782763 0.693910 -0.069642
C58   C     C_R   0.650654 0.824011 0.715025 -0.029898
C59   C     C_R   0.749509 0.884287 0.687501 -0.128273
C60   C     C_R   0.742043 0.908812 0.638751 0.235842
C61   C     C_R   0.718830 0.903849 0.795810 -0.136995
C62   C     C_R   0.727655 0.893026 0.845134 0.134178
C63   C     C_R   0.595833 0.688447 0.837646 0.145108
C64   C     C_1   0.632818 0.267164 0.384059 0.012229
C65   C     C_R   0.593368 0.699456 0.787541 0.155264
C66   C     C_R   0.656784 0.807763 0.766704 -0.037578
C67   C     C_1   0.652770 0.296392 0.342467 -0.029404
C68   C     C_R   0.673395 0.783693 0.866068 0.000012
C69   C     C_R   0.049249 0.761238 0.048249 0.553275
C70   C     C_R   0.714038 0.435730 0.049747 0.557517
C71   C     C_R   0.723373 0.770690 0.049550 0.554950
C72   C     C_R   0.043527 0.755637 0.910443 0.539908
C73   C     C_R   0.707327 0.426904 0.913000 0.568557
C74   C     C_R   0.715666 0.765986 0.912377 0.574122
C75   C     C_R   0.739826 0.294139 0.264624 -0.052054
C76   C     C_R   0.745858 0.306408 0.214353 -0.038405
C77   C     C_3   0.942302 0.358892 0.779785 -0.091925
C78   C     C_1   0.700317 0.390598 0.097522 0.031891
C79   C     C_3   0.820988 0.656333 0.751195 -0.078073
C80   C     C_3   0.203760 0.636590 0.725625 -0.099161
C81   C     C_3   0.388221 0.632609 0.613753 -0.080907
C82   C     C_3   0.918367 0.071650 0.633466 -0.096123
C83   C     C_3   0.393915 0.098555 0.190925 -0.075968
C84   C     C_1   0.231945 0.862894 0.382870 0.013651
Cr1   Cr    Cr6+3 0.417720 0.831920 0.499820 1.054623
Cr2   Cr    Cr6+3 0.668190 0.085770 0.500360 1.053227
Cr3   Cr    Cr6+3 0.414060 0.082260 0.499840 1.065722
Cr4   Cr    Cr6+3 0.908000 0.821090 0.979770 1.099217
Cr5   Cr    Cr6+3 0.912420 0.571130 0.979880 1.064549
Cr6   Cr    Cr6+3 0.657970 0.566940 0.980940 1.118971
H1    H     H_    0.788752 0.261683 0.282337 0.145802
H2    H     H_    0.245270 0.030070 0.622568 0.160790
H3    H     H_    0.908686 0.638018 0.838982 0.104985
H4    H     H_    0.176125 0.002587 0.705738 0.130142
H5    H     H_    0.276023 0.958618 0.782976 0.134687
H6    H     H_    0.237875 0.926720 0.870218 0.159861
H7    H     H_    0.177798 0.683465 0.617981 0.150410
H8    H     H_    0.562258 0.406486 0.200286 0.116942
H9    H     H_    0.761495 0.987867 0.779923 0.141339
H10   H     H_    0.467827 0.739761 0.715518 0.153408
H11   H     H_    0.831569 0.913257 0.704332 0.119612
H12   H     H_    0.707927 0.683708 0.208302 0.171711
H13   H     H_    0.548880 0.381330 0.288465 0.116111
H14   H     H_    0.346612 0.987214 0.273675 0.159999
H15   H     H_    0.009698 0.707125 0.295568 0.154431
H16   H     H_    0.890431 0.267971 0.790593 0.120076
H17   H     H_    0.997371 0.411445 0.810184 0.140095
H18   H     H_    0.998986 0.362523 0.750138 0.148428
H19   H     H_    0.772492 0.596315 0.780647 0.137908
H20   H     H_    0.833416 0.742393 0.759117 0.102090
H21   H     H_    0.768427 0.624342 0.717920 0.191277
H22   H     H_    0.252516 0.709569 0.750845 0.117569
H23   H     H_    0.697292 0.705433 0.295979 0.136542
H24   H     H_    0.259513 0.637810 0.696034 0.133320
H25   H     H_    0.175843 0.557501 0.746375 0.158180
H26   H     H_    0.380712 0.582138 0.646455 0.155438
H27   H     H_    0.445367 0.625370 0.586865 0.158603
H28   H     H_    0.302428 0.594907 0.597132 0.132116
H29   H     H_    0.971542 0.056048 0.659285 0.118792
H30   H     H_    0.877492 0.115246 0.651871 0.095255
H31   H     H_    0.976263 0.130548 0.605608 0.155084
H32   H     H_    0.462533 0.110775 0.216287 0.180768
H33   H     H_    0.338576 0.128482 0.207419 0.091547
H34   H     H_    0.729047 0.178449 0.628191 0.140342
H35   H     H_    0.435654 0.152798 0.159104 0.162106
H36   H     H_    0.489142 0.237076 0.779347 0.153572
H37   H     H_    0.749052 0.208137 0.714096 0.125760
H38   H     H_    0.870528 0.439449 0.855851 0.149201
H39   H     H_    0.573084 0.397721 0.708303 0.186728
H40   H     H_    0.800961 0.285419 0.193877 0.147824
O1    O     O_R   0.302900 0.805360 0.446400 -0.503222
O2    O     O_R   0.638120 0.455970 0.034270 -0.498393
O3    O     O_R   0.667540 0.672320 0.030160 -0.495895
O4    O     O_R   0.522090 0.841370 0.450730 -0.496223
O5    O     O_R   0.814460 0.840990 0.926980 -0.459647
O6    O     O_R   0.001710 0.811400 0.930110 -0.484975
O7    O     O_R   0.023410 0.659800 0.926210 -0.507665
O8    O     O_R   0.806940 0.473170 0.931090 -0.522543
O9    O     O_R   0.633420 0.451310 0.927930 -0.426279
O10   O     O_R   0.663190 0.668000 0.931580 -0.464815
O11   O     O_3   0.826130 0.653050 0.980200 -0.285214
O12   O     O_R   0.657980 0.180990 0.549630 -0.520776
O13   O     O_R   0.693280 0.995650 0.447220 -0.495735
O14   O     O_R   0.657260 0.178740 0.451050 -0.489262
O15   O     O_R   0.502640 0.195380 0.446850 -0.498026
O16   O     O_R   0.319630 0.976590 0.450330 -0.493947
O17   O     O_R   0.303680 0.807790 0.552740 -0.490172
O18   O     O_R   0.522820 0.843620 0.549310 -0.466674
O19   O     O_R   0.694060 0.998080 0.553560 -0.485397
O20   O     O_3   0.874857 0.403577 0.762664 -0.509711
O21   O     O_3   0.924993 0.659273 0.742936 -0.499135
O22   O     O_3   0.106771 0.635639 0.706902 -0.508745
O23   O     O_R   0.503420 0.197810 0.553190 -0.464654
O24   O     O_3   0.425999 0.747330 0.625692 -0.568836
O25   O     O_3   0.838386 0.969212 0.610398 -0.538151
O26   O     O_3   0.331558 0.984190 0.175143 -0.521677
O27   O     O_R   0.320350 0.978840 0.548910 -0.502476
O28   O     O_3   0.499990 0.999990 0.500010 -0.266253
O29   O     O_R   0.819150 0.845650 0.033320 -0.487186
O30   O     O_R   0.006060 0.815720 0.028680 -0.493978
O31   O     O_R   0.028100 0.664460 0.032550 -0.488631
O32   O     O_R   0.811290 0.477490 0.029660 -0.483298

loop_
_geom_bond_atom_site_label_1
_geom_bond_atom_site_label_2
_ccdc_geom_bond_type
C44   O22   S    
C55   O24   S    
C47   C48   A    
C55   C57   A    
C23   C34   A    
C47   C51   A    
C7    C10   S    
C36   O20   S    
Cr5   O8    S    
C4    O14   A    
C4    O15   A    
Cr2   O28   S    
Br4   C62   S    
C61   H9    S    
C39   C41   A    
C83   H32   S    
C81   H27   S    
C17   C20   A    
C34   C67   S    
C25   C31   A    
C45   C76   A    
C20   C21   S    
C27   C29   A    
C48   H3    S    
C79   H19   S    
C21   C24   T    
C40   O12   A    
C2    C7    A    
Cr3   O23   S    
C63   C68   A    
C45   C56   S    
C83   H33   S    
Cr6   O9    S    
C53   C72   S    
Cr2   O14   S    
C58   C66   S    
Cr3   O27   S    
C70   O32   A    
Cr5   O31   S    
C26   C27   A    
C65   C66   A    
C11   C69   S    
C39   C52   S    
C82   H31   S    
C59   H11   S    
C72   O7    A    
C44   C46   A    
C8    C9    S    
C72   O6    A    
Br8   C14   S    
C82   H29   S    
Cr4   O30   S    
C2    H14   S    
C18   H23   S    
C80   H22   S    
C57   H10   S    
C70   C78   S    
C47   O21   S    
C58   C59   A    
C4    C64   S    
C26   H34   S    
C75   H1    S    
C5    C6    A    
C19   C22   S    
C32   C37   A    
C64   C67   T    
C28   C54   S    
C16   C84   S    
C56   C78   T    
C17   C18   A    
C16   O16   A    
C25   C26   A    
C12   H8    S    
C81   H28   S    
C77   H18   S    
C16   O1    A    
Br6   C63   S    
C59   C60   A    
Cr1   O17   S    
C30   C31   A    
C79   H20   S    
C80   H24   S    
C27   H37   S    
C63   C65   A    
C12   C45   A    
C40   O23   A    
C73   O9    A    
C50   C51   A    
C32   H36   S    
Cr5   O32   S    
C43   C44   A    
Cr6   O2    S    
C69   O30   A    
C35   C36   A    
C79   H21   S    
C29   C30   A    
Cr1   O1    S    
Cr4   O6    S    
C38   C73   S    
C80   H25   S    
C3    C8    A    
C75   C76   A    
C83   H35   S    
C77   H17   S    
C33   C38   A    
C54   C55   A    
C42   C43   A    
C18   C19   A    
Cr4   O29   S    
C61   C66   A    
C73   O8    A    
C15   C20   A    
C49   C53   A    
C17   H12   S    
C39   C46   A    
C28   O19   A    
C69   O31   A    
C32   C33   A    
Cr1   O28   S    
C42   H4    S    
Cr2   O19   S    
C14   C19   A    
Cr6   O3    S    
C62   C68   A    
C83   O26   S    
C43   C51   S    
C77   O20   S    
C29   C37   S    
Cr3   O28   S    
C81   O24   S    
C36   C37   A    
C28   O18   A    
C60   O25   S    
C49   H6    S    
C77   H16   S    
C23   H13   S    
C46   H7    S    
Cr3   O15   S    
C6    C7    A    
Cr5   O7    S    
Cr1   O18   S    
Cr5   O11   S    
C34   C75   A    
C74   O5    A    
C70   O2    A    
C74   O10   A    
C1    O4    A    
Br1   C15   S    
C81   H26   S    
Cr2   O12   S    
C6    H15   S    
C13   C22   T    
C52   O27   A    
C76   H40   S    
C54   C60   A    
C82   O25   S    
Cr3   O16   S    
C10   C84   T    
Cr2   O13   S    
C52   O17   A    
C57   C58   A    
Cr4   O5    S    
C1    C13   S    
C49   C50   A    
C71   O3    A    
Cr6   O10   S    
C68   C74   S    
Cr4   O11   S    
C3    O26   S    
C9    C11   T    
C30   H39   S    
C79   O21   S    
C14   C15   A    
C80   O22   S    
Br5   C65   S    
C35   H38   S    
C35   C38   A    
C61   C62   A    
C2    C3    A    
Br3   C31   S    
Br7   C5    S    
C1    O13   A    
C41   C42   A    
C5    C8    A    
C24   C71   S    
C25   C40   S    
C82   H30   S    
C48   C53   A    
C50   H5    S    
Br2   C33   S    
C71   O29   A    
Cr6   O11   S    
Cr1   O4    S    
C41   H2    S    
C12   C23   A    
