data_mof_unit_24691.cif
_audit_creation_date              2012-12-11T14:17:56-0500
_audit_creation_method            fapswitch 2.2
_symmetry_space_group_name_H-M    P1
_symmetry_Int_Tables_number       1
_space_group_crystal_system       triclinic
_cell_length_a                    11.126084
_cell_length_b                    11.104309
_cell_length_c                    18.842168
_cell_angle_alpha                 89.734804
_cell_angle_beta                  90.330571
_cell_angle_gamma                 120.181434
_cell_volume                      2012.28910033

loop_
_atom_site_label
_atom_site_type_symbol
_atom_type_description
_atom_site_fract_x
_atom_site_fract_y
_atom_site_fract_z
_atom_type_partial_charge
C1    C     C_R   0.518128 0.456645 0.147213 0.533415
C2    C     C_R   0.066003 0.459233 0.527988 0.193801
C3    C     C_R   0.371416 0.914993 0.527006 0.263040
C4    C     C_R   0.527740 0.626040 0.524315 0.252470
C5    C     C_R   0.741236 0.138995 0.587555 0.247690
C6    C     C_R   0.833189 0.574153 0.607352 0.289523
C7    C     C_R   0.402193 0.261272 0.588173 0.260666
C8    C     C_R   0.872454 0.676802 0.468157 0.272429
C9    C     C_R   0.769564 0.052172 0.452283 0.325373
C10   C     C_R   0.284855 0.224125 0.452300 0.271157
C11   C     C_R   0.868724 0.155801 0.566403 -0.169585
C12   C     C_R   0.543782 0.062925 0.146762 0.533752
C13   C     C_R   0.815050 0.686319 0.591503 -0.158169
C14   C     C_R   0.293667 0.131164 0.567308 -0.171653
C15   C     C_R   0.840951 0.741051 0.523501 -0.160581
C16   C     C_R   0.881727 0.109784 0.500318 -0.165476
C17   C     C_R   0.234151 0.113746 0.500566 -0.081455
C18   C     C_R   0.515588 0.452847 0.353916 0.518535
C19   C     C_R   0.546897 0.062502 0.354069 0.525931
C20   C     C_R   0.881966 0.459117 0.361938 0.588596
C21   C     C_R   0.453864 0.523158 0.644376 0.654821
C22   C     C_R   0.062467 0.542499 0.646845 0.668367
C23   C     C_R   0.938664 0.482386 0.147461 0.544645
C24   C     C_R   0.477958 0.934062 0.645194 0.662551
C25   C     C_R   0.509425 0.998063 0.924272 -0.000669
C26   C     C_R   0.009152 0.512783 0.926211 -0.000252
C27   C     C_R   0.487807 0.493534 0.925470 -0.002144
C28   C     C_R   0.996852 0.508744 0.075478 -0.006335
C29   C     C_R   0.513270 0.009952 0.073522 -0.005452
C30   C     C_R   0.493353 0.488098 0.074638 -0.006016
C31   C     C_R   0.408835 0.014260 0.960381 0.032118
C32   C     C_R   0.999653 0.399421 0.964512 0.032626
C33   C     C_R   0.603012 0.596201 0.962805 0.032907
C34   C     C_R   0.456567 0.518110 0.852813 0.546423
C35   C     C_R   0.012909 0.407865 0.039296 0.029272
C36   C     C_R   0.400198 0.000669 0.035124 0.030585
C37   C     C_R   0.595859 0.603424 0.037421 0.030635
C38   C     C_R   0.620576 0.006839 0.036215 -0.138359
C39   C     C_R   0.996985 0.616779 0.036572 -0.139573
C40   C     C_R   0.384109 0.379995 0.036494 -0.137158
C41   C     C_R   0.005686 0.620107 0.963564 -0.137935
C42   C     C_R   0.617378 0.998391 0.963206 -0.138195
C43   C     C_R   0.379735 0.384328 0.963527 -0.137120
C44   C     C_R   0.314018 0.039835 0.923888 -0.084007
C45   C     C_R   0.062673 0.543598 0.853142 0.547037
C46   C     C_R   0.975770 0.276996 0.931002 -0.088274
C47   C     C_R   0.725054 0.692476 0.928151 -0.085474
C48   C     C_R   0.038711 0.312976 0.075677 -0.085270
C49   C     C_R   0.277702 0.976203 0.068425 -0.087867
C50   C     C_R   0.692330 0.725465 0.072252 -0.086027
C51   C     C_R   0.198807 0.025370 0.958530 -0.140665
C52   C     C_R   0.985162 0.175929 0.969670 -0.145372
C53   C     C_R   0.826614 0.805206 0.965053 -0.144780
C54   C     C_R   0.025536 0.198214 0.040739 -0.139360
C55   C     C_R   0.176471 0.984773 0.029536 -0.143332
C56   C     C_R   0.482541 0.938949 0.852428 0.546920
C57   C     C_R   0.805453 0.826597 0.035636 -0.142484
C58   C     C_R   0.489464 0.984827 0.572392 0.050077
C59   C     C_R   0.996862 0.496532 0.578048 0.034396
C60   C     C_R   0.489886 0.511627 0.571336 0.007033
C61   C     C_R   0.934659 0.490335 0.434887 0.031889
C62   C     C_R   0.522284 0.001525 0.425515 0.016845
C63   C     C_R   0.476911 0.475026 0.424854 -0.074296
C64   C     C_R   0.623072 0.062024 0.543694 -0.026903
C65   C     C_R   0.899493 0.534160 0.556645 -0.028074
C66   C     C_R   0.439367 0.377632 0.543580 -0.009237
C67   C     C_R   0.387500 0.933526 0.453325 0.213326
C68   C     C_R   0.894525 0.562525 0.484212 -0.060042
C69   C     C_R   0.639408 0.039723 0.472114 0.028184
C70   C     C_R   0.401332 0.357613 0.471620 -0.077177
C71   C     C_R   0.031927 0.453107 0.456057 0.219348
C72   C     C_R   0.530377 0.609114 0.451578 0.250116
Cr1   Cr    Cr6+3 0.768550 0.541320 0.250660 1.061971
Cr2   Cr    Cr6+3 0.458680 0.227230 0.250660 1.056281
Cr3   Cr    Cr6+3 0.772770 0.231450 0.250660 1.061563
Cr4   Cr    Cr6+3 0.541320 0.768550 0.749340 1.016467
Cr5   Cr    Cr6+3 0.227230 0.458680 0.749340 1.042199
Cr6   Cr    Cr6+3 0.231450 0.772770 0.749340 1.043301
H1    H     H_    0.957313 0.201418 0.601973 0.146986
H2    H     H_    0.012957 0.709661 0.936561 0.155107
H3    H     H_    0.698036 0.987349 0.937546 0.155408
H4    H     H_    0.288605 0.303104 0.937126 0.157071
H5    H     H_    0.328011 0.070704 0.868602 0.128116
H6    H     H_    0.945032 0.256183 0.875815 0.129828
H7    H     H_    0.743978 0.679977 0.873134 0.125246
H8    H     H_    0.069355 0.326849 0.131009 0.135321
H9    H     H_    0.256794 0.945222 0.123545 0.134431
H10   H     H_    0.679988 0.744494 0.127278 0.131385
H11   H     H_    0.127948 0.043755 0.928431 0.094514
H12   H     H_    0.785540 0.734080 0.632517 0.103606
H13   H     H_    0.961179 0.082073 0.943245 0.097919
H14   H     H_    0.919476 0.874524 0.937365 0.095991
H15   H     H_    0.044984 0.127745 0.070599 0.099805
H16   H     H_    0.082312 0.959805 0.055666 0.100836
H17   H     H_    0.875465 0.919041 0.063653 0.100222
H18   H     H_    0.295573 0.865167 0.361824 0.344251
H19   H     H_    0.204891 0.480815 0.418915 0.327388
H20   H     H_    0.547396 0.695027 0.358861 0.328517
H21   H     H_    0.170329 0.363883 0.517808 0.324245
H22   H     H_    0.171010 0.783748 0.518430 0.364834
H23   H     H_    0.252029 0.044354 0.603929 0.154668
H24   H     H_    0.636268 0.790420 0.578739 0.329393
H25   H     H_    0.819341 0.239558 0.675935 0.332185
H26   H     H_    0.756417 0.553372 0.702241 0.328865
H27   H     H_    0.429906 0.187296 0.676876 0.329458
H28   H     H_    0.880044 0.815604 0.401391 0.344003
H29   H     H_    0.880463 0.022568 0.382316 0.326106
H30   H     H_    0.215564 0.292062 0.377002 0.359296
H31   H     H_    0.834231 0.833402 0.513451 0.137522
H32   H     H_    0.979575 0.117540 0.486712 0.133835
H33   H     H_    0.144971 0.014015 0.486737 0.181954
H34   H     H_    0.709943 0.014003 0.063251 0.156981
H35   H     H_    0.985912 0.697565 0.062271 0.156123
H36   H     H_    0.302948 0.288823 0.062824 0.158258
O1    O     O_R   0.910960 0.572410 0.171010 -0.519753
O2    O     O_R   0.528530 0.639750 0.824400 -0.512667
O3    O     O_R   0.111220 0.471470 0.824400 -0.517639
O4    O     O_R   0.360250 0.888780 0.824400 -0.515205
O5    O     O_R   0.909330 0.572400 0.331540 -0.422704
O6    O     O_R   0.427600 0.336930 0.331540 -0.480401
O7    O     O_R   0.663070 0.090670 0.331540 -0.462063
O8    O     O_R   0.572400 0.909330 0.668460 -0.494027
O9    O     O_R   0.336930 0.427600 0.668460 -0.454865
O10   O     O_R   0.090670 0.663070 0.668460 -0.464091
O11   O     O_R   0.638240 0.528520 0.324410 -0.488088
O12   O     O_R   0.427590 0.338550 0.171010 -0.521053
O13   O     O_R   0.471480 0.109720 0.324410 -0.485297
O14   O     O_R   0.890280 0.361760 0.324410 -0.448282
O15   O     O_R   0.528520 0.638240 0.675590 -0.535630
O16   O     O_R   0.109720 0.471480 0.675590 -0.481578
O17   O     O_R   0.361760 0.890280 0.675590 -0.480578
O18   O     O_3   0.666667 0.333333 0.250630 -0.298656
O19   O     O_3   0.333333 0.666667 0.749370 -0.263640
O20   O     O_3   0.270621 0.878768 0.410309 -0.677353
O21   O     O_3   0.105479 0.429712 0.404755 -0.696187
O22   O     O_3   0.577283 0.724706 0.408427 -0.622372
O23   O     O_R   0.661450 0.089040 0.171010 -0.521505
O24   O     O_3   0.168375 0.432204 0.550455 -0.691334
O25   O     O_3   0.242173 0.827506 0.556098 -0.682904
O26   O     O_3   0.553991 0.753811 0.547458 -0.656947
O27   O     O_3   0.727510 0.190306 0.651889 -0.656792
O28   O     O_3   0.802095 0.512765 0.673820 -0.657224
O29   O     O_3   0.468376 0.278947 0.652867 -0.657992
O30   O     O_3   0.905579 0.742199 0.403094 -0.618867
O31   O     O_3   0.781014 0.990157 0.391330 -0.623111
O32   O     O_3   0.202607 0.201618 0.393178 -0.672556
O33   O     O_R   0.572410 0.910960 0.828990 -0.522871
O34   O     O_R   0.338550 0.427590 0.828990 -0.525738
O35   O     O_R   0.089040 0.661450 0.828990 -0.525114
O36   O     O_R   0.639750 0.528530 0.175600 -0.508239
O37   O     O_R   0.471470 0.111220 0.175600 -0.506558
O38   O     O_R   0.888780 0.360250 0.175600 -0.503309

loop_
_geom_bond_atom_site_label_1
_geom_bond_atom_site_label_2
_ccdc_geom_bond_type
C25   C31   A    
C48   H8    S    
C23   O38   A    
C26   C32   A    
Cr1   O5    S    
Cr2   O18   S    
Cr1   O36   S    
C49   H9    S    
C14   C17   A    
C25   C56   S    
C44   H5    S    
C41   H2    S    
C7    O29   S    
C16   H32   S    
C39   C41   A    
Cr2   O12   S    
C27   C33   A    
C48   C54   A    
C29   C36   A    
C62   C67   A    
C47   H7    S    
Cr6   O4    S    
C9    C16   A    
C9    C69   A    
C20   O14   A    
Cr5   O3    S    
C31   C36   A    
C18   O11   A    
C71   O21   S    
H29   O31   S    
C18   C63   S    
C72   O22   S    
C19   C62   S    
C34   O2    A    
C46   C52   A    
Cr3   O14   S    
Cr4   O15   S    
C19   O13   A    
C20   C61   S    
C15   H31   S    
H20   O22   S    
C26   C45   S    
C34   O34   A    
C6    C65   A    
C40   H36   S    
Cr4   O33   S    
C54   H15   S    
C29   C38   A    
H21   O24   S    
C6    O28   S    
Cr6   O10   S    
C51   C55   A    
C50   H10   S    
C47   C53   A    
C61   C71   A    
Cr1   O18   S    
C60   C66   A    
C22   O16   A    
C12   O37   A    
C42   H3    S    
Cr5   O19   S    
C55   H16   S    
C35   C48   A    
H25   O27   S    
C52   C54   A    
H30   O32   S    
C7    C14   A    
C27   C34   S    
C58   C64   A    
C17   H33   S    
C31   C44   A    
C2    O24   S    
C32   C35   A    
C67   O20   S    
C1    O12   A    
C28   C35   A    
C21   C60   S    
Cr3   O23   S    
C22   C59   S    
C53   C57   A    
C2    C59   A    
C14   H23   S    
H18   O20   S    
C28   C39   A    
C39   H35   S    
C49   C55   A    
C33   C37   A    
C62   C69   A    
C21   O9    A    
Cr6   O17   S    
Cr6   O35   S    
Cr5   O9    S    
H22   O25   S    
C4    O26   S    
C11   C16   A    
C5    O27   S    
Cr2   O13   S    
C63   C70   A    
Cr3   O38   S    
C65   C68   A    
C4    C60   A    
C53   H14   S    
C24   O8    A    
C30   C40   A    
C1    O36   A    
C8    O30   S    
H24   O26   S    
C64   C69   A    
C22   O10   A    
Cr5   O34   S    
C21   O15   A    
C11   H1    S    
C10   O32   S    
C46   H6    S    
C10   C70   A    
C44   C51   A    
C8    C68   A    
C8    C15   A    
C13   C15   A    
C5    C11   A    
C33   C47   A    
H26   O28   S    
Cr2   O37   S    
C13   H12   S    
C23   C28   S    
H19   O21   S    
C38   H34   S    
C2    C71   A    
C18   O6    A    
C4    C72   A    
Cr3   O18   S    
C45   O3    A    
C61   C68   A    
C19   O7    A    
Cr3   O7    S    
C50   C57   A    
C32   C46   A    
C3    C67   A    
C12   C29   S    
C25   C42   A    
H27   O29   S    
Cr4   O19   S    
H28   O30   S    
Cr2   O6    S    
Cr1   O1    S    
C5    C64   A    
Cr4   O8    S    
C40   C43   A    
C56   O33   A    
C51   H11   S    
C7    C66   A    
C56   O4    A    
C37   C50   A    
C24   O17   A    
C66   C70   A    
Cr1   O11   S    
C9    O31   S    
C1    C30   S    
Cr4   O2    S    
C45   O35   A    
Cr5   O16   S    
Cr6   O19   S    
C38   C42   A    
C23   O1    A    
C3    C58   A    
C27   C43   A    
C3    O25   S    
C63   C72   A    
C30   C37   A    
C24   C58   S    
C57   H17   S    
C43   H4    S    
C12   O23   A    
C52   H13   S    
C10   C17   A    
C20   O5    A    
C59   C65   A    
C36   C49   A    
C26   C41   A    
C6    C13   A    
