data_mof_unit_34076.cif
_audit_creation_date              2012-12-10T17:08:48-0500
_audit_creation_method            fapswitch 2.2
_symmetry_space_group_name_H-M    P1
_symmetry_Int_Tables_number       1
_space_group_crystal_system       triclinic
_cell_length_a                    27.725899
_cell_length_b                    11.042008
_cell_length_c                    9.857291
_cell_angle_alpha                 111.935737
_cell_angle_beta                  98.046969
_cell_angle_gamma                 91.599059
_cell_volume                      2761.17698665

loop_
_atom_site_label
_atom_site_type_symbol
_atom_type_description
_atom_site_fract_x
_atom_site_fract_y
_atom_site_fract_z
_atom_type_partial_charge
C1    C     C_R   0.496600 0.253471 0.439214 0.778680
C2    C     C_R   0.502447 0.746363 0.560804 0.784922
C3    C     C_R   0.103469 0.538524 0.514514 -0.044195
C4    C     C_R   0.898113 0.503363 0.499147 -0.044529
C5    C     C_R   0.135450 0.543774 0.641192 -0.022093
C6    C     C_R   0.866064 0.488597 0.368762 -0.022198
C7    C     C_R   0.116385 0.544118 0.765011 -0.143149
C8    C     C_R   0.885150 0.482660 0.242976 -0.141434
C9    C     C_R   0.123120 0.538683 0.390305 -0.029152
C10   C     C_R   0.878474 0.508649 0.625338 -0.025954
C11   C     C_R   0.355620 0.508387 0.506277 -0.089458
C12   C     C_R   0.644781 0.497921 0.495281 -0.112518
C13   C     C_R   0.981388 0.526096 0.635463 0.045439
C14   C     C_R   0.020244 0.523262 0.381205 0.045414
C15   C     C_R   0.968740 0.510332 0.375777 0.042187
C16   C     C_R   0.032872 0.532399 0.638383 0.042590
C17   C     C_R   0.949641 0.513281 0.503477 0.067005
C18   C     C_R   0.051972 0.531707 0.511492 0.067209
C19   C     C_R   0.960252 0.531949 0.760375 -0.202212
C20   C     C_R   0.041414 0.528218 0.260403 -0.201015
C21   C     C_R   0.909920 0.523252 0.755010 -0.150289
C22   C     C_R   0.091735 0.535203 0.264958 -0.151097
C23   C     C_R   0.407755 0.499272 0.501070 0.811159
C24   C     C_R   0.592284 0.500647 0.498909 0.812261
C25   C     C_R   0.066254 0.538413 0.763943 -0.203664
C26   C     C_R   0.935339 0.493003 0.245958 -0.204625
C27   C     C_2   0.495538 0.112350 0.402284 0.076919
C28   C     C_2   0.500811 0.886946 0.597680 0.078471
C29   C     C_2   0.496346 0.068766 0.512439 -0.170333
C30   C     C_2   0.500120 0.931210 0.488173 -0.171462
C31   C     C_2   0.507312 0.499960 0.078227 0.006037
C32   C     C_2   0.498914 0.480999 0.916251 0.006321
C33   C     C_R   0.186039 0.546356 0.640303 0.516277
C34   C     C_R   0.815357 0.480526 0.367352 0.524070
C35   C     C_R   0.173961 0.540566 0.393643 0.576940
C36   C     C_R   0.827536 0.500972 0.619475 0.552740
C37   C     C_R   0.285773 0.637876 0.511808 0.316869
C38   C     C_R   0.717575 0.376769 0.486248 0.330277
C39   C     C_R   0.335533 0.623309 0.505900 -0.308408
C40   C     C_R   0.667019 0.384112 0.490066 -0.256682
C41   C     C_R   0.325516 0.404464 0.508632 -0.046316
C42   C     C_R   0.673053 0.607586 0.499798 -0.049762
C43   C     C_R   0.275672 0.418274 0.511722 -0.195522
C44   C     C_R   0.723131 0.601347 0.497841 -0.173168
C45   C     C_R   0.255670 0.534126 0.514470 0.312342
C46   C     C_R   0.745392 0.487543 0.490612 0.267828
Cu1   Cu    Cu3+1 0.508480 0.521810 0.644910 0.960380
Cu2   Cu    Cu3+1 0.491520 0.478190 0.355090 0.938423
H1    H     H_    0.476367 0.394439 0.838724 0.146300
H2    H     H_    0.540385 0.556719 0.147540 0.120337
H3    H     H_    0.252053 0.338506 0.512069 0.159841
H4    H     H_    0.745276 0.685854 0.502789 0.157094
H5    H     H_    0.140215 0.547676 0.863698 0.194926
H6    H     H_    0.861275 0.470051 0.140860 0.195504
H7    H     H_    0.644301 0.301692 0.487390 0.134929
H8    H     H_    0.358826 0.702695 0.503272 0.128323
H9    H     H_    0.895750 0.528423 0.853896 0.178855
H10   H     H_    0.105934 0.537251 0.168765 0.177423
H11   H     H_    0.981409 0.544667 0.865655 0.129688
H12   H     H_    0.020265 0.527848 0.160008 0.129070
H13   H     H_    0.055109 0.536934 0.863574 0.133264
H14   H     H_    0.946537 0.485222 0.143042 0.134725
H15   H     H_    0.503116 0.863675 0.377185 0.184826
H16   H     H_    0.495249 0.137292 0.624399 0.182837
N1    N     N_R   0.204222 0.543482 0.517178 -0.452175
N2    N     N_R   0.797210 0.487478 0.491823 -0.468929
N3    N     N_2   0.478780 0.445430 0.137360 -0.077264
N4    N     N_2   0.521220 0.554570 0.862640 -0.071971
O1    O     O_R   0.504520 0.332330 0.577400 -0.606309
O2    O     O_R   0.495480 0.667670 0.422600 -0.603494
O3    O     O_R   0.490210 0.295500 0.332650 -0.571400
O4    O     O_R   0.509790 0.704500 0.667350 -0.546253
O5    O     O_R   0.437420 0.518430 0.622370 -0.580238
O6    O     O_R   0.562580 0.481570 0.377630 -0.584723
O7    O     O_R   0.423110 0.481600 0.377610 -0.574852
O8    O     O_R   0.576890 0.518400 0.622390 -0.568137
O9    O     O_2   0.216897 0.551248 0.761364 -0.540042
O10   O     O_2   0.784377 0.466249 0.242834 -0.533724
O11   O     O_2   0.808427 0.508312 0.740675 -0.524314
O12   O     O_2   0.192934 0.536905 0.273461 -0.533664
C47   C     C_R   0.344443 0.279192 0.503171 0.096388
C48   C     C_R   0.374685 0.272505 0.626432 -0.120707
C49   C     C_R   0.389929 0.151995 0.623459 -0.153315
C50   C     C_R   0.375076 0.037771 0.497978 -0.099000
C51   C     C_R   0.345149 0.043903 0.374743 -0.149037
C52   C     C_R   0.329725 0.164102 0.377270 -0.156048
H17   H     H_    0.385676 0.359923 0.725336 0.147057
H18   H     H_    0.413337 0.146908 0.718219 0.147104
H19   H     H_    0.386916 0.944639 0.496069 0.124521
H20   H     H_    0.333742 0.955436 0.277500 0.137160
H21   H     H_    0.306123 0.167521 0.281654 0.138237
C53   C     C_R   0.651940 0.731504 0.511653 0.102278
C54   C     C_R   0.660731 0.839667 0.647058 -0.156261
C55   C     C_R   0.644050 0.960275 0.656216 -0.148658
C56   C     C_R   0.618553 0.973413 0.530486 -0.108845
C57   C     C_R   0.609620 0.865919 0.395458 -0.156249
C58   C     C_R   0.626286 0.745086 0.385740 -0.121223
H22   H     H_    0.680948 0.830813 0.744747 0.138734
H23   H     H_    0.651150 0.043761 0.760549 0.137613
H24   H     H_    0.605759 0.066987 0.537629 0.127323
H25   H     H_    0.589816 0.876587 0.298569 0.136776
H26   H     H_    0.620141 0.663074 0.280059 0.127132
N5    N     N_2   0.496113 0.971789 0.744702 -0.443971
H27   H     H_    0.475108 0.928942 0.795981 0.256715
C59   C     C_3   0.541861 0.034934 0.838480 -0.677691
H28   H     H_    0.534595 0.101722 0.948531 0.218460
H29   H     H_    0.560914 0.094182 0.789270 0.232832
H30   H     H_    0.565782 0.960488 0.854077 0.235971
N6    N     N_2   0.496216 0.025135 0.253085 -0.442769
H31   H     H_    0.515215 0.064850 0.194556 0.256880
C60   C     C_3   0.448730 0.963388 0.170961 -0.687544
H32   H     H_    0.452882 0.894382 0.058435 0.227463
H33   H     H_    0.424326 0.038460 0.160051 0.225672
H34   H     H_    0.431691 0.907058 0.227264 0.237741
N7    N     N_2   0.537161 0.682263 0.957457 -0.314757
H35   H     H_    0.525130 0.718233 0.058479 0.226666
C61   C     C_3   0.587988 0.718568 0.962569 -0.570921
H36   H     H_    0.597852 0.821297 0.041674 0.172206
H37   H     H_    0.594659 0.713741 0.852646 0.255466
H38   H     H_    0.611509 0.653094 0.999210 0.203240
N8    N     N_2   0.432985 0.396231 0.056150 -0.354872
H39   H     H_    0.406604 0.459169 0.092732 0.269271
C62   C     C_3   0.419265 0.264461 0.041944 -0.591988
H40   H     H_    0.412330 0.263255 0.149483 0.245901
H41   H     H_    0.448431 0.199606 0.001569 0.223129
H42   H     H_    0.385023 0.226031 0.960905 0.187316
N9    N     N_2   0.741439 0.261661 0.479506 -0.409098
H43   H     H_    0.770300 0.243062 0.421115 0.256119
C63   C     C_3   0.713499 0.146064 0.471947 -0.655242
H44   H     H_    0.738415 0.068929 0.471418 0.236563
H45   H     H_    0.686079 0.107405 0.368848 0.214731
H46   H     H_    0.695340 0.169637 0.571109 0.238121
N10   N     N_2   0.266074 0.755762 0.512818 -0.406039
H47   H     H_    0.283918 0.801107 0.457083 0.255485
C64   C     C_3   0.259862 0.846583 0.658055 -0.663215
H48   H     H_    0.242723 0.933167 0.647966 0.233333
H49   H     H_    0.295937 0.880171 0.731282 0.215492
H50   H     H_    0.235663 0.800127 0.708902 0.250384

loop_
_geom_bond_atom_site_label_1
_geom_bond_atom_site_label_2
_ccdc_geom_bond_type
C64   H50   S    
C54   C55   A    
C27   C29   D    
C8    C26   A    
C14   C18   A    
C56   C57   A    
C43   H3    S    
C34   N2    A    
C38   N9    S    
C33   N1    A    
C64   H48   S    
C51   C52   A    
C31   N3    D    
C59   H29   S    
C1    O3    A    
Cu2   O2    S    
C19   C21   A    
Cu1   O8    S    
C46   N2    S    
C52   H21   S    
N6    C60   S    
C36   N2    A    
C9    C22   A    
C62   H41   S    
C35   N1    A    
N7    H35   S    
C35   O12   S    
C3    C18   A    
C64   H49   S    
C11   C23   S    
Cu1   O1    S    
C12   C42   A    
N5    C59   S    
Cu1   Cu2   S    
N7    C61   S    
C5    C33   A    
C20   H12   S    
C58   H26   S    
C32   N4    D    
C63   H46   S    
C1    C27   S    
C44   H4    S    
C49   H18   S    
C29   H16   S    
C30   H15   S    
C41   C43   A    
Cu2   O7    S    
C42   C44   A    
C23   O5    A    
C2    O4    A    
N3    N8    S    
C44   C46   A    
C53   C58   A    
C47   C48   A    
C10   C21   A    
C32   H1    S    
C59   H30   S    
N8    C62   S    
C13   C19   A    
Cu2   O6    S    
C62   H40   S    
C57   H25   S    
C50   C51   A    
Cu1   O5    S    
C4    C6    A    
C61   H38   S    
C8    H6    S    
C5    C7    A    
C56   H24   S    
C24   O8    A    
C15   C26   A    
C6    C8    A    
C19   H11   S    
C1    O1    A    
C6    C34   A    
C12   C40   A    
N9    C63   S    
C21   H9    S    
C29   C30   S    
C3    C9    A    
C14   C20   A    
C49   C50   A    
C40   H7    S    
C41   C47   S    
C57   C58   A    
C60   H33   S    
C39   H8    S    
C25   H13   S    
C11   C39   A    
C43   C45   A    
N8    H39   S    
C4    C17   A    
C20   C22   A    
C45   N1    S    
N10   H47   S    
C37   N10   S    
C50   H19   S    
C7    H5    S    
Cu2   O3    S    
C4    C10   A    
N9    H43   S    
Cu1   N4    S    
C9    C35   A    
C63   H44   S    
C16   C25   A    
C15   C17   A    
C60   H32   S    
C31   C32   S    
C47   C52   A    
C23   O7    A    
C3    C5    A    
C36   O11   S    
C22   H10   S    
C62   H42   S    
C51   H20   S    
C24   O6    A    
C59   H28   S    
C12   C24   S    
C7    C25   A    
C13   C17   A    
C61   H37   S    
C26   H14   S    
C37   C39   A    
C61   H36   S    
C34   O10   S    
C38   C40   A    
C28   N5    S    
C33   O9    S    
C55   H23   S    
C28   C30   D    
C53   C54   A    
C10   C36   A    
C11   C41   A    
C60   H34   S    
C42   C53   S    
Cu2   N3    S    
C55   C56   A    
Cu1   O4    S    
C38   C46   A    
N4    N7    S    
C27   N6    S    
C16   C18   A    
C48   C49   A    
C13   C16   A    
N6    H31   S    
N5    H27   S    
N10   C64   S    
C14   C15   A    
C2    C28   S    
C31   H2    S    
C2    O2    A    
C37   C45   A    
C54   H22   S    
C48   H17   S    
C63   H45   S    
