data_mof_unit_58649.cif
_audit_creation_date              2012-12-10T17:48:16-0500
_audit_creation_method            fapswitch 2.2
_symmetry_space_group_name_H-M    P1
_symmetry_Int_Tables_number       1
_space_group_crystal_system       triclinic
_cell_length_a                    13.872021
_cell_length_b                    14.738286
_cell_length_c                    14.647913
_cell_angle_alpha                 114.797937
_cell_angle_beta                  106.135197
_cell_angle_gamma                 72.06882
_cell_volume                      2547.90895905

loop_
_atom_site_label
_atom_site_type_symbol
_atom_type_description
_atom_site_fract_x
_atom_site_fract_y
_atom_site_fract_z
_atom_type_partial_charge
C1    C     C_R   0.516724 0.118246 0.688324 0.797891
C2    C     C_R   0.484324 0.881345 0.311363 0.810065
C3    C     C_R   0.537975 0.355141 0.924701 0.093746
C4    C     C_R   0.515901 0.636335 0.080229 0.085971
C5    C     C_R   0.542078 0.318407 0.001228 0.086894
C6    C     C_R   0.495331 0.675148 0.001712 0.087102
C7    C     C_R   0.532239 0.461346 0.951186 0.084089
C8    C     C_R   0.533210 0.528634 0.055223 0.080628
C9    C     C_R   0.545131 0.486601 0.129776 -0.221430
C10   C     C_R   0.519566 0.503513 0.876533 -0.228020
C11   C     C_R   0.548659 0.383816 0.102881 -0.205537
C12   C     C_R   0.500858 0.608328 0.901585 -0.204324
C13   C     C_R   0.314718 0.308287 0.345094 -0.293607
C14   C     C_R   0.682403 0.693141 0.657761 -0.287122
C15   C     C_R   0.348598 0.219866 0.367570 0.101031
C16   C     C_R   0.649004 0.781679 0.635419 0.102191
C17   C     C_R   0.489200 0.283568 0.487072 0.081366
C18   C     C_R   0.510418 0.716740 0.512734 0.059526
C19   C     C_R   0.462896 0.373367 0.463166 -0.007045
C20   C     C_R   0.535662 0.627223 0.537077 -0.004152
C21   C     C_R   0.370239 0.386087 0.394292 0.088558
C22   C     C_R   0.627674 0.614792 0.606931 0.084576
C23   C     C_R   0.687206 0.987200 0.504844 0.818803
C24   C     C_R   0.312881 0.013276 0.495943 0.797880
C25   C     C_R   0.520778 0.452584 0.508708 -0.080269
C26   C     C_R   0.477367 0.548107 0.491540 -0.079300
C27   C     C_R   0.377200 0.561672 0.430939 0.454546
C28   C     C_R   0.620499 0.439455 0.569932 0.429469
C29   C     C_R   0.328376 0.478785 0.380335 -0.289508
C30   C     C_R   0.669225 0.522093 0.620865 -0.278354
C31   C     C_1   0.207222 0.020474 0.492624 -0.181003
C32   C     C_1   0.793090 0.981691 0.510877 -0.162487
C33   C     C_2   0.012457 0.031359 0.485618 -0.170851
C34   C     C_2   0.988069 0.973988 0.522319 -0.162131
C35   C     C_1   0.882187 0.977698 0.516427 0.004061
C36   C     C_1   0.118260 0.026085 0.489456 0.000685
C37   C     C_R   0.526001 0.184548 0.796933 -0.161416
C38   C     C_R   0.482573 0.813127 0.202907 -0.163447
C39   C     C_R   0.536387 0.216985 0.975262 -0.269507
C40   C     C_R   0.466390 0.780846 0.023419 -0.272587
C41   C     C_R   0.522427 0.151504 0.873281 0.459672
C42   C     C_R   0.452827 0.849685 0.121926 0.473145
C43   C     C_R   0.535614 0.284686 0.823684 -0.323426
C44   C     C_R   0.515375 0.707265 0.180817 -0.317980
Cu1   Cu    Cu3+1 0.526370 0.916390 0.524860 0.943158
Cu2   Cu    Cu3+1 0.473630 0.083610 0.475140 0.952844
H1    H     H_    0.243746 0.317075 0.291769 0.134529
H2    H     H_    0.751999 0.684983 0.712874 0.140136
H3    H     H_    0.553581 0.355959 0.162172 0.149933
H4    H     H_    0.487566 0.637423 0.841285 0.149202
H5    H     H_    0.541333 0.681790 0.244025 0.170952
H6    H     H_    0.540689 0.305592 0.763455 0.157121
H7    H     H_    0.537609 0.189761 0.033902 0.160243
H8    H     H_    0.448707 0.810198 0.962646 0.153033
H9    H     H_    0.547824 0.531253 0.209919 0.136199
H10   H     H_    0.519363 0.458529 0.796676 0.132569
H11   H     H_    0.450791 0.728071 0.451726 0.178455
H12   H     H_    0.548500 0.273152 0.548587 0.159876
H13   H     H_    0.691505 0.841868 0.673864 0.135693
H14   H     H_    0.304109 0.161523 0.332758 0.110836
N1    N     N_R   0.433980 0.209250 0.437830 -0.191481
N2    N     N_R   0.566020 0.790750 0.562170 -0.200122
O1    O     O_R   0.534760 0.019630 0.662610 -0.551882
O2    O     O_R   0.465240 0.980370 0.337390 -0.544798
O3    O     O_R   0.490220 0.160840 0.620610 -0.599929
O4    O     O_R   0.509780 0.839160 0.379390 -0.601184
O5    O     O_R   0.663260 0.919400 0.523940 -0.582698
O6    O     O_R   0.336740 0.080600 0.476060 -0.584920
O7    O     O_R   0.618720 0.060610 0.481950 -0.566374
O8    O     O_R   0.381280 0.939390 0.518050 -0.576549
H15   H     H_    0.047353 0.923475 0.556164 0.162186
H16   H     H_    0.953173 0.081655 0.451521 0.159974
O9    O     O_3   0.321966 0.660015 0.436574 -0.633032
C45   C     C_3   0.262185 0.667086 0.342660 0.038735
H17   H     H_    0.230893 0.750048 0.357183 0.181597
H18   H     H_    0.193464 0.633985 0.319691 0.139990
C46   C     C_3   0.324747 0.623406 0.255591 -0.407105
H19   H     H_    0.393835 0.656262 0.282039 0.214485
H20   H     H_    0.350139 0.538832 0.231855 0.218094
C47   C     C_3   0.261456 0.648973 0.162663 -0.876455
H21   H     H_    0.190953 0.617671 0.134542 0.252703
H22   H     H_    0.307761 0.614461 0.100614 0.265328
H23   H     H_    0.239477 0.733278 0.182469 0.247327
O10   O     O_3   0.678159 0.342033 0.563922 -0.620486
C48   C     C_3   0.722874 0.335460 0.661448 0.013501
H24   H     H_    0.693674 0.276900 0.668551 0.153825
H25   H     H_    0.702854 0.407426 0.727499 0.126766
C49   C     C_3   0.839673 0.299227 0.668818 -0.306685
H26   H     H_    0.857981 0.226140 0.603913 0.234685
H27   H     H_    0.871804 0.356985 0.663783 0.208930
C50   C     C_3   0.890511 0.281994 0.768657 -0.911622
H28   H     H_    0.874564 0.354420 0.834848 0.255955
H29   H     H_    0.975027 0.255654 0.771437 0.256978
H30   H     H_    0.861279 0.222478 0.774015 0.258084
O11   O     O_3   0.414804 0.952443 0.137173 -0.600509
C51   C     C_3   0.307662 0.978268 0.137926 0.071114
H31   H     H_    0.283320 0.062854 0.162684 0.164504
H32   H     H_    0.289612 0.956328 0.194447 0.118951
C52   C     C_3   0.244693 0.932538 0.031659 -0.404351
H33   H     H_    0.271275 0.945410 0.974178 0.237658
H34   H     H_    0.255694 0.848711 0.010376 0.214223
C53   C     C_3   0.130103 0.980679 0.029721 -0.901005
H35   H     H_    0.101768 0.967548 0.086056 0.256323
H36   H     H_    0.086825 0.945390 0.952451 0.260890
H37   H     H_    0.115600 0.064342 0.047852 0.251677
O12   O     O_3   0.508814 0.054602 0.850529 -0.602711
C54   C     C_3   0.403445 0.051763 0.813234 0.104468
H38   H     H_    0.399391 0.971004 0.764670 0.179958
H39   H     H_    0.364684 0.097293 0.763315 0.111270
C55   C     C_3   0.344737 0.086904 0.901050 -0.387943
H40   H     H_    0.381836 0.038859 0.948340 0.242881
H41   H     H_    0.346859 0.167895 0.950185 0.217929
C56   C     C_3   0.232499 0.078920 0.860644 -0.921278
H42   H     H_    0.194100 0.126836 0.813421 0.259536
H43   H     H_    0.191417 0.106550 0.925699 0.264040
H44   H     H_    0.227490 0.998088 0.813766 0.257203
H45   H     H_    0.252721 0.487856 0.334580 0.141614
H46   H     H_    0.745030 0.511460 0.666516 0.146562

loop_
_geom_bond_atom_site_label_1
_geom_bond_atom_site_label_2
_ccdc_geom_bond_type
C7    C10   A    
C28   O10   S    
C15   H14   S    
C23   O7    A    
O11   C51   S    
C4    C8    A    
C24   O8    A    
C7    C8    A    
C39   C41   A    
C46   H19   S    
C25   C28   A    
C38   C44   A    
C3    C43   A    
C26   C27   A    
C45   H18   S    
C19   C21   A    
C5    C11   A    
C3    C7    A    
C6    C12   A    
C43   H6    S    
C48   C49   S    
C27   C29   A    
O12   C54   S    
C51   C52   S    
Cu1   N2    S    
C33   C36   S    
C53   H37   S    
C34   C35   S    
O9    C45   S    
C23   O5    A    
C55   H40   S    
Cu2   O7    S    
C33   H16   S    
C17   N1    A    
C8    C9    A    
C45   C46   S    
C51   H32   S    
Cu1   O5    S    
C1    O3    A    
C54   H38   S    
C9    H9    S    
C10   H10   S    
C18   C20   A    
C1    C37   S    
C17   H12   S    
C56   H44   S    
C40   C42   A    
C54   H39   S    
C16   N2    A    
C47   H23   S    
C1    O1    A    
C2    O2    A    
C46   H20   S    
C41   O12   S    
C48   H25   S    
C42   O11   S    
C32   C35   T    
O10   C48   S    
Cu2   O3    S    
C47   H22   S    
C45   H17   S    
C50   H28   S    
C13   H1    S    
C18   N2    A    
C14   H2    S    
Cu2   N1    S    
C3    C5    A    
C25   C26   A    
Cu1   Cu2   S    
C29   H45   S    
Cu1   O1    S    
Cu2   O2    S    
C16   H13   S    
C37   C43   A    
Cu2   O6    S    
C11   H3    S    
C50   H29   S    
C2    C38   S    
C18   H11   S    
C52   H33   S    
C49   C50   S    
C51   H31   S    
C33   C34   D    
C15   N1    A    
C13   C21   A    
C53   H36   S    
C9    C11   A    
C55   C56   S    
C48   H24   S    
C10   C12   A    
C44   H5    S    
C4    C6    A    
C52   H34   S    
C49   H27   S    
C40   H8    S    
C5    C39   A    
C54   C55   S    
C14   C16   A    
C56   H42   S    
C46   C47   S    
C22   C30   A    
Cu1   O8    S    
C20   C22   A    
C47   H21   S    
C2    O4    A    
C12   H4    S    
C38   C42   A    
C30   H46   S    
C23   C32   S    
C14   C22   A    
C13   C15   A    
C24   C31   S    
C20   C26   A    
C50   H30   S    
C39   H7    S    
C21   C29   A    
C28   C30   A    
C17   C19   A    
C6    C40   A    
C37   C41   A    
C53   H35   S    
C19   C25   A    
C55   H41   S    
C24   O6    A    
C52   C53   S    
C49   H26   S    
Cu1   O4    S    
C31   C36   T    
C27   O9    S    
C34   H15   S    
C56   H43   S    
C4    C44   A    
