data_mof_unit_5898.cif
_audit_creation_date              2012-12-11T15:50:41-0500
_audit_creation_method            fapswitch 2.2
_symmetry_space_group_name_H-M    P1
_symmetry_Int_Tables_number       1
_space_group_crystal_system       triclinic
_cell_length_a                    6.948721
_cell_length_b                    14.8427
_cell_length_c                    15.927537
_cell_angle_alpha                 89.999758
_cell_angle_beta                  89.999647
_cell_angle_gamma                 89.999678
_cell_volume                      1642.73082588

loop_
_atom_site_label
_atom_site_type_symbol
_atom_type_description
_atom_site_fract_x
_atom_site_fract_y
_atom_site_fract_z
_atom_type_partial_charge
O1    O     O_R   0.638140 0.833910 0.163320 -0.522890
O2    O     O_R   0.361860 0.166090 0.836680 -0.515882
O3    O     O_R   0.361860 0.166090 0.663320 -0.522879
O4    O     O_R   0.638140 0.833910 0.336680 -0.515879
O5    O     O_R   0.138140 0.666090 0.336680 -0.522895
O6    O     O_R   0.861860 0.333910 0.663320 -0.515871
O7    O     O_R   0.861860 0.333910 0.836680 -0.522895
O8    O     O_R   0.138140 0.666090 0.163320 -0.515863
O9    O     O_R   0.308390 0.844930 0.336080 -0.548386
O10   O     O_R   0.691610 0.155070 0.663920 -0.550697
O11   O     O_R   0.691610 0.155070 0.836080 -0.548382
O12   O     O_R   0.308390 0.844930 0.163920 -0.550685
O13   O     O_R   0.808390 0.655070 0.163920 -0.548400
O14   O     O_R   0.191610 0.344930 0.836080 -0.550701
O15   O     O_R   0.191610 0.344930 0.663920 -0.548400
O16   O     O_R   0.808390 0.655070 0.336080 -0.550700
C1    C     C_R   0.478289 0.871320 0.361049 0.733841
C2    C     C_R   0.522801 0.135897 0.632368 0.705523
C3    C     C_R   0.521711 0.128681 0.861050 0.733843
C4    C     C_R   0.477200 0.864106 0.132370 0.705522
C5    C     C_R   0.978289 0.628680 0.138950 0.733869
C6    C     C_R   0.022800 0.364104 0.867632 0.705521
C7    C     C_R   0.021711 0.371322 0.638953 0.733851
C8    C     C_R   0.977199 0.635896 0.367631 0.705526
O17   O     O_3   0.471620 0.691320 0.250000 -0.363195
O18   O     O_3   0.528380 0.308680 0.750000 -0.363193
O19   O     O_3   0.971620 0.808680 0.250000 -0.363181
O20   O     O_3   0.028380 0.191320 0.750000 -0.363179
V1    V     V_3+5 0.196770 0.760880 0.250000 1.464725
V2    V     V_3+5 0.803230 0.239120 0.750000 1.464710
V3    V     V_3+5 0.696770 0.739120 0.250000 1.464689
V4    V     V_3+5 0.303230 0.260880 0.750000 1.464687
C9    C     C_R   0.820348 0.537351 0.478011 -0.324295
C10   C     C_R   0.176328 0.481922 0.539640 -0.324439
C11   C     C_R   0.179651 0.462650 0.978008 -0.324288
C12   C     C_R   0.823672 0.518078 0.039641 -0.324442
C13   C     C_R   0.320353 0.962653 0.021995 -0.324268
C14   C     C_R   0.676330 0.018091 0.960372 -0.324440
C15   C     C_R   0.679649 0.037350 0.521989 -0.324300
C16   C     C_R   0.323671 0.981917 0.460364 -0.324437
H1    H     H_    0.680861 0.557610 0.455016 0.216701
H2    H     H_    0.315262 0.460581 0.562070 0.209096
H3    H     H_    0.319138 0.442391 0.955013 0.216701
H4    H     H_    0.684739 0.539418 0.062072 0.209099
H5    H     H_    0.180867 0.942385 0.044985 0.216690
H6    H     H_    0.815263 0.039432 0.937942 0.209090
H7    H     H_    0.819136 0.057614 0.544979 0.216704
H8    H     H_    0.184738 0.960578 0.437934 0.209098
C17   C     C_R   0.830257 0.479886 0.548502 0.458650
C18   C     C_R   0.166472 0.551919 0.480413 0.434568
C19   C     C_R   0.169743 0.520116 0.048499 0.458654
C20   C     C_R   0.833528 0.448081 0.980414 0.434571
C21   C     C_R   0.330260 0.020117 0.951503 0.458672
C22   C     C_R   0.666475 0.948092 0.019596 0.434586
C23   C     C_R   0.669740 0.979883 0.451499 0.458673
C24   C     C_R   0.333528 0.051913 0.519591 0.434587
C25   C     C_R   0.009075 0.444155 0.574101 -0.206478
C26   C     C_R   0.988498 0.572934 0.441390 -0.216484
C27   C     C_R   0.990925 0.555847 0.074099 -0.206489
C28   C     C_R   0.011501 0.427066 0.941390 -0.216484
C29   C     C_R   0.509076 0.055853 0.925906 -0.206474
C30   C     C_R   0.488501 0.927073 0.058617 -0.216517
C31   C     C_R   0.490923 0.944151 0.425902 -0.206480
C32   C     C_R   0.511502 0.072933 0.558611 -0.216502
O21   O     O_3   0.667451 0.463862 0.596250 -0.547346
C33   C     C_3   0.633355 0.539343 0.649103 0.032150
H9    H     H_    0.506510 0.575648 0.625185 0.155104
H10   H     H_    0.756493 0.587658 0.653841 0.094265
C34   C     C_3   0.583807 0.509703 0.737711 -0.637187
H11   H     H_    0.702289 0.468593 0.763965 0.237086
H12   H     H_    0.564252 0.569877 0.778278 0.148143
H13   H     H_    0.446875 0.471350 0.737608 0.230646
O22   O     O_3   0.330564 0.602197 0.465669 -0.554530
C35   C     C_3   0.316507 0.683645 0.512041 0.100399
H14   H     H_    0.266331 0.672465 0.577773 0.087736
H15   H     H_    0.213878 0.730566 0.481175 0.131888
C36   C     C_3   0.512002 0.729921 0.515775 -0.734090
H16   H     H_    0.581438 0.727572 0.453508 0.246064
H17   H     H_    0.493930 0.800737 0.536527 0.177687
H18   H     H_    0.610275 0.696911 0.560572 0.181652
O23   O     O_3   0.332548 0.536140 0.096246 -0.547347
C37   C     C_3   0.366638 0.460659 0.149102 0.032141
H19   H     H_    0.493475 0.424349 0.125182 0.155108
H20   H     H_    0.243494 0.412349 0.153844 0.094267
C38   C     C_3   0.416201 0.490300 0.237707 -0.637192
H21   H     H_    0.297724 0.531411 0.263964 0.237090
H22   H     H_    0.435760 0.430126 0.278274 0.148141
H23   H     H_    0.553135 0.528651 0.237598 0.230648
O24   O     O_3   0.669434 0.397804 0.965670 -0.554529
C39   C     C_3   0.683487 0.316356 0.012042 0.100401
H24   H     H_    0.733659 0.327535 0.077774 0.087736
H25   H     H_    0.786118 0.269435 0.981176 0.131883
C40   C     C_3   0.487991 0.270080 0.015774 -0.734098
H26   H     H_    0.418563 0.272427 0.953506 0.246063
H27   H     H_    0.506060 0.199265 0.036529 0.177686
H28   H     H_    0.389712 0.303091 0.060568 0.181654
O25   O     O_3   0.167458 0.036125 0.903750 -0.547350
C41   C     C_3   0.133394 0.960637 0.850901 0.032185
H29   H     H_    0.006452 0.924375 0.874768 0.155098
H30   H     H_    0.256458 0.912284 0.846236 0.094283
C42   C     C_3   0.084121 0.990258 0.762267 -0.637283
H31   H     H_    0.202688 0.031359 0.736070 0.237020
H32   H     H_    0.064652 0.930073 0.721707 0.148174
H33   H     H_    0.947222 0.028627 0.762288 0.230678
O26   O     O_3   0.830551 0.897795 0.034317 -0.554519
C43   C     C_3   0.816427 0.816359 0.987934 0.100446
H34   H     H_    0.766242 0.827561 0.922207 0.087742
H35   H     H_    0.713780 0.769447 0.018800 0.131876
C44   C     C_3   0.011884 0.770055 0.984175 -0.734133
H36   H     H_    0.081396 0.772405 0.046424 0.246031
H37   H     H_    0.993747 0.699241 0.963445 0.177704
H38   H     H_    0.110100 0.803038 0.939347 0.181651
O27   O     O_3   0.832545 0.963867 0.403748 -0.547339
C45   C     C_3   0.866600 0.039346 0.350885 0.032133
H39   H     H_    0.993496 0.075631 0.374764 0.155095
H40   H     H_    0.743505 0.087676 0.346187 0.094293
C46   C     C_3   0.915965 0.009716 0.262267 -0.637318
H41   H     H_    0.797455 0.968600 0.236060 0.237067
H42   H     H_    0.935407 0.069894 0.221704 0.148167
H43   H     H_    0.052888 0.971370 0.262310 0.230665
O28   O     O_3   0.169434 0.102193 0.534334 -0.554516
C47   C     C_3   0.183490 0.183637 0.487955 0.100441
H44   H     H_    0.233640 0.172449 0.422221 0.087730
H45   H     H_    0.286138 0.230556 0.518808 0.131865
C48   C     C_3   0.988001 0.229922 0.484227 -0.734088
H46   H     H_    0.918567 0.227570 0.546494 0.246067
H47   H     H_    0.006079 0.300736 0.463475 0.177685
H48   H     H_    0.889722 0.196919 0.439432 0.181654

loop_
_geom_bond_atom_site_label_1
_geom_bond_atom_site_label_2
_ccdc_geom_bond_type
O17   V3    S    
C33   H10   S    
O18   V4    S    
C40   H26   S    
O12   V1    S    
O19   V1    S    
O22   C35   S    
C10   H2    S    
C9    C26   A    
C12   C27   A    
O23   C37   S    
O15   V4    S    
C38   H21   S    
O16   V3    S    
C15   C32   A    
O11   C3    A    
C42   H31   S    
C16   C31   A    
C17   O21   S    
O7    C6    A    
O8    V1    S    
C3    C29   S    
C5    C27   S    
C44   H37   S    
C6    C28   S    
C36   H18   S    
C33   C34   S    
C43   H34   S    
C9    C17   A    
O1    V3    S    
C17   C25   A    
O3    C2    A    
O2    V4    S    
C34   H12   S    
C16   H8    S    
C20   C28   A    
C21   C29   A    
C15   C23   A    
O11   V2    S    
C16   C24   A    
C35   C36   S    
C23   C31   A    
C48   H48   S    
C24   C32   A    
C11   H3    S    
C19   O23   S    
C12   C20   A    
O9    V1    S    
O4    V3    S    
C14   C29   A    
C13   C21   A    
O15   C7    A    
C33   H9    S    
O16   C8    A    
O7    V2    S    
C20   O24   S    
C34   H11   S    
O25   C41   S    
O5    V1    S    
C36   H17   S    
O17   V1    S    
C10   C18   A    
C35   H14   S    
C38   H22   S    
O19   V3    S    
C18   C26   A    
O20   V4    S    
C46   H43   S    
C23   O27   S    
C21   O25   S    
C36   H16   S    
C11   C28   A    
C34   H13   S    
C10   C25   A    
O10   V2    S    
C39   H25   S    
C14   C22   A    
O12   C4    A    
O8    C5    A    
O13   C5    A    
O28   C47   S    
C35   H15   S    
O4    C1    A    
O9    C1    A    
O6    V2    S    
C37   H19   S    
C40   H28   S    
C41   H30   S    
C11   C19   A    
C48   H46   S    
C44   H38   S    
C19   C27   A    
C13   H5    S    
C41   C42   S    
C39   C40   S    
C15   H7    S    
O27   C45   S    
C42   H32   S    
C38   H23   S    
C7    C25   S    
O1    C4    A    
C22   O26   S    
O2    C3    A    
O13   V3    S    
O14   V4    S    
C45   H40   S    
O18   V2    S    
C42   H33   S    
C37   C38   S    
C22   C30   A    
O26   C43   S    
C37   H20   S    
C9    H1    S    
C24   O28   S    
O14   C6    A    
C47   C48   S    
C46   H42   S    
C47   H44   S    
C44   H36   S    
C1    C31   S    
C2    C32   S    
C39   H24   S    
C40   H27   S    
O5    C8    A    
C43   H35   S    
O10   C2    A    
O6    C7    A    
C18   O22   S    
O20   V2    S    
C45   H39   S    
O21   C33   S    
C4    C30   S    
O3    V4    S    
C14   H6    S    
C45   C46   S    
C12   H4    S    
C8    C26   S    
C41   H29   S    
C48   H47   S    
C13   C30   A    
O24   C39   S    
C46   H41   S    
C47   H45   S    
C43   C44   S    
