data_mof_unit_50751.cif
_audit_creation_date              2013-03-05T15:41:04-0500
_audit_creation_method            fapswitch 2.2
_symmetry_space_group_name_H-M    P1
_symmetry_Int_Tables_number       1
_space_group_crystal_system       triclinic
_cell_length_a                    7.829689
_cell_length_b                    8.625368
_cell_length_c                    11.508937
_cell_angle_alpha                 91.266817
_cell_angle_beta                  85.727766
_cell_angle_gamma                 92.858906
_cell_volume                      773.987586191

loop_
_atom_site_label
_atom_site_type_symbol
_atom_site_description
_atom_site_fract_x
_atom_site_fract_y
_atom_site_fract_z
_atom_type_partial_charge
O1    O     O_R   0.389250 0.738570 0.507480 -0.588867
O2    O     O_R   0.610750 0.261430 0.492520 -0.588839
O3    O     O_R   0.678390 0.711630 0.487940 -0.569435
O4    O     O_R   0.321610 0.288370 0.512060 -0.569362
C1    C     C_R   0.544243 0.793684 0.496271 0.840543
C2    C     C_R   0.455757 0.206315 0.503724 0.840804
O5    O     O_R   0.355420 0.513450 0.675320 -0.592474
O6    O     O_R   0.644580 0.486550 0.324680 -0.592499
O7    O     O_R   0.644570 0.486510 0.655780 -0.585009
O8    O     O_R   0.355430 0.513490 0.344220 -0.585009
C3    C     C_R   0.501576 0.500156 0.717747 0.852208
C4    C     C_R   0.498424 0.499845 0.282252 0.852219
Zn1   Zn    Zn3+2 0.306940 0.517990 0.513050 1.119943
Zn2   Zn    Zn3+2 0.693060 0.482010 0.486950 1.119921
C5    C     C_1   0.503972 0.499845 0.838133 -0.105439
C6    C     C_1   0.496029 0.500158 0.161866 -0.105433
C7    C     C_1   0.502061 0.499896 0.940536 0.029610
C8    C     C_1   0.497940 0.500109 0.059464 0.029609
C9    C     C_2   0.564489 0.954795 0.480003 0.205883
C10   C     C_2   0.435516 0.045206 0.519997 0.205860
N1    N     N_2   0.950330 0.457960 0.469510 0.051239
N2    N     N_2   0.049670 0.542040 0.530490 0.051233
O9    O     O_3   0.715948 0.012438 0.422250 -0.552134
C11   C     C_3   0.702435 0.993384 0.301142 -0.162553
H1    H     H_    0.592191 0.055498 0.272132 0.118255
H2    H     H_    0.691418 0.868393 0.275247 0.138777
H3    H     H_    0.820746 0.044463 0.255048 0.227446
O10   O     O_3   0.284049 0.987586 0.577751 -0.552155
C12   C     C_3   0.297721 0.006330 0.698862 -0.162213
H4    H     H_    0.309416 0.131232 0.724887 0.138257
H5    H     H_    0.407623 0.943646 0.727746 0.118437
H6    H     H_    0.179202 0.955666 0.744952 0.227414
N3    N     N_R   0.023308 0.414332 0.361223 0.308199
O11   O     O_R   0.009551 0.502147 0.272307 -0.374895
O12   O     O_R   0.066610 0.271767 0.343162 -0.361437
N4    N     N_R   0.976691 0.585670 0.638776 0.308193
O13   O     O_R   0.990446 0.497856 0.727693 -0.374843
O14   O     O_R   0.933396 0.728237 0.656837 -0.361455

loop_
_geom_bond_atom_site_label_1
_geom_bond_atom_site_label_2
_geom_bond_distance
_ccdc_geom_bond_type
C9    O9    1.390565 S    
O7    Zn2   1.951751 S    
C12   H4    1.112971 S    
C1    C9    1.405845 S    
N1    N3    1.384158 S    
N2    N4    1.384159 S    
C9    C10   1.353945 D    
C11   H3    1.109068 S    
O6    C4    1.288394 A    
N4    O14   1.300019 A    
C7    C8    1.366665 S    
C12   H5    1.113674 S    
N1    N2    1.275155 D    
O5    C3    1.288394 A    
O7    C3    1.290908 A    
O2    C2    1.279514 A    
O3    Zn2   1.989329 S    
O8    C4    1.290908 A    
O1    C1    1.279516 A    
Zn2   N1    2.029902 S    
O4    C2    1.292074 A    
N4    O13   1.300522 A    
N3    O12   1.300019 A    
C11   H2    1.113049 S    
Zn1   N2    2.029903 S    
N3    O11   1.300522 A    
C12   H6    1.109018 S    
O2    Zn2   1.978936 S    
O1    Zn1   1.978937 S    
O9    C11   1.411053 S    
O5    Zn1   1.934868 S    
C2    C10   1.405832 S    
C11   H1    1.113806 S    
C6    C8    1.177519 T    
O4    Zn1   1.989329 S    
C5    C7    1.177519 T    
O10   C12   1.411026 S    
O6    Zn2   1.934868 S    
C10   O10   1.390550 S    
C3    C5    1.387101 S    
C4    C6    1.387101 S    
O3    C1    1.292065 A    
O8    Zn1   1.951751 S    
