data_mof_unit_35691.cif
_audit_creation_date              2012-12-10T20:59:41-0500
_audit_creation_method            fapswitch 2.2
_symmetry_space_group_name_H-M    P1
_symmetry_Int_Tables_number       1
_space_group_crystal_system       triclinic
_cell_length_a                    15.702267
_cell_length_b                    15.054907
_cell_length_c                    10.657542
_cell_angle_alpha                 89.891925
_cell_angle_beta                  90.968376
_cell_angle_gamma                 90.105963
_cell_volume                      2519.03362837

loop_
_atom_site_label
_atom_site_type_symbol
_atom_type_description
_atom_site_fract_x
_atom_site_fract_y
_atom_site_fract_z
_atom_type_partial_charge
C1    C     C_R   0.338448 0.499890 0.498842 0.876216
C2    C     C_1   0.175076 0.494726 0.523817 0.055063
C3    C     C_1   0.249741 0.498826 0.509852 -0.214513
C4    C     C_1   0.749781 0.497328 0.526998 -0.206603
C5    C     C_R   0.443221 0.952306 0.416440 0.367915
C6    C     C_R   0.445333 0.046954 0.412749 0.415594
C7    C     C_R   0.498851 0.500360 0.257102 0.887751
C8    C     C_R   0.498316 0.904972 0.499006 -0.087476
C9    C     C_R   0.497866 0.094858 0.498061 -0.077796
C10   C     C_R   0.551343 0.953400 0.581477 -0.238030
C11   C     C_R   0.550744 0.046939 0.581500 -0.255996
C12   C     C_3   0.579295 0.454546 0.930976 -0.399301
C13   C     C_1   0.499802 0.807127 0.499832 0.128509
C14   C     C_1   0.498980 0.192810 0.499345 0.118201
C15   C     C_R   0.661592 0.499810 0.503155 0.889620
C16   C     C_R   0.499096 0.500312 0.742893 0.839198
C17   C     C_3   0.493879 0.599398 0.073331 -0.470901
C18   C     C_3   0.418921 0.450269 0.070804 -0.448336
C19   C     C_3   0.489421 0.599500 0.930456 0.307972
C20   C     C_3   0.418146 0.449077 0.925949 0.341881
C21   C     C_3   0.580468 0.457626 0.074547 -0.421589
C22   C     C_3   0.497962 0.501830 0.121310 0.048270
C23   C     C_R   0.958654 0.538079 0.641891 0.112221
C24   C     C_3   0.498057 0.501426 0.878827 -0.030089
C25   C     C_3   0.627545 0.659512 0.884286 0.132345
C26   C     C_3   0.666477 0.752707 0.883892 -0.331589
C27   C     C_3   0.763446 0.750342 0.880804 -0.986771
C28   C     C_3   0.345871 0.337650 0.811051 0.156486
C29   C     C_3   0.269308 0.317489 0.893938 -0.427436
C30   C     C_3   0.190834 0.293874 0.814265 -0.939650
C31   C     C_3   0.138219 0.569412 0.796756 0.086945
C32   C     C_3   0.146803 0.638749 0.900989 -0.304244
C33   C     C_3   0.208967 0.609274 0.004588 -1.022396
C34   C     C_R   0.953380 0.411750 0.497382 0.087328
C35   C     C_3   0.094603 0.409244 0.277401 0.097488
C36   C     C_3   0.023631 0.386027 0.182524 -0.372985
C37   C     C_3   0.040508 0.425924 0.053905 -0.995324
C38   C     C_3   0.878041 0.550844 0.833877 -0.814530
C39   C     C_3   0.871002 0.278130 0.533316 -0.759076
C40   C     C_3   0.420463 0.089846 0.208237 0.124229
C41   C     C_3   0.468519 0.175537 0.177487 -0.396739
C42   C     C_3   0.491878 0.179474 0.039186 -0.910049
C43   C     C_3   0.318398 0.874564 0.392176 0.102722
C44   C     C_3   0.286934 0.791011 0.324054 -0.343986
C45   C     C_R   0.912450 0.476547 0.569061 -0.068587
C46   C     C_3   0.210525 0.749507 0.388896 -0.921799
C47   C     C_R   0.040556 0.421591 0.475856 0.378451
C48   C     C_R   0.047111 0.542392 0.630216 0.356811
C49   C     C_R   0.086604 0.486761 0.542940 -0.165305
C50   C     C_1   0.823758 0.489138 0.549402 0.077119
H1    H     H_    0.549348 0.638176 0.109262 0.201040
H2    H     H_    0.586283 0.388779 0.112024 0.194676
H3    H     H_    0.638507 0.483758 0.893556 0.130227
H4    H     H_    0.579979 0.383881 0.900532 0.223695
H5    H     H_    0.650187 0.622850 0.800854 0.152643
H6    H     H_    0.649652 0.625100 0.970893 0.119813
H7    H     H_    0.642388 0.789963 0.800431 0.228735
H8    H     H_    0.646439 0.788676 0.969463 0.222071
H9    H     H_    0.789375 0.710898 0.960867 0.267867
H10   H     H_    0.788907 0.819041 0.887703 0.269152
H11   H     H_    0.784545 0.721244 0.790939 0.285067
H12   H     H_    0.419366 0.381143 0.107792 0.218049
H13   H     H_    0.360822 0.277162 0.756147 0.168756
H14   H     H_    0.330071 0.390428 0.741114 0.129528
H15   H     H_    0.285047 0.261069 0.957557 0.234726
H16   H     H_    0.254293 0.376209 0.952424 0.211296
H17   H     H_    0.172017 0.351055 0.753887 0.262560
H18   H     H_    0.136988 0.277202 0.876282 0.268133
H19   H     H_    0.204046 0.235480 0.754137 0.275102
H20   H     H_    0.202865 0.550217 0.765820 0.151445
H21   H     H_    0.106248 0.509539 0.836118 0.139457
H22   H     H_    0.169921 0.702427 0.860853 0.236652
H23   H     H_    0.593452 0.918716 0.646404 0.163824
H24   H     H_    0.083187 0.650560 0.941967 0.211802
H25   H     H_    0.191188 0.543135 0.042055 0.264307
H26   H     H_    0.208435 0.658090 0.082531 0.272497
H27   H     H_    0.274442 0.606106 0.967654 0.255352
H28   H     H_    0.156213 0.385425 0.240368 0.167805
H29   H     H_    0.100452 0.482966 0.285602 0.124903
H30   H     H_    0.018707 0.312645 0.173492 0.232219
H31   H     H_    0.961968 0.412392 0.215644 0.217576
H32   H     H_    0.103336 0.403909 0.019697 0.266923
H33   H     H_    0.039058 0.499556 0.059090 0.273316
H34   H     H_    0.592129 0.082099 0.646929 0.168582
H35   H     H_    0.990517 0.403637 0.986103 0.269691
H36   H     H_    0.945998 0.653904 0.748907 0.263278
H37   H     H_    0.906266 0.577185 0.922616 0.234082
H38   H     H_    0.888159 0.477735 0.832410 0.242723
H39   H     H_    0.808445 0.563132 0.832957 0.240761
H40   H     H_    0.935754 0.306444 0.372045 0.257010
H41   H     H_    0.923263 0.245051 0.587191 0.240588
H42   H     H_    0.833006 0.226579 0.483135 0.232419
H43   H     H_    0.828321 0.312518 0.599377 0.247463
H44   H     H_    0.363881 0.084660 0.144630 0.171604
H45   H     H_    0.436099 0.632894 0.109954 0.164590
H46   H     H_    0.461379 0.031187 0.187879 0.145800
H47   H     H_    0.428131 0.233647 0.200198 0.242507
H48   H     H_    0.527884 0.179195 0.235419 0.216240
H49   H     H_    0.533073 0.122350 0.014862 0.253042
H50   H     H_    0.527190 0.241879 0.020377 0.283484
H51   H     H_    0.433492 0.178169 0.978927 0.276291
H52   H     H_    0.268009 0.926332 0.387193 0.165034
H53   H     H_    0.329943 0.857239 0.492968 0.125612
H54   H     H_    0.268732 0.808173 0.225724 0.223003
H55   H     H_    0.339235 0.741361 0.321768 0.239443
H56   H     H_    0.359595 0.482040 0.104625 0.119353
H57   H     H_    0.228173 0.729231 0.486195 0.283767
H58   H     H_    0.189225 0.689577 0.336377 0.258653
H59   H     H_    0.156959 0.797507 0.391557 0.262613
H60   H     H_    0.422911 0.619491 0.906296 0.100895
H61   H     H_    0.359910 0.485606 0.893422 0.002855
H62   H     H_    0.637294 0.495365 0.108620 0.158124
N1    N     N_1   0.500020 0.270550 0.499960 -0.100586
N2    N     N_1   0.500020 0.729450 0.499960 -0.091364
N3    N     N_2   0.915817 0.594899 0.727008 -0.282248
N4    N     N_2   0.906043 0.339737 0.443226 -0.291560
O1    O     O_R   0.378020 0.573650 0.500000 -0.610042
O2    O     O_3   0.419009 0.359147 0.884614 -0.631337
O3    O     O_3   0.092626 0.607455 0.694397 -0.639379
O4    O     O_3   0.081159 0.365187 0.393355 -0.631015
O5    O     O_3   0.390576 0.092866 0.332855 -0.640000
O6    O     O_3   0.391867 0.906623 0.331575 -0.651571
O7    O     O_R   0.378020 0.426350 0.500000 -0.613451
O8    O     O_R   0.499990 0.573670 0.314770 -0.627042
O9    O     O_R   0.499990 0.426330 0.314770 -0.626480
O10   O     O_R   0.621980 0.573680 0.499940 -0.609333
O11   O     O_R   0.621980 0.426320 0.499940 -0.606635
O12   O     O_R   0.500010 0.573660 0.685180 -0.586471
O13   O     O_R   0.500010 0.426340 0.685180 -0.594179
O14   O     O_3   0.538213 0.668805 0.875049 -0.609990
Zn1   Zn    Zn3+2 0.500000 0.598370 0.499960 0.972385
Zn2   Zn    Zn3+2 0.500000 0.401630 0.499960 0.962343

loop_
_geom_bond_atom_site_label_1
_geom_bond_atom_site_label_2
_ccdc_geom_bond_type
C42   H51   S    
C8    C13   S    
C23   C45   A    
N1    Zn2   S    
O7    Zn2   S    
N2    Zn1   S    
C35   C36   S    
C25   H6    S    
C7    O8    A    
C43   C44   S    
C17   H1    S    
C6    C9    A    
C20   O2    S    
C44   H54   S    
C47   C49   A    
C44   H55   S    
C40   O5    S    
C38   H39   S    
C26   C27   S    
C30   H17   S    
O10   Zn1   S    
C37   H35   S    
C28   C29   S    
C27   H10   S    
C32   H24   S    
C5    C6    A    
C10   H23   S    
C34   N4    S    
C41   C42   S    
O11   Zn2   S    
C39   H43   S    
C27   H11   S    
C33   H25   S    
C31   H20   S    
C20   C24   S    
C15   O10   A    
C46   H58   S    
C17   H45   S    
H40   N4    S    
C13   N2    T    
O13   Zn2   S    
C19   O14   S    
C31   H21   S    
C16   C24   S    
C15   O11   A    
C21   C22   S    
C35   O4    S    
C40   H46   S    
C25   O14   S    
C39   H41   S    
C44   C46   S    
C48   O3    S    
C25   H5    S    
C32   H22   S    
C36   H30   S    
C18   H12   S    
C25   C26   S    
C5    O6    S    
O8    Zn1   S    
C4    C50   T    
H36   N3    S    
C1    C3    S    
C9    C14   S    
C1    O7    A    
C29   C30   S    
C2    C49   S    
C42   H50   S    
C20   H61   S    
C26   H8    S    
C33   H26   S    
C31   C32   S    
C36   H31   S    
C46   H57   S    
C34   C45   A    
C1    O1    A    
C7    O9    A    
C16   O13   A    
C9    C11   A    
C43   O6    S    
C31   O3    S    
C29   H15   S    
C28   H14   S    
C40   C41   S    
C41   H47   S    
C37   H32   S    
C7    C22   S    
O12   Zn1   S    
C39   H42   S    
C30   H19   S    
C19   H60   S    
C36   C37   S    
C23   C48   A    
C18   C22   S    
C12   H3    S    
C40   H44   S    
C5    C8    A    
C30   H18   S    
C11   H34   S    
C14   N1    T    
C12   C24   S    
C35   H28   S    
C17   C22   S    
C38   H37   S    
C21   H62   S    
C4    C15   S    
C2    C3    T    
C43   H52   S    
C27   H9    S    
C42   H49   S    
C32   C33   S    
C45   C50   S    
C38   N3    S    
O9    Zn2   S    
C33   H27   S    
C18   H56   S    
C48   C49   A    
C12   C21   S    
C35   H29   S    
C17   C19   S    
C19   C24   S    
C18   C20   S    
C16   O12   A    
O1    Zn1   S    
C26   H7    S    
C43   H53   S    
C10   C11   A    
C23   N3    S    
C29   H16   S    
C28   H13   S    
C8    C10   A    
C39   N4    S    
C46   H59   S    
C38   H38   S    
C47   O4    S    
C41   H48   S    
C37   H33   S    
C28   O2    S    
C34   C47   A    
C6    O5    S    
C21   H2    S    
C12   H4    S    
