data_mof_unit_61694.cif
_audit_creation_date              2013-03-05T16:26:40-0500
_audit_creation_method            fapswitch 2.2
_symmetry_space_group_name_H-M    P1
_symmetry_Int_Tables_number       1
_space_group_crystal_system       triclinic
_cell_length_a                    39.355918
_cell_length_b                    32.270942
_cell_length_c                    21.960143
_cell_angle_alpha                 89.439401
_cell_angle_beta                  124.894369
_cell_angle_gamma                 90.146135
_cell_volume                      22874.7904297

loop_
_atom_site_label
_atom_site_type_symbol
_atom_site_description
_atom_site_fract_x
_atom_site_fract_y
_atom_site_fract_z
_atom_type_partial_charge
O1    O     O_R   0.440150 0.534640 0.440170 -0.575309
O2    O     O_R   0.559850 0.534640 0.559830 -0.581310
O3    O     O_R   0.940150 0.034640 0.440170 -0.575303
O4    O     O_R   0.059850 0.034640 0.559830 -0.581449
O5    O     O_R   0.440150 0.465360 0.440130 -0.583467
O6    O     O_R   0.559850 0.465360 0.559870 -0.577881
O7    O     O_R   0.940150 0.965360 0.440130 -0.583465
O8    O     O_R   0.059850 0.965360 0.559870 -0.577733
C1    C     C_R   0.420491 0.500059 0.420443 0.823657
C2    C     C_R   0.579509 0.499941 0.579557 0.823392
C3    C     C_R   0.920491 0.000059 0.420443 0.823660
C4    C     C_R   0.079509 0.999941 0.579558 0.823376
O9    O     O_R   0.500010 0.534640 0.589030 -0.575302
O10   O     O_R   0.499990 0.534640 0.410970 -0.585192
O11   O     O_R   0.000010 0.034640 0.589030 -0.575330
O12   O     O_R   0.999990 0.034640 0.410970 -0.585236
O13   O     O_R   0.500010 0.465360 0.588990 -0.588415
O14   O     O_R   0.499990 0.465360 0.411010 -0.577178
O15   O     O_R   0.000010 0.965360 0.588990 -0.588393
O16   O     O_R   0.999990 0.965360 0.411010 -0.577125
C5    C     C_R   0.502834 0.499636 0.620287 0.855737
C6    C     C_R   0.497162 0.500353 0.379712 0.855347
C7    C     C_R   0.002835 0.999636 0.620288 0.855747
C8    C     C_R   0.997162 0.000353 0.379712 0.855299
Cu1   Cu    Cu3+1 0.500000 0.541020 0.500000 0.971015
Cu2   Cu    Cu3+1 0.000000 0.041020 0.500000 0.970894
Cu3   Cu    Cu3+1 0.500000 0.458980 0.500000 0.961964
Cu4   Cu    Cu3+1 0.000000 0.958980 0.500000 0.962125
C9    C     C_2   0.531407 0.517700 0.815423 -0.160363
C10   C     C_2   0.468601 0.482289 0.184586 -0.163154
C11   C     C_2   0.031407 0.017704 0.815423 -0.160169
C12   C     C_2   0.968600 0.982290 0.184586 -0.163040
C13   C     C_2   0.496672 0.512719 0.813357 -0.018876
C14   C     C_2   0.503335 0.487335 0.186664 -0.018884
C15   C     C_2   0.996671 0.012718 0.813356 -0.018818
C16   C     C_2   0.003335 0.987334 0.186663 -0.018871
H1    H     H_    0.561631 0.516571 0.868139 0.148047
H2    H     H_    0.438381 0.483348 0.131854 0.148792
H3    H     H_    0.061631 0.016581 0.868140 0.148067
H4    H     H_    0.938381 0.983352 0.131854 0.148810
C17   C     C_2   0.530460 0.523690 0.747696 0.181593
C18   C     C_2   0.469537 0.476299 0.252306 0.183060
C19   C     C_2   0.030459 0.023693 0.747696 0.181530
C20   C     C_2   0.969537 0.976300 0.252305 0.183098
C21   C     C_2   0.507367 0.497509 0.690845 -0.320900
C22   C     C_2   0.492635 0.502469 0.309164 -0.315337
C23   C     C_2   0.007370 0.997510 0.690848 -0.320909
C24   C     C_2   0.992636 0.002469 0.309165 -0.315302
H5    H     H_    0.492699 0.471234 0.698348 0.145146
H6    H     H_    0.507302 0.528748 0.301666 0.149832
H7    H     H_    0.992706 0.971232 0.698355 0.145160
H8    H     H_    0.007304 0.028747 0.301669 0.149746
C25   C     C_R   0.227058 0.488375 0.173727 0.134930
C26   C     C_R   0.773002 0.506169 0.828313 0.134850
C27   C     C_R   0.727058 0.988366 0.173732 0.134922
C28   C     C_R   0.272993 0.007198 0.828023 0.134867
C29   C     C_R   0.206166 0.499789 0.206533 0.082302
C30   C     C_R   0.793835 0.500116 0.793510 0.082200
C31   C     C_R   0.706166 0.999788 0.206534 0.082303
C32   C     C_R   0.293835 0.000147 0.793499 0.082215
C33   C     C_R   0.228992 0.511183 0.282214 0.089637
C34   C     C_R   0.770950 0.494076 0.715840 0.089540
C35   C     C_R   0.728992 0.011189 0.282211 0.089647
C36   C     C_R   0.270958 0.993115 0.716106 0.089554
C37   C     C_R   0.272711 0.511117 0.324819 -0.065503
C38   C     C_R   0.727232 0.494083 0.673257 -0.065129
C39   C     C_R   0.772711 0.011123 0.324816 -0.065489
C40   C     C_R   0.227241 0.993131 0.673521 -0.065143
C41   C     C_R   0.293670 0.499851 0.292628 0.008819
C42   C     C_R   0.706331 0.500041 0.707419 0.008874
C43   C     C_R   0.793670 0.999850 0.292628 0.008820
C44   C     C_R   0.206331 0.000072 0.707410 0.008863
C45   C     C_R   0.271037 0.488418 0.217020 0.166529
C46   C     C_R   0.729023 0.506139 0.785015 0.166440
C47   C     C_R   0.771037 0.988410 0.217024 0.166517
C48   C     C_R   0.229014 0.007163 0.784727 0.166424
C49   C     C_1   0.161233 0.499894 0.162369 -0.016664
C50   C     C_1   0.838767 0.500054 0.837641 -0.016865
C51   C     C_1   0.661233 0.999894 0.162369 -0.016665
C52   C     C_1   0.338767 0.000070 0.837637 -0.016827
C53   C     C_1   0.338657 0.500060 0.338030 -0.011005
C54   C     C_1   0.661344 0.499896 0.661998 -0.010913
C55   C     C_1   0.838657 0.000059 0.338030 -0.010996
C56   C     C_1   0.161344 0.999909 0.661994 -0.010926
C57   C     C_1   0.376033 0.500150 0.375758 -0.166233
C58   C     C_1   0.623968 0.499843 0.624254 -0.166351
C59   C     C_1   0.876033 0.000150 0.375758 -0.166227
C60   C     C_1   0.123968 0.999846 0.624253 -0.166354
C61   C     C_1   0.123846 0.499954 0.125060 -0.182420
C62   C     C_1   0.876154 0.500017 0.874939 -0.182457
C63   C     C_1   0.623846 0.999954 0.125060 -0.182422
C64   C     C_1   0.376154 0.000024 0.874938 -0.182445
O17   O     O_R   0.534640 0.440150 0.034560 -0.581271
O18   O     O_R   0.465360 0.440150 0.965440 -0.581215
O19   O     O_R   0.034640 0.940150 0.034560 -0.581256
O20   O     O_R   0.965360 0.940150 0.965440 -0.581216
C65   C     C_R   0.500063 0.420441 0.000062 0.824505
C66   C     C_R   0.000063 0.920441 0.000062 0.824518
O21   O     O_R   0.534630 0.500000 0.945560 -0.601043
O22   O     O_R   0.465370 0.500000 0.054440 -0.600832
O23   O     O_R   0.034630 0.000000 0.945560 -0.601003
O24   O     O_R   0.965370 0.000000 0.054440 -0.600767
O25   O     O_R   0.465350 0.500000 0.876310 -0.577923
O26   O     O_R   0.534650 0.500000 0.123690 -0.576998
O27   O     O_R   0.965350 0.000000 0.876310 -0.577952
O28   O     O_R   0.034650 0.000000 0.123690 -0.577083
C67   C     C_R   0.499422 0.503108 0.881704 0.840698
C68   C     C_R   0.500579 0.496912 0.118301 0.844353
C69   C     C_R   0.999422 0.003107 0.881703 0.840716
C70   C     C_R   0.000579 0.996912 0.118301 0.844353
Cu5   Cu    Cu3+1 0.541020 0.500000 0.040980 0.963017
Cu6   Cu    Cu3+1 0.458980 0.500000 0.959020 0.962668
Cu7   Cu    Cu3+1 0.041020 0.000000 0.040980 0.962966
Cu8   Cu    Cu3+1 0.958980 0.000000 0.959020 0.962685
O29   O     O_R   0.534640 0.559850 0.034640 -0.578570
O30   O     O_R   0.465360 0.559850 0.965360 -0.578713
O31   O     O_R   0.034640 0.059850 0.034640 -0.578603
O32   O     O_R   0.965360 0.059850 0.965360 -0.578706
C71   C     C_R   0.499936 0.579516 0.999942 0.829918
C72   C     C_R   0.999936 0.079516 0.999942 0.829919
O33   O     O_R   0.000000 0.440190 0.051560 -0.578556
O34   O     O_R   0.000000 0.440190 0.948440 -0.578914
O35   O     O_R   0.500000 0.940190 0.051560 -0.578529
O36   O     O_R   0.500000 0.940190 0.948440 -0.578934
C73   C     C_R   0.000001 0.420666 0.000254 0.820257
C74   C     C_R   0.500001 0.920666 0.000254 0.820252
O37   O     O_R   0.059850 0.500040 0.111340 -0.579339
O38   O     O_R   0.940150 0.500040 0.888660 -0.579475
O39   O     O_R   0.559850 0.000040 0.111340 -0.579348
O40   O     O_R   0.440150 0.000040 0.888660 -0.579466
O41   O     O_R   0.059840 0.499970 0.008270 -0.579547
O42   O     O_R   0.940160 0.499970 0.991730 -0.579744
O43   O     O_R   0.559840 0.999970 0.008270 -0.579538
O44   O     O_R   0.440160 0.999970 0.991730 -0.579702
C75   C     C_R   0.079370 0.499990 0.079766 0.822501
C76   C     C_R   0.920630 0.500000 0.920233 0.822823
C77   C     C_R   0.579370 0.999990 0.079766 0.822500
C78   C     C_R   0.420630 1.000000 0.920233 0.822784
Cu9   Cu    Cu3+1 0.000010 0.500040 0.061000 0.966827
Cu10  Cu    Cu3+1 0.999990 0.500040 0.939000 0.966850
Cu11  Cu    Cu3+1 0.500010 0.000040 0.061000 0.966843
Cu12  Cu    Cu3+1 0.499990 0.000040 0.939000 0.966855
O45   O     O_R   0.000010 0.559880 0.051460 -0.578579
O46   O     O_R   0.999990 0.559880 0.948540 -0.578261
O47   O     O_R   0.500010 0.059880 0.051460 -0.578607
O48   O     O_R   0.499990 0.059880 0.948540 -0.578245
C79   C     C_R   0.000000 0.579463 0.999744 0.819962
C80   C     C_R   0.500000 0.079463 0.999744 0.819945
H9    H     H_    0.434737 0.289255 0.948880 0.148361
H10   H     H_    0.565632 0.288926 0.050280 0.148880
H11   H     H_    0.934729 0.789255 0.948796 0.148369
H12   H     H_    0.065641 0.788925 0.050363 0.148896
C81   C     C_R   0.962752 0.728542 0.970222 0.145927
C82   C     C_R   0.037488 0.728350 0.028209 0.144970
C83   C     C_R   0.462757 0.228541 0.970270 0.145961
C84   C     C_R   0.537483 0.228351 0.028161 0.144975
C85   C     C_R   0.000098 0.706433 0.999097 0.120450
C86   C     C_R   0.500097 0.206433 0.999097 0.120448
C87   C     C_R   0.537112 0.271903 0.028095 -0.172042
C88   C     C_R   0.463221 0.272088 0.970853 -0.172764
C89   C     C_R   0.037117 0.771902 0.028142 -0.172006
C90   C     C_R   0.963216 0.772088 0.970806 -0.172744
C91   C     C_R   0.500191 0.293707 0.999626 0.061673
C92   C     C_R   0.000191 0.793707 0.999626 0.061672
C93   C     C_1   0.000068 0.661453 0.999082 -0.030847
C94   C     C_1   0.500067 0.161453 0.999082 -0.030852
C95   C     C_1   0.500224 0.338440 0.999905 -0.037473
C96   C     C_1   0.000224 0.838440 0.999904 -0.037446
C97   C     C_1   0.500190 0.375870 0.000048 -0.167149
C98   C     C_1   0.000190 0.875870 0.000048 -0.167122
C99   C     C_1   0.000035 0.624025 0.999248 -0.166263
C100  C     C_1   0.500035 0.124025 0.999247 -0.166280
C101  C     C_R   0.999012 0.272540 0.943707 0.096300
C102  C     C_R   0.000574 0.271614 0.057227 0.096060
C103  C     C_R   0.497847 0.772545 0.942578 0.096284
C104  C     C_R   0.501730 0.771609 0.058354 0.096048
C105  C     C_R   0.999824 0.293783 0.000577 0.095303
C106  C     C_R   0.499819 0.793782 0.000574 0.095308
C107  C     C_R   0.501673 0.727741 0.057858 -0.022957
C108  C     C_R   0.497817 0.728674 0.942676 -0.022980
C109  C     C_R   0.000523 0.227746 0.056735 -0.022942
C110  C     C_R   0.998972 0.228670 0.943796 -0.022948
C111  C     C_R   0.499729 0.706432 0.000173 -0.040703
C112  C     C_R   0.999730 0.206432 0.000171 -0.040706
C113  C     C_1   0.999896 0.338787 0.000773 -0.016165
C114  C     C_1   0.499893 0.838787 0.000771 -0.016172
C115  C     C_1   0.499747 0.661385 0.000020 -0.010212
C116  C     C_1   0.999747 0.161385 0.000018 -0.010195
C117  C     C_1   0.499803 0.623999 0.999934 -0.145518
C118  C     C_1   0.999803 0.123999 0.999933 -0.145528
C119  C     C_1   0.999951 0.376176 0.000711 -0.170765
C120  C     C_1   0.499950 0.876176 0.000710 -0.170759
C121  C     C_3   0.922409 0.706119 0.938830 -0.855629
H13   H     H_    0.896197 0.728015 0.918577 0.229590
H14   H     H_    0.915380 0.686695 0.891491 0.238011
H15   H     H_    0.924757 0.685971 0.982381 0.238101
C122  C     C_3   0.077787 0.705718 0.059389 -0.853361
H16   H     H_    0.104040 0.727479 0.079836 0.230095
H17   H     H_    0.084782 0.685562 0.106550 0.237813
H18   H     H_    0.075397 0.686279 0.015653 0.238383
C123  C     C_3   0.422419 0.206118 0.938929 -0.855732
H19   H     H_    0.396210 0.228014 0.918710 0.229576
H20   H     H_    0.415369 0.186694 0.891576 0.238015
H21   H     H_    0.424788 0.185970 0.982500 0.238084
C124  C     C_3   0.577777 0.205719 0.059291 -0.853403
H22   H     H_    0.604026 0.227480 0.079705 0.230081
H23   H     H_    0.584792 0.185562 0.106465 0.237804
H24   H     H_    0.575364 0.186279 0.015535 0.238390
C125  C     C_1   0.495849 0.706070 0.883961 0.261395
N1    N     N_1   0.494283 0.687955 0.837188 -0.284614
C126  C     C_1   0.503620 0.704191 0.116389 0.262968
N2    N     N_1   0.505171 0.685326 0.163024 -0.285397
C127  C     C_1   0.998173 0.206061 0.886219 0.261396
N3    N     N_1   0.997538 0.187942 0.840352 -0.284836
C128  C     C_1   0.001296 0.204200 0.114124 0.262936
N4    N     N_1   0.001911 0.185339 0.159850 -0.285502
C129  C     C_3   0.998207 0.297391 0.883831 -0.826294
H25   H     H_    0.997591 0.278067 0.841814 0.237842
H26   H     H_    0.970211 0.317489 0.854014 0.236202
H27   H     H_    0.026200 0.317218 0.909701 0.235176
C130  C     C_3   0.001426 0.295486 0.117310 -0.825860
H28   H     H_    0.001971 0.275477 0.159125 0.237944
H29   H     H_    0.029475 0.315280 0.147334 0.235682
H30   H     H_    0.973487 0.315550 0.091606 0.235846
C131  C     C_3   0.495815 0.797401 0.881508 -0.826238
H31   H     H_    0.494342 0.778080 0.838657 0.237870
H32   H     H_    0.467807 0.817488 0.852936 0.236097
H33   H     H_    0.523734 0.817239 0.906048 0.235275
C132  C     C_3   0.503808 0.795477 0.119630 -0.825818
H34   H     H_    0.505210 0.775464 0.162278 0.237954
H35   H     H_    0.531869 0.815281 0.148408 0.235597
H36   H     H_    0.475941 0.815530 0.095251 0.235938
C133  C     C_3   0.453622 0.521097 0.743530 -0.794158
H37   H     H_    0.437108 0.491335 0.720292 0.227631
H38   H     H_    0.435540 0.540547 0.756961 0.241270
H39   H     H_    0.453958 0.538740 0.700320 0.246433
C134  C     C_3   0.546400 0.479060 0.256528 -0.802189
H40   H     H_    0.546093 0.461375 0.299733 0.243701
H41   H     H_    0.564557 0.459687 0.243166 0.238161
H42   H     H_    0.562826 0.508863 0.279745 0.234017
C135  C     C_3   0.953621 0.021087 0.743526 -0.794448
H43   H     H_    0.935534 0.040535 0.756951 0.241170
H44   H     H_    0.953954 0.038732 0.700314 0.246404
H45   H     H_    0.937112 0.991323 0.720292 0.227689
C136  C     C_3   0.046399 0.979055 0.256526 -0.802338
H46   H     H_    0.064554 0.959681 0.243162 0.238230
H47   H     H_    0.062828 0.008856 0.279745 0.233778
H48   H     H_    0.046091 0.961369 0.299730 0.243803
C137  C     C_3   0.557597 0.556467 0.747046 -0.784507
H49   H     H_    0.576655 0.571955 0.801729 0.220648
H50   H     H_    0.578827 0.542259 0.735041 0.213492
H51   H     H_    0.538193 0.580516 0.704487 0.249495
C138  C     C_3   0.442369 0.443550 0.252934 -0.797636
H52   H     H_    0.423308 0.428064 0.198249 0.218266
H53   H     H_    0.461750 0.419496 0.295502 0.246971
H54   H     H_    0.421141 0.457784 0.264918 0.216722
C139  C     C_3   0.057592 0.056475 0.747041 -0.784277
H55   H     H_    0.076647 0.071966 0.801722 0.220799
H56   H     H_    0.078824 0.042270 0.735038 0.213383
H57   H     H_    0.038184 0.080521 0.704479 0.249496
C140  C     C_3   0.942366 0.943553 0.252931 -0.797590
H58   H     H_    0.923305 0.928068 0.198246 0.218268
H59   H     H_    0.961746 0.919498 0.295498 0.246989
H60   H     H_    0.921139 0.957789 0.264916 0.216719
C141  C     C_3   0.293179 0.476163 0.181475 -0.834197
H61   H     H_    0.327390 0.477197 0.219713 0.228914
H62   H     H_    0.284839 0.443962 0.160737 0.232364
H63   H     H_    0.284090 0.497501 0.134499 0.232758
C142  C     C_3   0.706944 0.512672 0.822694 -0.834348
H64   H     H_    0.672728 0.512149 0.784263 0.228634
H65   H     H_    0.715919 0.487855 0.864706 0.232635
H66   H     H_    0.715455 0.543256 0.850295 0.232554
C143  C     C_3   0.793179 0.976147 0.181483 -0.834152
H67   H     H_    0.827390 0.977181 0.219721 0.228920
H68   H     H_    0.784840 0.943944 0.160756 0.232364
H69   H     H_    0.784090 0.997479 0.134501 0.232768
C144  C     C_3   0.206926 0.014759 0.822107 -0.834281
H70   H     H_    0.172710 0.014139 0.783703 0.228646
H71   H     H_    0.215925 0.990545 0.865090 0.232571
H72   H     H_    0.215403 0.045690 0.848472 0.232627
C145  C     C_3   0.203068 0.476035 0.092584 -0.836864
H73   H     H_    0.169001 0.476865 0.063272 0.237384
H74   H     H_    0.210607 0.497432 0.062064 0.234348
H75   H     H_    0.211372 0.443885 0.088251 0.233423
C146  C     C_3   0.797056 0.512721 0.911612 -0.836965
H76   H     H_    0.831118 0.512276 0.940788 0.237725
H77   H     H_    0.788913 0.543278 0.922781 0.233365
H78   H     H_    0.789411 0.487876 0.937169 0.234303
C147  C     C_3   0.703068 0.976017 0.092593 -0.836836
H79   H     H_    0.669002 0.976848 0.063280 0.237388
H80   H     H_    0.710607 0.997409 0.062065 0.234348
H81   H     H_    0.711372 0.943866 0.088271 0.233431
C148  C     C_3   0.297037 0.014830 0.911019 -0.837003
H82   H     H_    0.331100 0.014318 0.940213 0.237665
H83   H     H_    0.288862 0.045727 0.920955 0.233338
H84   H     H_    0.289416 0.990581 0.937548 0.234338
C149  C     C_3   0.207578 0.523550 0.318989 -0.815263
H85   H     H_    0.173328 0.522715 0.281582 0.236765
H86   H     H_    0.217262 0.502202 0.366289 0.234557
H87   H     H_    0.216537 0.555649 0.340134 0.234425
C150  C     C_3   0.792300 0.487553 0.676894 -0.814738
H88   H     H_    0.826554 0.488022 0.714444 0.237132
H89   H     H_    0.783213 0.457049 0.648910 0.234527
H90   H     H_    0.782689 0.512360 0.634550 0.234459
C151  C     C_3   0.707578 0.023564 0.318982 -0.815298
H91   H     H_    0.673328 0.022728 0.281575 0.236765
H92   H     H_    0.717262 0.002222 0.366289 0.234562
H93   H     H_    0.716536 0.055665 0.340117 0.234408
C152  C     C_3   0.292317 0.985510 0.677461 -0.814760
H94   H     H_    0.326572 0.986051 0.714988 0.237086
H95   H     H_    0.283257 0.954664 0.650705 0.234526
H96   H     H_    0.282689 0.009720 0.634150 0.234463
C153  C     C_1   0.296342 0.522729 0.402472 0.272271
N5    N     N_1   0.315192 0.531976 0.464354 -0.283492
C154  C     C_1   0.703540 0.487918 0.593584 0.272484
N6    N     N_1   0.684642 0.483010 0.530093 -0.285355
C155  C     C_1   0.796342 0.022744 0.402465 0.272254
N7    N     N_1   0.815192 0.031997 0.464344 -0.283583
C156  C     C_1   0.203558 0.985956 0.594130 0.272459
N8    N     N_1   0.184667 0.980243 0.530864 -0.285318

loop_
_geom_bond_atom_site_label_1
_geom_bond_atom_site_label_2
_geom_bond_distance
_ccdc_geom_bond_type
O43   C77   1.294294 A    
C27   C31   1.419584 A    
O23   Cu7   1.962440 S    
Cu12  O48   1.944458 S    
C82   C89   1.405555 A    
O9    Cu1   1.963694 S    
C38   C154  1.452422 S    
C145  H75   1.109731 S    
C49   C61   1.207061 T    
C9    C13   1.350843 D    
C143  H69   1.109713 S    
C10   H2    1.086418 S    
C149  H86   1.110497 S    
C122  H17   1.110408 S    
O41   Cu10  1.939745 S    
C26   C46   1.420195 A    
C104  C107  1.415784 A    
C42   C46   1.415800 A    
O4    C4    1.285153 A    
C43   C55   1.452302 S    
C15   C69   1.471673 S    
Cu11  O47   1.940382 S    
C152  H95   1.110492 S    
C136  H46   1.110580 S    
C83   C86   1.414752 A    
C123  H21   1.110404 S    
O20   Cu8   1.941632 S    
C90   C92   1.398059 A    
H10   C87   1.084165 S    
C88   C91   1.398059 A    
C92   C96   1.443659 S    
C33   C149  1.519354 S    
C20   C140  1.507035 S    
C34   C38   1.412060 A    
O35   C74   1.296265 A    
O16   Cu4   1.962819 S    
O18   C65   1.286415 A    
C150  H88   1.107198 S    
O13   C5    1.278707 A    
O7    Cu4   1.942453 S    
O25   Cu6   1.970497 S    
O13   Cu3   1.966830 S    
C52   C64   1.207061 T    
O15   C7    1.278709 A    
C128  N4    1.157433 T    
C132  H34   1.107474 S    
O24   Cu8   1.962444 S    
C40   C44   1.409296 A    
O35   Cu11  1.944503 S    
O9    C5    1.287514 A    
C73   C119  1.435675 S    
C74   C120  1.435675 S    
C102  C105  1.414571 A    
C44   C56   1.452300 S    
C101  C110  1.415729 A    
C142  H65   1.109710 S    
O8    Cu4   1.943902 S    
O40   C78   1.296260 A    
O47   C80   1.294085 A    
C27   C147  1.520626 S    
C138  H53   1.109602 S    
C150  H90   1.110497 S    
C34   C150  1.519350 S    
O3    Cu2   1.943917 S    
C56   C60   1.206571 T    
Cu9   Cu10  2.678685 S    
C29   C33   1.416470 A    
C148  H84   1.109740 S    
C31   C35   1.416469 A    
C32   C36   1.416468 A    
C84   C86   1.414782 A    
C146  H77   1.109731 S    
O44   Cu11  1.939766 S    
C38   C42   1.409299 A    
C42   C54   1.452301 S    
O32   C72   1.286030 A    
O3    C3    1.285780 A    
C106  C114  1.452377 S    
C33   C37   1.412062 A    
C24   H8    1.087643 S    
O39   C77   1.296280 A    
C121  H13   1.110813 S    
C136  H48   1.108390 S    
C17   C21   1.347946 D    
O25   C67   1.280640 A    
C139  H56   1.110910 S    
C19   C23   1.347949 D    
C20   C24   1.347856 D    
C93   C99   1.207793 T    
C94   C100  1.207790 T    
Cu5   Cu6   2.648679 S    
C131  H33   1.110518 S    
C95   C97   1.207923 T    
O42   Cu9   1.939766 S    
O5    C1    1.285162 A    
C137  H49   1.110748 S    
C130  H28   1.107472 S    
C11   C19   1.477075 S    
C36   C40   1.412058 A    
C132  H36   1.110518 S    
C140  H58   1.110739 S    
C37   C153  1.452411 S    
C116  C118  1.206495 T    
C139  H55   1.110747 S    
C1    C57   1.435240 S    
O5    Cu3   1.942453 S    
Cu9   O45   1.940382 S    
C3    C59   1.435240 S    
C151  H92   1.110498 S    
O20   C66   1.286415 A    
C133  H37   1.110037 S    
C51   C63   1.207060 T    
H12   C89   1.084164 S    
O8    C4    1.285778 A    
C27   C47   1.420200 A    
C121  H15   1.110405 S    
C104  C106  1.414568 A    
C134  H40   1.108390 S    
C47   C143  1.520243 S    
C16   C136  1.522143 S    
C123  H20   1.110399 S    
O46   C79   1.295041 A    
C36   C152  1.519351 S    
C125  N1    1.157457 T    
C5    C21   1.455720 S    
C124  H23   1.110406 S    
O22   C68   1.292811 A    
C7    C23   1.455723 S    
C10   C14   1.350916 D    
O28   Cu7   1.970499 S    
C8    C24   1.455600 S    
C85   C93   1.451554 S    
C129  H25   1.107471 S    
O33   C73   1.296265 A    
C148  H82   1.106795 S    
O42   C76   1.294289 A    
C4    C60   1.435240 S    
O21   Cu5   1.962440 S    
C147  H79   1.106804 S    
O15   Cu4   1.966830 S    
C141  H62   1.109713 S    
Cu7   O31   1.941649 S    
C15   C135  1.522080 S    
O29   C71   1.285713 A    
C16   C70   1.471665 S    
O17   C65   1.286759 A    
Cu6   O30   1.943085 S    
C13   C133  1.522081 S    
O36   C74   1.295228 A    
O27   C69   1.280642 A    
C2    C58   1.435242 S    
C137  H51   1.109605 S    
C9    C17   1.477071 S    
O14   C6    1.287608 A    
C138  H54   1.110917 S    
C25   C145  1.520624 S    
C103  C108  1.415728 A    
C145  H74   1.109733 S    
C123  H19   1.110816 S    
C139  H57   1.109604 S    
O10   C6    1.278543 A    
O34   C73   1.295228 A    
C144  H71   1.109709 S    
O38   Cu10  1.946710 S    
O34   Cu10  1.940471 S    
C104  C132  1.518129 S    
O18   Cu6   1.941632 S    
C143  H68   1.109712 S    
C122  H16   1.110810 S    
O40   Cu12  1.946710 S    
C133  H39   1.108395 S    
C110  C112  1.410312 A    
C66   C98   1.438376 S    
C81   C121  1.507106 S    
C144  H72   1.109708 S    
C83   C123  1.507107 S    
C53   C57   1.206569 T    
C30   C34   1.416466 A    
C55   C59   1.206570 T    
C39   C155  1.452410 S    
C61   C75   1.435702 S    
C64   C78   1.435703 S    
C127  N3    1.157458 T    
C50   C62   1.207060 T    
C129  H27   1.110521 S    
C48   C144  1.520225 S    
O37   C75   1.296280 A    
C130  H30   1.110518 S    
O38   C76   1.296256 A    
C26   C30   1.419586 A    
C124  H24   1.110403 S    
O39   Cu11  1.946710 S    
O23   C69   1.292791 A    
C147  H81   1.109727 S    
C105  C113  1.452377 S    
C18   C22   1.347857 D    
C32   C52   1.451025 S    
C13   C67   1.471670 S    
C110  C127  1.450672 S    
C41   C45   1.415811 A    
C96   C98   1.207923 T    
C154  N6    1.157367 T    
C142  H64   1.107164 S    
C102  C130  1.518129 S    
C113  C119  1.206560 T    
C103  C106  1.414764 A    
O48   C80   1.295042 A    
C150  H89   1.110495 S    
O12   Cu2   1.967704 S    
C29   C49   1.451030 S    
O1    C1    1.285780 A    
C82   C85   1.414784 A    
O31   C72   1.285713 A    
C31   C51   1.451029 S    
C25   C29   1.419584 A    
C23   H7    1.087643 S    
C18   C138  1.507032 S    
C124  H22   1.110814 S    
C28   C32   1.419585 A    
C26   C146  1.520632 S    
C122  H18   1.110399 S    
O45   C79   1.294085 A    
C146  H76   1.106797 S    
C72   C118  1.435542 S    
C140  H60   1.110917 S    
C126  N2    1.157435 T    
C21   H5    1.087644 S    
H11   C90   1.084173 S    
O43   Cu12  1.939745 S    
C109  C128  1.450552 S    
C84   C124  1.507077 S    
C45   C141  1.520237 S    
O17   Cu5   1.943101 S    
C6    C22   1.455598 S    
O22   Cu6   1.962444 S    
C136  H47   1.110045 S    
C11   C15   1.350847 D    
O24   C70   1.292809 A    
Cu1   Cu3   2.647511 S    
C12   C16   1.350912 D    
O26   C68   1.280614 A    
C89   C92   1.398080 A    
C86   C94   1.451557 S    
Cu7   Cu8   2.648679 S    
C109  C112  1.410432 A    
Cu10  O46   1.944458 S    
O6    C2    1.285773 A    
O4    Cu2   1.942465 S    
O21   C67   1.292789 A    
O41   C75   1.294294 A    
C103  C131  1.518189 S    
C81   C90   1.405460 A    
C135  H45   1.110037 S    
C132  H35   1.110516 S    
C54   C58   1.206569 T    
O33   Cu9   1.944503 S    
C153  N5    1.157362 T    
C138  H52   1.110738 S    
C37   C41   1.409289 A    
O2    Cu1   1.942465 S    
C39   C43   1.409287 A    
O10   Cu1   1.967704 S    
C81   C85   1.414751 A    
C108  C125  1.450671 S    
C41   C53   1.452302 S    
C30   C50   1.451027 S    
C156  N8    1.157367 T    
C148  H83   1.109729 S    
C151  H91   1.107194 S    
C142  H66   1.109710 S    
C9    H1    1.086418 S    
C10   C18   1.477151 S    
C28   C148  1.520633 S    
C28   C48   1.420197 A    
C149  H85   1.107193 S    
C35   C151  1.519354 S    
C44   C48   1.415803 A    
O19   C66   1.286759 A    
C152  H94   1.107199 S    
O7    C3    1.285162 A    
C135  H43   1.110595 S    
C146  H78   1.109741 S    
C111  C115  1.453752 S    
C107  C126  1.450552 S    
C65   C97   1.438376 S    
C14   C134  1.522145 S    
C131  H32   1.110517 S    
C63   C77   1.435702 S    
O16   C8    1.287608 A    
C121  H14   1.110401 S    
C101  C129  1.518187 S    
C141  H61   1.107169 S    
C108  C111  1.410311 A    
O11   C7    1.287515 A    
O12   C8    1.278543 A    
O1    Cu1   1.943917 S    
O36   Cu12  1.940471 S    
O37   Cu9   1.946710 S    
C102  C109  1.415786 A    
C147  H80   1.109734 S    
H9    C88   1.084175 S    
C46   C142  1.520223 S    
C79   C99   1.437999 S    
C107  C111  1.410436 A    
C35   C39   1.412062 A    
C137  H50   1.110908 S    
O27   Cu8   1.970497 S    
C140  H59   1.109601 S    
C82   C122  1.507081 S    
O11   Cu2   1.963694 S    
C145  H73   1.106804 S    
C112  C116  1.453752 S    
C135  H44   1.108390 S    
C91   C95   1.443662 S    
C62   C76   1.435701 S    
O6    Cu3   1.943902 S    
C101  C105  1.414763 A    
C151  H93   1.110496 S    
C143  H67   1.107167 S    
C12   C20   1.477153 S    
C133  H38   1.110591 S    
Cu8   O32   1.943085 S    
C134  H41   1.110577 S    
C149  H87   1.110497 S    
C87   C91   1.398079 A    
C134  H42   1.110046 S    
O2    C2    1.285159 A    
C19   C139  1.507019 S    
O28   C70   1.280617 A    
C152  H96   1.110499 S    
C40   C156  1.452419 S    
C131  H31   1.107472 S    
C83   C88   1.405460 A    
C84   C87   1.405555 A    
C25   C45   1.420203 A    
O14   Cu3   1.962819 S    
C71   C117  1.435542 S    
O44   C78   1.294289 A    
O26   Cu5   1.970499 S    
C129  H26   1.110520 S    
C22   H6    1.087647 S    
Cu2   Cu4   2.647511 S    
O30   C71   1.286030 A    
C14   C68   1.471666 S    
C130  H29   1.110517 S    
Cu11  Cu12  2.678685 S    
C43   C47   1.415812 A    
O19   Cu7   1.943101 S    
C80   C100  1.437999 S    
C11   H3    1.086417 S    
C12   H4    1.086421 S    
C114  C120  1.206560 T    
C155  N7    1.157364 T    
C141  H63   1.109713 S    
C115  C117  1.206495 T    
C17   C137  1.507015 S    
Cu5   O29   1.941649 S    
C144  H70   1.107166 S    
