data_mof_unit_49619.cif
_audit_creation_date              2012-12-10T17:52:32-0500
_audit_creation_method            fapswitch 2.2
_symmetry_space_group_name_H-M    P1
_symmetry_Int_Tables_number       1
_space_group_crystal_system       triclinic
_cell_length_a                    14.870094
_cell_length_b                    14.961509
_cell_length_c                    23.485999
_cell_angle_alpha                 74.579108
_cell_angle_beta                  103.076415
_cell_angle_gamma                 115.771713
_cell_volume                      4499.02545048

loop_
_atom_site_label
_atom_site_type_symbol
_atom_type_description
_atom_site_fract_x
_atom_site_fract_y
_atom_site_fract_z
_atom_type_partial_charge
C1    C     C_R   0.880204 0.312678 0.510633 0.784447
C2    C     C_R   0.119796 0.687322 0.489367 0.784443
C3    C     C_R   0.033544 0.586652 0.750196 -0.090412
C4    C     C_R   0.966473 0.413375 0.249795 -0.090414
C5    C     C_R   0.033465 0.586623 0.690863 -0.270449
C6    C     C_R   0.966546 0.413393 0.309129 -0.270455
C7    C     C_R   0.997725 0.495151 0.671152 -0.008672
C8    C     C_R   0.002282 0.504859 0.328847 -0.008670
C9    C     C_R   0.960240 0.402203 0.711378 0.141979
C10   C     C_R   0.039770 0.597812 0.288626 0.141985
C11   C     C_R   0.961418 0.403404 0.770993 -0.117270
C12   C     C_R   0.038598 0.596623 0.229010 -0.117268
C13   C     C_R   0.997555 0.495102 0.790452 0.318367
C14   C     C_R   0.002465 0.504931 0.209544 0.318361
C15   C     C_R   0.811993 0.205848 0.525582 -0.085856
C16   C     C_R   0.188007 0.794152 0.474416 -0.085856
C17   C     C_R   0.768417 0.047236 0.596606 0.182421
C18   C     C_R   0.231583 0.952755 0.403384 0.182419
C19   C     C_R   0.837843 0.144173 0.576097 -0.187053
C20   C     C_R   0.162157 0.855822 0.423898 -0.187051
C21   C     C_R   0.714905 0.171101 0.495341 -0.207629
C22   C     C_R   0.285096 0.828901 0.504655 -0.207626
C23   C     C_R   0.999662 0.498980 0.608628 0.796125
C24   C     C_R   0.000337 0.501019 0.391372 0.796121
C25   C     C_R   0.638805 0.078508 0.517718 0.047082
C26   C     C_R   0.361196 0.921489 0.482273 0.047082
C27   C     C_R   0.669180 0.010097 0.564441 0.071728
C28   C     C_R   0.330823 0.989897 0.435545 0.071725
C29   C     C_R   0.534477 0.051325 0.493328 0.002165
C30   C     C_R   0.465525 0.948670 0.506662 0.002163
C31   C     C_R   0.504542 0.876364 0.541858 -0.086546
C32   C     C_R   0.495461 0.123629 0.458129 -0.086553
C33   C     C_R   0.601812 0.907117 0.574087 -0.088341
C34   C     C_R   0.398199 0.092873 0.425890 -0.088331
C35   C     C_R   0.689376 0.622379 0.383206 -0.287595
C36   C     C_R   0.310623 0.377620 0.616793 -0.287595
C37   C     C_R   0.782793 0.619273 0.406456 0.378300
C38   C     C_R   0.217207 0.380727 0.593544 0.378292
C39   C     C_R   0.719724 0.517189 0.497330 0.071593
C40   C     C_R   0.280275 0.482808 0.502670 0.071594
C41   C     C_R   0.627729 0.532606 0.477987 -0.044350
C42   C     C_R   0.372269 0.467390 0.522012 -0.044355
C43   C     C_R   0.611179 0.576312 0.417602 0.117899
C44   C     C_R   0.388819 0.423684 0.582397 0.117901
C45   C     C_R   0.937468 0.534766 0.105636 0.543473
C46   C     C_R   0.062570 0.465291 0.894358 0.543474
C47   C     C_R   0.548665 0.500905 0.513783 0.085089
C48   C     C_R   0.451333 0.499090 0.486216 0.085083
C49   C     C_R   0.435481 0.524747 0.423788 -0.194123
C50   C     C_R   0.564517 0.475247 0.576211 -0.194110
C51   C     C_R   0.515350 0.569551 0.390758 -0.156220
C52   C     C_R   0.484647 0.430443 0.609240 -0.156225
C53   C     C_R   0.068608 0.474699 0.134912 0.545701
C54   C     C_R   0.931425 0.525352 0.865082 0.545704
C55   C     C_R   0.071506 0.474284 0.075062 -0.053706
C56   C     C_R   0.928535 0.525781 0.924932 -0.053708
C57   C     C_R   0.001539 0.502169 0.030028 -0.093825
C58   C     C_R   0.998504 0.497897 0.969965 -0.093823
C59   C     C_R   0.937203 0.537929 0.044808 -0.051533
C60   C     C_R   0.062840 0.462137 0.955186 -0.051533
C61   C     C_R   0.140307 0.445118 0.059103 0.153654
C62   C     C_R   0.859740 0.554955 0.940891 0.153640
C63   C     C_R   0.126820 0.426740 0.001183 0.161558
C64   C     C_R   0.873228 0.573333 0.998811 0.161571
Cu1   Cu    Cu3+1 0.081740 0.475680 0.515360 0.958760
Cu2   Cu    Cu3+1 0.918260 0.524320 0.484640 0.958760
H1    H     H_    0.501066 0.595095 0.343176 0.148895
H2    H     H_    0.498932 0.404900 0.656823 0.148893
H3    H     H_    0.677672 0.660787 0.337687 0.149194
H4    H     H_    0.322327 0.339213 0.662313 0.149192
H5    H     H_    0.361552 0.509705 0.399149 0.153160
H6    H     H_    0.638446 0.490290 0.600850 0.153162
H7    H     H_    0.061691 0.657784 0.765007 0.149338
H8    H     H_    0.938333 0.342248 0.234980 0.149342
H9    H     H_    0.061798 0.658089 0.660244 0.146068
H10   H     H_    0.938213 0.341922 0.339745 0.146068
H11   H     H_    0.932880 0.332898 0.802372 0.141223
H12   H     H_    0.067141 0.667133 0.197636 0.141224
H13   H     H_    0.298855 0.782795 0.546725 0.155334
H14   H     H_    0.701146 0.217213 0.453273 0.155336
H15   H     H_    0.087873 0.827173 0.399240 0.142669
H16   H     H_    0.912124 0.172820 0.600758 0.142667
N1    N     N_R   0.003160 0.505155 0.148400 -0.460730
N2    N     N_R   0.996869 0.494891 0.851595 -0.460731
N3    N     N_R   0.795430 0.560810 0.461550 -0.199296
N4    N     N_R   0.204570 0.439190 0.538450 -0.199292
O1    O     O_R   0.977900 0.338110 0.520250 -0.598218
O2    O     O_R   0.022100 0.661890 0.479750 -0.598218
O3    O     O_R   0.839850 0.379180 0.494310 -0.557339
O4    O     O_R   0.160150 0.620820 0.505690 -0.557331
O5    O     O_R   0.069020 0.479430 0.595090 -0.579882
O6    O     O_R   0.930980 0.520570 0.404910 -0.579881
O7    O     O_R   0.930970 0.520500 0.569150 -0.573588
O8    O     O_R   0.069030 0.479500 0.430850 -0.573589
O9    O     O_2   0.869678 0.556258 0.122855 -0.547504
O10   O     O_2   0.130360 0.443800 0.877139 -0.547507
O11   O     O_2   0.127998 0.442001 0.179994 -0.545592
O12   O     O_2   0.872029 0.558040 0.820000 -0.545596
C65   C     C_3   0.233108 0.441284 0.101320 -0.747181
H17   H     H_    0.269142 0.507892 0.123363 0.251244
H18   H     H_    0.212786 0.369879 0.134858 0.258997
H19   H     H_    0.292664 0.446914 0.077727 0.211403
C66   C     C_3   0.766945 0.558804 0.898672 -0.747176
H20   H     H_    0.730896 0.492189 0.876634 0.251249
H21   H     H_    0.707396 0.553197 0.922262 0.211402
H22   H     H_    0.787280 0.630204 0.865129 0.258996
C67   C     C_3   0.801710 0.991670 0.655486 -0.842632
H23   H     H_    0.868024 0.043674 0.680458 0.222140
H24   H     H_    0.741016 0.956271 0.684573 0.238785
H25   H     H_    0.824295 0.934583 0.647970 0.249030
C68   C     C_3   0.198282 0.008316 0.344503 -0.842626
H26   H     H_    0.131947 0.956315 0.319542 0.222135
H27   H     H_    0.175726 0.065424 0.352019 0.249029
H28   H     H_    0.258961 0.043687 0.315407 0.238789
C69   C     C_1   0.451680 0.769319 0.540912 0.255743
N5    N     N_1   0.411009 0.683545 0.541436 -0.281806
C70   C     C_1   0.548311 0.230672 0.459084 0.255748
N6    N     N_1   0.588972 0.316443 0.458568 -0.281810
C71   C     C_1   0.273558 0.559890 0.451703 0.352204
N7    N     N_1   0.269308 0.622509 0.411044 -0.293154
C72   C     C_1   0.726441 0.440107 0.548296 0.352207
N8    N     N_1   0.730692 0.377489 0.588955 -0.293155
C73   C     C_3   0.136937 0.322749 0.634082 -0.798925
H29   H     H_    0.061444 0.313460 0.612307 0.261695
H30   H     H_    0.134039 0.244962 0.651491 0.189280
H31   H     H_    0.154804 0.360558 0.672432 0.231183
C74   C     C_3   0.863065 0.677260 0.365921 -0.798939
H32   H     H_    0.938556 0.686533 0.387693 0.261705
H33   H     H_    0.845193 0.639468 0.327563 0.231170
H34   H     H_    0.865973 0.755053 0.348524 0.189286
C75   C     C_3   0.173512 0.360885 0.990862 -0.759914
H35   H     H_    0.191381 0.312678 0.032805 0.211673
H36   H     H_    0.119010 0.306248 0.962653 0.247242
H37   H     H_    0.243595 0.408558 0.970046 0.258707
C76   C     C_3   0.826542 0.639193 0.009133 -0.759916
H38   H     H_    0.808703 0.687423 0.967191 0.211670
H39   H     H_    0.756445 0.591522 0.029935 0.258694
H40   H     H_    0.881037 0.693813 0.037354 0.247250
C77   C     C_3   0.916323 0.301154 0.692658 -0.866090
H41   H     H_    0.910896 0.308207 0.644022 0.222348
H42   H     H_    0.963592 0.258277 0.715568 0.230741
H43   H     H_    0.838992 0.257197 0.705140 0.248606
C78   C     C_3   0.083685 0.698856 0.307353 -0.866087
H44   H     H_    0.089108 0.691794 0.355989 0.222349
H45   H     H_    0.161018 0.742816 0.294873 0.248608
H46   H     H_    0.036418 0.741735 0.284444 0.230738
C79   C     C_1   0.634059 0.828628 0.610971 0.258954
N9    N     N_1   0.658312 0.765057 0.639957 -0.270756
C80   C     C_1   0.365974 0.171363 0.388983 0.258944
N10   N     N_1   0.341739 0.234934 0.359977 -0.270754

loop_
_geom_bond_atom_site_label_1
_geom_bond_atom_site_label_2
_ccdc_geom_bond_type
C1    O1    A    
C76   H40   S    
C78   H46   S    
C67   H24   S    
C68   H26   S    
C32   C70   S    
C75   H37   S    
Cu2   N3    S    
C54   N2    A    
C73   H29   S    
C39   C41   A    
C45   N1    A    
C27   C33   A    
C15   C19   A    
C13   N2    S    
C59   C64   A    
C38   N4    A    
C60   C63   A    
C37   N3    A    
C35   C37   A    
C22   H13   S    
C29   C32   A    
C17   C67   S    
Cu2   O2    S    
C30   C31   A    
C77   H43   S    
C73   H30   S    
C58   C60   A    
C69   N5    T    
C78   H45   S    
C11   C13   A    
C18   C20   A    
C76   H39   S    
C40   N4    A    
C61   C63   A    
C50   H6    S    
C62   C64   A    
C11   H11   S    
C17   C19   A    
C66   H21   S    
C45   C59   A    
C79   N9    T    
C49   C51   A    
C12   H12   S    
C50   C52   A    
C67   H23   S    
C31   C33   A    
C2    O2    A    
C1    C15   S    
C63   C75   S    
C47   C50   A    
C19   H16   S    
C35   C43   A    
C4    H8    S    
C38   C73   S    
C3    C13   A    
C44   C52   A    
Cu1   N4    S    
C64   C76   S    
C28   C34   A    
C20   H15   S    
C41   C43   A    
C61   C65   S    
C42   C44   A    
C14   N1    S    
C24   O6    A    
C31   C69   S    
C34   C80   S    
C36   H4    S    
Cu1   O1    S    
Cu2   O3    S    
C53   C55   A    
C25   C29   A    
Cu1   O4    S    
C54   C56   A    
C17   C27   A    
C47   C48   A    
C76   H38   S    
C18   C28   A    
C18   C68   S    
C4    C6    A    
C5    C7    A    
C73   H31   S    
Cu2   O6    S    
C53   O11   S    
C23   O7    A    
C16   C22   A    
C32   C34   A    
C66   H22   S    
C5    H9    S    
C74   H33   S    
C29   C30   A    
C24   O8    A    
C33   C79   S    
C65   H17   S    
C16   C20   A    
C65   H19   S    
C41   C47   A    
C68   H27   S    
C42   C48   A    
C77   H42   S    
C71   N7    T    
C9    C11   A    
C72   N8    T    
C10   C12   A    
Cu2   O7    S    
C46   N2    A    
C8    C10   A    
Cu1   O8    S    
C65   H18   S    
C12   C14   A    
C26   C30   A    
C55   C57   A    
C49   H5    S    
C67   H25   S    
C23   O5    A    
C36   C44   A    
C39   N3    A    
C75   H35   S    
C45   O9    S    
C3    C5    A    
C2    C16   S    
C62   C66   S    
Cu1   O5    S    
C21   C25   A    
C48   C49   A    
C1    O3    A    
C46   C60   A    
C75   H36   S    
C52   H2    S    
C6    C8    A    
C77   H41   S    
C6    H10   S    
C74   H32   S    
C25   C27   A    
C26   C28   A    
C39   C72   S    
C53   N1    A    
C36   C38   A    
C74   H34   S    
C80   N10   T    
C9    C77   S    
C43   C51   A    
C57   C58   A    
C51   H1    S    
C7    C23   S    
C55   C61   A    
C21   H14   S    
C40   C42   A    
C8    C24   S    
C56   C58   A    
C68   H28   S    
C56   C62   A    
C10   C78   S    
C4    C14   A    
C3    H7    S    
C57   C59   A    
C7    C9    A    
C15   C21   A    
C40   C71   S    
C46   O10   S    
C35   H3    S    
C2    O4    A    
Cu1   Cu2   S    
C22   C26   A    
C66   H20   S    
C54   O12   S    
C70   N6    T    
C78   H44   S    
C37   C74   S    
