data_mof_unit_50334.cif
_audit_creation_date              2012-12-10T17:50:14-0500
_audit_creation_method            fapswitch 2.2
_symmetry_space_group_name_H-M    P1
_symmetry_Int_Tables_number       1
_space_group_crystal_system       triclinic
_cell_length_a                    10.613123
_cell_length_b                    14.706184
_cell_length_c                    14.712122
_cell_angle_alpha                 65.269075
_cell_angle_beta                  103.023442
_cell_angle_gamma                 102.650292
_cell_volume                      2011.70968477

loop_
_atom_site_label
_atom_site_type_symbol
_atom_type_description
_atom_site_fract_x
_atom_site_fract_y
_atom_site_fract_z
_atom_type_partial_charge
C1    C     C_R   0.478308 0.119556 0.312409 0.792661
C2    C     C_R   0.521944 0.880408 0.687647 0.793264
C3    C     C_R   0.482567 0.291065 0.178972 -0.251096
C4    C     C_R   0.520642 0.708620 0.821044 -0.256584
C5    C     C_R   0.494598 0.360731 0.079772 0.090524
C6    C     C_R   0.530335 0.639909 0.922415 0.089960
C7    C     C_R   0.486614 0.321894 0.004821 0.162934
C8    C     C_R   0.549537 0.679201 0.998385 0.163878
C9    C     C_R   0.514595 0.467349 0.053201 0.063591
C10   C     C_R   0.518134 0.533527 0.949967 0.063732
C11   C     C_R   0.511663 0.491282 0.878042 -0.218527
C12   C     C_R   0.534187 0.510056 0.126549 -0.219838
C13   C     C_R   0.496068 0.387650 0.905231 -0.230630
C14   C     C_R   0.552303 0.613824 0.099410 -0.229512
C15   C     C_R   0.709394 0.279487 0.674661 -0.318834
C16   C     C_R   0.295760 0.722189 0.322667 -0.317222
C17   C     C_R   0.678534 0.200234 0.641902 0.069649
C18   C     C_R   0.323363 0.800272 0.356962 0.069319
C19   C     C_R   0.522644 0.286953 0.507784 0.015578
C20   C     C_R   0.478364 0.713545 0.491962 0.016124
C21   C     C_R   0.551882 0.372196 0.535345 -0.049930
C22   C     C_R   0.453034 0.629669 0.462491 -0.050322
C23   C     C_R   0.259577 0.000547 0.500083 0.784901
C24   C     C_R   0.740419 0.999452 0.499916 0.785852
C25   C     C_R   0.645322 0.365821 0.623090 0.149186
C26   C     C_R   0.361397 0.636624 0.373676 0.148099
C27   C     C_R   0.489927 0.461598 0.480272 0.024720
C28   C     C_R   0.516924 0.541061 0.516682 0.026418
C29   C     C_R   0.606486 0.529383 0.606407 -0.227378
C30   C     C_R   0.403565 0.474494 0.388927 -0.227044
C31   C     C_R   0.671516 0.444686 0.658506 0.176253
C32   C     C_R   0.339005 0.559359 0.336364 0.178588
C33   C     C_3   0.016980 0.010692 0.408113 -0.172896
C34   C     C_3   0.983002 0.989298 0.591884 -0.172527
C35   C     C_3   0.962126 0.087344 0.430053 -0.163955
C36   C     C_3   0.037855 0.912647 0.569944 -0.163795
C37   C     C_3   0.877069 0.998742 0.499685 0.020325
C38   C     C_3   0.122917 0.001250 0.500313 0.020504
C39   C     C_3   0.929605 0.922045 0.477735 -0.134256
C40   C     C_3   0.070375 0.077946 0.522262 -0.134341
C41   C     C_R   0.472484 0.187040 0.205194 -0.052571
C42   C     C_R   0.534779 0.812891 0.795167 -0.052491
C43   C     C_R   0.470738 0.217202 0.030451 -0.203178
C44   C     C_R   0.564985 0.783920 0.972462 -0.203139
C45   C     C_R   0.464921 0.150093 0.130320 -0.200213
C46   C     C_R   0.558600 0.850495 0.871423 -0.199804
Cu1   Cu    Cu3+1 0.465750 0.918270 0.475680 0.931380
Cu2   Cu    Cu3+1 0.534250 0.081730 0.524320 0.931922
H1    H     H_    0.927808 0.158666 0.372744 0.134286
H2    H     H_    0.072158 0.841319 0.627251 0.133716
H3    H     H_    0.551241 0.717627 0.554497 0.121420
H4    H     H_    0.447346 0.282321 0.446679 0.120820
H5    H     H_    0.274512 0.866528 0.316091 0.125161
H6    H     H_    0.726859 0.133710 0.682808 0.124813
H7    H     H_    0.782382 0.271564 0.740973 0.151928
H8    H     H_    0.224266 0.730530 0.255475 0.151781
H9    H     H_    0.628232 0.585571 0.638600 0.127080
H10   H     H_    0.385669 0.419737 0.355140 0.128296
H11   H     H_    0.034233 0.019614 0.332958 0.126726
H12   H     H_    0.965736 0.980375 0.667037 0.127126
H13   H     H_    0.869294 0.858189 0.459563 0.140311
H14   H     H_    0.130681 0.141801 0.540438 0.140529
H15   H     H_    0.491792 0.358783 0.847610 0.153541
H16   H     H_    0.567330 0.643059 0.158169 0.151203
H17   H     H_    0.498371 0.682764 0.760131 0.149175
H18   H     H_    0.480542 0.315472 0.237948 0.142685
H19   H     H_    0.569877 0.930986 0.852986 0.151592
H20   H     H_    0.456713 0.069731 0.149123 0.152544
H21   H     H_    0.465220 0.187331 0.973432 0.132126
H22   H     H_    0.580954 0.814259 0.030420 0.131803
H23   H     H_    0.521887 0.536010 0.799941 0.142902
H24   H     H_    0.539413 0.465878 0.206557 0.144956
N1    N     N_R   0.585750 0.204560 0.560800 -0.176315
N2    N     N_R   0.414250 0.795440 0.439200 -0.176688
O1    O     O_R   0.454850 0.022100 0.338110 -0.591597
O2    O     O_R   0.545150 0.977900 0.661890 -0.591278
O3    O     O_R   0.512700 0.160150 0.379180 -0.589510
O4    O     O_R   0.487300 0.839850 0.620820 -0.591163
O5    O     O_R   0.287930 0.931000 0.479440 -0.580798
O6    O     O_R   0.712070 0.069000 0.520560 -0.580859
O7    O     O_R   0.345780 0.069050 0.520520 -0.588332
O8    O     O_R   0.654220 0.930950 0.479480 -0.588235
C47   C     C_3   0.767295 0.439748 0.753183 -0.892327
H25   H     H_    0.774514 0.507169 0.771062 0.234926
H26   H     H_    0.735695 0.372202 0.819021 0.232767
H27   H     H_    0.866198 0.435618 0.743139 0.236497
C48   C     C_3   0.248370 0.566424 0.238957 -0.886504
H28   H     H_    0.244246 0.500276 0.219735 0.234725
H29   H     H_    0.147682 0.569750 0.246050 0.234259
H30   H     H_    0.282875 0.635129 0.175266 0.234632

loop_
_geom_bond_atom_site_label_1
_geom_bond_atom_site_label_2
_ccdc_geom_bond_type
C25   C31   A    
C17   N1    A    
C48   H28   S    
C26   C32   A    
C34   C37   S    
C1    O3    A    
Cu2   O2    S    
Cu1   O5    S    
C40   H14   S    
C33   C39   S    
C34   C40   S    
C28   C29   A    
C35   C37   S    
C20   H3    S    
C4    H17   S    
C11   H23   S    
C15   C25   A    
C31   C47   S    
Cu2   O7    S    
C42   C46   A    
Cu1   O8    S    
C24   O8    A    
C18   H5    S    
C19   H4    S    
C24   O6    A    
C47   H25   S    
C36   H2    S    
C35   H1    S    
C44   H22   S    
C7    C43   A    
C9    C10   A    
C12   H24   S    
C33   H11   S    
C38   C40   S    
C22   C28   A    
C27   C30   A    
C34   H12   S    
C44   C46   A    
C16   C26   A    
C39   H13   S    
C1    O1    A    
C19   N1    A    
C4    C6    A    
C5    C7    A    
C6    C8    A    
C32   C48   S    
C15   H7    S    
Cu2   O3    S    
C16   H8    S    
C5    C9    A    
C2    O4    A    
C18   N2    A    
Cu1   Cu2   S    
C13   H15   S    
C29   C31   A    
C14   H16   S    
C45   H20   S    
C24   C37   S    
C20   N2    A    
C43   C45   A    
C1    C41   S    
C47   H26   S    
C29   H9    S    
C48   H29   S    
C3    H18   S    
C2    O2    A    
C15   C17   A    
C21   C25   A    
C3    C41   A    
C8    C14   A    
C23   O7    A    
C19   C21   A    
Cu2   N1    S    
C36   C39   S    
C8    C44   A    
Cu1   N2    S    
C20   C22   A    
C3    C5    A    
C6    C10   A    
C23   C38   S    
C33   C38   S    
Cu2   O6    S    
C36   C38   S    
C35   C40   S    
C12   C14   A    
Cu1   O1    S    
C46   H19   S    
C37   C39   S    
C30   C32   A    
C11   C13   A    
C4    C42   A    
C2    C42   S    
C30   H10   S    
C33   C35   S    
C34   C36   S    
C21   C27   A    
C9    C12   A    
C10   C11   A    
C7    C13   A    
C47   H27   S    
C16   C18   A    
C22   C26   A    
C48   H30   S    
C27   C28   A    
C41   C45   A    
Cu1   O4    S    
C23   O5    A    
C43   H21   S    
C17   H6    S    
