data_mof_unit_45815.cif
_audit_creation_date              2012-12-10T16:51:15-0500
_audit_creation_method            fapswitch 2.2
_symmetry_space_group_name_H-M    P1
_symmetry_Int_Tables_number       1
_space_group_crystal_system       triclinic
_cell_length_a                    27.763395
_cell_length_b                    8.667891
_cell_length_c                    7.436314
_cell_angle_alpha                 103.204122
_cell_angle_beta                  93.795843
_cell_angle_gamma                 92.028651
_cell_volume                      1736.06374233

loop_
_atom_site_label
_atom_site_type_symbol
_atom_type_description
_atom_site_fract_x
_atom_site_fract_y
_atom_site_fract_z
_atom_type_partial_charge
C1    C     C_R   0.498561 0.199602 0.453055 0.889922
C2    C     C_R   0.501452 0.800399 0.546943 0.891602
C3    C     C_R   0.102556 0.487681 0.549806 -0.096320
C4    C     C_R   0.897692 0.486643 0.516054 -0.093289
C5    C     C_R   0.126473 0.344857 0.491755 -0.078306
C6    C     C_R   0.874245 0.624027 0.602607 -0.083289
C7    C     C_R   0.098454 0.200836 0.433820 0.259807
C8    C     C_R   0.902750 0.756460 0.706920 0.267455
C9    C     C_R   0.130039 0.632187 0.608713 -0.069235
C10   C     C_R   0.869716 0.352315 0.415781 -0.085028
C11   C     C_R   0.354735 0.502458 0.512655 -0.087016
C12   C     C_R   0.645000 0.492389 0.489452 -0.090495
C13   C     C_R   0.972081 0.343123 0.446881 -0.024687
C14   C     C_R   0.027960 0.630453 0.610520 -0.022182
C15   C     C_R   0.976880 0.623342 0.619413 0.023041
C16   C     C_R   0.023533 0.342241 0.474135 0.025357
C17   C     C_R   0.949035 0.484161 0.527223 0.010581
C18   C     C_R   0.051206 0.486826 0.545341 0.009235
C19   C     C_R   0.942634 0.210096 0.340784 0.468418
C20   C     C_R   0.056507 0.776364 0.661082 0.453393
C21   C     C_R   0.892320 0.218277 0.326852 -0.157705
C22   C     C_R   0.106938 0.773648 0.662504 -0.146580
C23   C     C_R   0.407513 0.500697 0.503436 0.819230
C24   C     C_R   0.592396 0.498499 0.496673 0.817738
C25   C     C_R   0.048496 0.201211 0.434546 -0.173677
C26   C     C_R   0.952692 0.750591 0.721648 -0.204872
C27   C     C_2   0.497868 0.031534 0.426700 -0.356481
C28   C     C_2   0.502164 0.968469 0.573296 -0.356895
C29   C     C_R   0.177490 0.352788 0.495372 0.650619
C30   C     C_R   0.823168 0.620634 0.585163 0.634329
C31   C     C_R   0.180409 0.633978 0.603085 0.631511
C32   C     C_R   0.819199 0.355278 0.402935 0.625354
C33   C     C_R   0.284896 0.533345 0.694707 -0.108690
C34   C     C_R   0.722657 0.441606 0.626741 -0.100511
C35   C     C_R   0.334789 0.533221 0.685283 -0.205706
C36   C     C_R   0.672744 0.446684 0.631405 -0.175310
C37   C     C_R   0.323847 0.473350 0.349690 -0.226001
C38   C     C_R   0.667928 0.532444 0.342283 -0.234488
C39   C     C_R   0.273774 0.472426 0.358948 0.317962
C40   C     C_R   0.718192 0.530453 0.339455 0.319039
C41   C     C_R   0.254170 0.501341 0.532387 0.278874
C42   C     C_R   0.745587 0.484762 0.482446 0.272844
Cu1   Cu    Cu3+1 0.505380 0.517380 0.684380 0.964895
Cu2   Cu    Cu3+1 0.494620 0.482620 0.315620 0.963890
H1    H     H_    0.338445 0.450338 0.215153 0.180020
H2    H     H_    0.647013 0.568674 0.232180 0.175432
H3    H     H_    0.462221 0.378605 0.948566 0.228029
H4    H     H_    0.537779 0.621395 0.051435 0.228483
H5    H     H_    0.655833 0.413867 0.745414 0.179472
H6    H     H_    0.357677 0.557222 0.813276 0.173510
H7    H     H_    0.743779 0.405786 0.736490 0.194126
H8    H     H_    0.270006 0.557598 0.828369 0.198449
H9    H     H_    0.870676 0.119392 0.240483 0.227898
H10   H     H_    0.128234 0.884701 0.696767 0.219629
H11   H     H_    0.030274 0.086647 0.408863 0.241691
H12   H     H_    0.971956 0.846954 0.819974 0.226759
H13   H     H_    0.493816 0.959429 0.285658 0.180420
H14   H     H_    0.506218 0.040575 0.714338 0.180612
N1    N     N_R   0.202812 0.496012 0.544568 -0.468191
N2    N     N_R   0.797248 0.487728 0.487316 -0.468157
N3    N     N_2   0.486510 0.456430 0.038510 -0.217715
N4    N     N_2   0.513490 0.543570 0.961490 -0.216603
O1    O     O_R   0.503500 0.286120 0.619780 -0.585474
O2    O     O_R   0.496500 0.713880 0.380220 -0.585000
O3    O     O_R   0.494410 0.256780 0.308360 -0.581941
O4    O     O_R   0.505590 0.743220 0.691640 -0.581876
O5    O     O_R   0.434810 0.514700 0.655690 -0.592910
O6    O     O_R   0.565190 0.485300 0.344310 -0.589873
O7    O     O_R   0.425720 0.485350 0.344280 -0.582897
O8    O     O_R   0.574280 0.514650 0.655720 -0.578700
O9    O     O_2   0.202114 0.219945 0.451078 -0.430780
O10   O     O_2   0.799066 0.747190 0.665570 -0.431887
O11   O     O_2   0.792056 0.226475 0.307922 -0.480707
O12   O     O_2   0.206873 0.772810 0.653334 -0.478158
Br1   Br    Br    0.233000 0.432819 0.133152 -0.478734
Br2   Br    Br    0.748706 0.594903 0.142954 -0.458320
Br3   Br    Br    0.123572 0.996055 0.338164 -0.433537
Br4   Br    Br    0.878232 0.955089 0.830556 -0.425725
O13   O     O_3   0.962636 0.083246 0.225663 -0.593790
C43   C     C_3   0.948213 0.938809 0.270117 -0.296832
H15   H     H_    0.973743 0.847748 0.213212 0.197904
H16   H     H_    0.949378 0.948795 0.422505 0.195920
H17   H     H_    0.911713 0.894931 0.204883 0.209731
O14   O     O_3   0.034882 0.920287 0.672936 -0.614928
C44   C     C_3   0.052323 0.033453 0.835305 -0.296081
H18   H     H_    0.085681 0.097782 0.811106 0.196089
H19   H     H_    0.024714 0.122843 0.869801 0.218417
H20   H     H_    0.058468 0.980065 0.957240 0.197895

loop_
_geom_bond_atom_site_label_1
_geom_bond_atom_site_label_2
_ccdc_geom_bond_type
C21   H9    S    
C8    C26   A    
C14   C18   A    
C34   C42   A    
Cu1   O1    S    
C39   C41   A    
C44   H18   S    
Cu2   O2    S    
C33   H8    S    
C34   H7    S    
C19   C21   A    
C9    C22   A    
C31   N1    A    
C3    C18   A    
C23   O5    A    
C11   C37   A    
C23   O7    A    
C29   N1    A    
C30   N2    A    
C1    O3    A    
C39   Br1   S    
C12   C36   A    
C7    Br3   S    
C40   C42   A    
C8    Br4   S    
C22   H10   S    
Cu2   O3    S    
C43   H17   S    
C1    O1    A    
C2    O2    A    
C5    C29   A    
C44   H19   S    
C10   C21   A    
C13   C19   A    
C24   O8    A    
C14   C20   A    
O14   C44   S    
C41   N1    S    
C4    C6    A    
C27   H13   S    
C42   N2    S    
C32   O11   S    
C5    C7    A    
C9    C31   A    
C15   C26   A    
C6    C8    A    
C3    C5    A    
C40   Br2   S    
Cu1   Cu2   S    
Cu1   O5    S    
C3    C9    A    
H4    N4    S    
C35   H6    S    
Cu2   O7    S    
C19   O13   S    
C4    C17   A    
C43   H16   S    
C6    C30   A    
C20   C22   A    
Cu1   O8    S    
C20   O14   S    
Cu2   O6    S    
C32   N2    A    
C37   H1    S    
C44   H20   S    
C16   C25   A    
C15   C17   A    
C25   H11   S    
C43   H15   S    
C2    O4    A    
C26   H12   S    
H3    N3    S    
C30   O10   S    
C28   H14   S    
Cu2   N3    S    
C12   C24   S    
C7    C25   A    
C13   C17   A    
C33   C41   A    
C11   C35   A    
C37   C39   A    
C38   C40   A    
Cu1   O4    S    
C11   C23   S    
C33   C35   A    
C34   C36   A    
C12   C38   A    
N3    N4    D    
C31   O12   S    
C38   H2    S    
C24   O6    A    
O13   C43   S    
C10   C32   A    
C16   C18   A    
C13   C16   A    
C27   C28   D    
C1    C27   S    
C14   C15   A    
C2    C28   S    
C4    C10   A    
C36   H5    S    
Cu1   N4    S    
C29   O9    S    
