data_mof_unit_22483.cif
_audit_creation_date              2012-12-10T20:40:56-0500
_audit_creation_method            fapswitch 2.2
_symmetry_space_group_name_H-M    P1
_symmetry_Int_Tables_number       1
_space_group_crystal_system       triclinic
_cell_length_a                    27.752001
_cell_length_b                    10.681983
_cell_length_c                    9.838841
_cell_angle_alpha                 89.173953
_cell_angle_beta                  89.781001
_cell_angle_gamma                 90.284044
_cell_volume                      2916.32795122

loop_
_atom_site_label
_atom_site_type_symbol
_atom_type_description
_atom_site_fract_x
_atom_site_fract_y
_atom_site_fract_z
_atom_type_partial_charge
C1    C     C_R   0.502565 0.259742 0.500432 0.953224
C2    C     C_R   0.279429 0.525038 0.369068 -0.209141
C3    C     C_R   0.252722 0.509529 0.488647 0.096689
C4    C     C_R   0.101642 0.502673 0.476777 -0.054830
C5    C     C_R   0.127460 0.392136 0.504576 -0.040867
C6    C     C_R   0.102635 0.280191 0.529729 -0.127974
C7    C     C_R   0.126906 0.615071 0.450062 -0.032480
C8    C     C_R   0.353184 0.505954 0.498498 -0.279030
C9    C     C_R   0.646625 0.499939 0.498433 -0.033293
C10   C     C_R   0.974860 0.390077 0.522500 -0.018542
C11   C     C_R   0.974192 0.607424 0.434659 0.067443
C12   C     C_R   0.405943 0.501376 0.500070 0.959340
C13   C     C_R   0.949237 0.497993 0.479984 0.073364
C14   C     C_R   0.948828 0.287735 0.578194 -0.326074
C15   C     C_R   0.898612 0.286315 0.582643 0.514395
C16   C     C_R   0.872803 0.391645 0.535899 -0.137131
C17   C     C_R   0.898203 0.497143 0.483991 -0.111399
C18   C     C_R   0.872520 0.602481 0.436462 0.013531
C19   C     C_R   0.822256 0.601303 0.441692 0.496635
C20   C     C_R   0.822127 0.395392 0.539259 0.533568
C21   C     C_R   0.721622 0.493653 0.372720 -0.099690
C22   C     C_R   0.671611 0.494021 0.374303 -0.195534
C23   C     C_R   0.502412 0.740058 0.498963 0.987903
C24   C     C_R   0.672351 0.505672 0.620835 -0.212444
C25   C     C_R   0.722430 0.505544 0.618858 -0.098661
C26   C     C_R   0.747024 0.499496 0.494837 0.306589
C27   C     C_R   0.025721 0.388664 0.511256 0.076665
C28   C     C_R   0.050644 0.500917 0.476361 0.078897
C29   C     C_R   0.025122 0.611546 0.441826 0.041904
C30   C     C_R   0.052679 0.278184 0.532820 -0.212231
C31   C     C_R   0.101503 0.724754 0.421795 -0.125697
C32   C     C_R   0.947210 0.709210 0.383143 -0.218353
C33   C     C_R   0.897336 0.706457 0.383968 -0.162533
C34   C     C_R   0.593991 0.500051 0.499698 0.863108
C35   C     C_R   0.051555 0.723286 0.417608 -0.214783
C36   C     C_R   0.514911 0.061267 0.621892 -0.000242
C37   C     C_R   0.512794 0.128756 0.500004 -0.307080
C38   C     C_R   0.522351 0.066739 0.377118 0.513796
C39   C     C_R   0.521924 0.937019 0.375975 0.520879
C40   C     C_R   0.512244 0.870944 0.497701 -0.312991
C41   C     C_R   0.514140 0.933744 0.620403 -0.013187
C42   C     C_3   0.483807 0.922881 0.745853 0.374586
C43   C     C_3   0.484640 0.064903 0.747634 -0.491361
C44   C     C_R   0.459967 0.462602 0.072832 0.194197
C45   C     C_R   0.177813 0.396257 0.505949 0.593441
C46   C     C_R   0.537784 0.547995 0.070822 -0.075312
C47   C     C_R   0.537827 0.547790 0.926721 -0.146990
C48   C     C_R   0.459680 0.464169 0.929829 0.205790
C49   C     C_3   0.436201 0.338674 0.926679 -0.551035
C50   C     C_3   0.437574 0.335806 0.080994 0.235566
C51   C     C_R   0.177277 0.615319 0.454408 0.552542
C52   C     C_R   0.275958 0.494786 0.613746 0.625550
C53   C     C_R   0.326010 0.492885 0.619046 0.473477
C54   C     C_R   0.329377 0.523919 0.373898 -0.261383
H1    H     H_    0.349259 0.536053 0.279691 0.246258
H2    H     H_    0.120137 0.812738 0.403080 0.190699
H3    H     H_    0.963578 0.791682 0.338274 0.139917
H4    H     H_    0.653877 0.510479 0.717772 0.160548
H5    H     H_    0.878280 0.786911 0.343382 0.180115
H6    H     H_    0.742194 0.510315 0.713350 0.145085
H7    H     H_    0.034674 0.812487 0.399124 0.138999
H8    H     H_    0.261392 0.536730 0.272331 0.201308
H9    H     H_    0.503638 0.876018 0.830844 0.088906
H10   H     H_    0.448797 0.108091 0.729373 0.216569
H11   H     H_    0.505333 0.101057 0.835312 0.184854
H12   H     H_    0.568615 0.584800 0.124283 0.167051
H13   H     H_    0.568701 0.584363 0.871472 0.154332
H14   H     H_    0.399299 0.341701 0.883957 0.287007
H15   H     H_    0.460096 0.268905 0.881112 0.172050
H16   H     H_    0.462549 0.265232 0.126117 0.156083
H17   H     H_    0.121730 0.193361 0.547943 0.192977
H18   H     H_    0.652611 0.489356 0.278542 0.164407
H19   H     H_    0.740740 0.488575 0.276807 0.144110
H20   H     H_    0.966536 0.208423 0.624485 0.160498
H21   H     H_    0.036148 0.187652 0.549129 0.139823
N1    N     N_R   0.201436 0.507026 0.482659 -0.323341
N2    N     N_R   0.798379 0.498980 0.492581 -0.360419
N3    N     N_R   0.499670 0.499140 0.142800 -0.137327
N4    N     N_R   0.499670 0.499180 0.857150 -0.116282
O1    O     O_R   0.500010 0.316790 0.614690 -0.620129
O2    O     O_2   0.796477 0.296444 0.587057 -0.508183
O3    O     O_2   0.201994 0.722830 0.431808 -0.546872
O4    O     O_2   0.797258 0.701894 0.397209 -0.568915
O5    O     O_R   0.500000 0.316760 0.385350 -0.572795
O6    O     O_R   0.428760 0.500040 0.614660 -0.561798
O7    O     O_R   0.428750 0.500000 0.385310 -0.613409
O8    O     O_R   0.500000 0.683240 0.614650 -0.616730
O9    O     O_R   0.499990 0.683210 0.385310 -0.568999
O10   O     O_R   0.571250 0.500000 0.614690 -0.638702
O11   O     O_R   0.571240 0.499960 0.385340 -0.625907
O12   O     O_2   0.203091 0.290668 0.530300 -0.538839
Zn1   Zn    Zn3+2 0.500000 0.500020 0.653130 0.978220
Zn2   Zn    Zn3+2 0.500000 0.499980 0.346870 1.018036
F1    F     F_    0.249875 0.481953 0.730149 -0.613300
F2    F     F_    0.528433 0.129618 0.257259 -0.643237
F3    F     F_    0.527117 0.878172 0.255335 -0.630784
O13   O     O_3   0.437462 0.875043 0.716809 -0.589544
C55   C     C_3   0.414356 0.839207 0.839292 0.091571
H22   H     H_    0.413921 0.917675 0.912803 0.133767
H23   H     H_    0.432789 0.756833 0.885896 0.159626
C56   C     C_3   0.362551 0.802520 0.809077 -0.690445
H24   H     H_    0.361853 0.726880 0.733006 0.279498
H25   H     H_    0.344488 0.768708 0.903685 0.221967
H26   H     H_    0.342670 0.884641 0.768005 0.245395
O14   O     O_3   0.391313 0.340582 0.140859 -0.576051
C57   C     C_3   0.373808 0.217304 0.160741 0.104999
H27   H     H_    0.397590 0.163423 0.231112 0.145118
H28   H     H_    0.371244 0.167829 0.062081 0.150490
C58   C     C_3   0.323748 0.221584 0.223878 -0.727870
H29   H     H_    0.299543 0.280043 0.159874 0.272893
H30   H     H_    0.308581 0.125370 0.232068 0.216352
H31   H     H_    0.325741 0.261389 0.327301 0.255080
O15   O     O_3   0.875254 0.185736 0.644519 -0.560646
C59   C     C_3   0.875551 0.083203 0.555426 0.110549
H32   H     H_    0.912841 0.048145 0.539648 0.113667
H33   H     H_    0.859561 0.109295 0.455197 0.152218
C60   C     C_3   0.845507 0.977390 0.617596 -0.704832
H34   H     H_    0.807899 0.009115 0.633860 0.281799
H35   H     H_    0.845091 0.896301 0.548479 0.216017
H36   H     H_    0.861067 0.947395 0.716598 0.243344
F4    F     F_    0.347481 0.478083 0.741694 -0.649660

loop_
_geom_bond_atom_site_label_1
_geom_bond_atom_site_label_2
_ccdc_geom_bond_type
C10   C27   A    
C44   C48   A    
C21   C26   A    
C56   H24   S    
C42   O13   S    
C49   H14   S    
C41   C42   S    
C47   N4    A    
O13   C55   S    
C1    O5    A    
C12   O6    A    
C45   N1    A    
C14   H20   S    
C48   N4    A    
C28   C29   A    
C46   H12   S    
C58   H30   S    
C5    C6    A    
C9    C22   A    
C57   H27   S    
N3    Zn2   S    
C15   C16   A    
C21   H19   S    
C18   C19   A    
C47   H13   S    
C19   N2    A    
C20   O2    S    
C54   H1    S    
C16   C17   A    
C38   F2    S    
C50   O14   S    
C15   O15   S    
C52   F1    S    
C25   H6    S    
C31   H2    S    
C16   C20   A    
C33   H5    S    
C49   H15   S    
C21   C22   A    
C27   C30   A    
C36   C41   A    
C32   H3    S    
C4    C7    A    
C19   O4    S    
C22   H18   S    
C4    C28   A    
O6    Zn1   S    
C43   H10   S    
C59   H32   S    
C6    H17   S    
C26   N2    S    
C7    C31   A    
C24   C25   A    
C10   C14   A    
C58   H31   S    
C8    C54   A    
C39   C40   A    
C46   N3    A    
C23   C40   S    
O9    Zn2   S    
C25   C26   A    
C5    C45   A    
O1    Zn1   S    
C34   O11   A    
C37   C38   A    
O7    Zn2   S    
C43   H11   S    
C17   C18   A    
C35   H7    S    
C51   N1    A    
O10   Zn1   S    
C3    N1    S    
C51   O3    S    
N4    Zn1   S    
C20   N2    A    
C24   H4    S    
C48   C49   S    
C6    C30   A    
C11   C32   A    
C55   H22   S    
C56   H26   S    
C55   H23   S    
C23   O9    A    
C2    C54   A    
C9    C34   S    
C31   C35   A    
C60   H36   S    
C42   C43   S    
C52   C53   A    
O11   Zn2   S    
O15   C59   S    
C44   C50   S    
C46   C47   A    
C40   C41   A    
C4    C5    A    
C10   C13   A    
C8    C53   A    
C59   H33   S    
C3    C52   A    
C9    C24   A    
C1    C37   S    
C55   C56   S    
O14   C57   S    
C29   C35   A    
C12   O7    A    
C32   C33   A    
C60   H35   S    
C2    C3    A    
C50   H16   S    
C34   O10   A    
C7    C51   A    
C53   F4    S    
C60   H34   S    
C30   H21   S    
C11   C13   A    
C38   C39   A    
C57   H28   S    
C36   C37   A    
C44   N3    A    
O5    Zn2   S    
C45   O12   S    
C18   C33   A    
C39   F3    S    
C59   C60   S    
C13   C17   A    
C2    H8    S    
C11   C29   A    
C56   H25   S    
C49   C50   S    
C58   H29   S    
C27   C28   A    
C1    O1    A    
C14   C15   A    
C36   C43   S    
C23   O8    A    
O8    Zn1   S    
C42   H9    S    
C8    C12   S    
C57   C58   S    
