data_mof_unit_56446.cif
_audit_creation_date              2012-12-11T14:06:33-0500
_audit_creation_method            fapswitch 2.2
_symmetry_space_group_name_H-M    P1
_symmetry_Int_Tables_number       1
_space_group_crystal_system       triclinic
_cell_length_a                    6.931363
_cell_length_b                    17.405957
_cell_length_c                    24.19131
_cell_angle_alpha                 105.028437
_cell_angle_beta                  90.64873
_cell_angle_gamma                 89.98526
_cell_volume                      2818.59315191

loop_
_atom_site_label
_atom_site_type_symbol
_atom_type_description
_atom_site_fract_x
_atom_site_fract_y
_atom_site_fract_z
_atom_type_partial_charge
O1    O     O_R   0.494290 0.391990 0.999150 -0.524219
O2    O     O_R   0.827170 0.534410 0.082350 -0.531864
O3    O     O_R   0.994360 0.608010 0.000850 -0.515545
C1    C     C_R   0.658561 0.548937 0.106276 0.731814
O4    O     O_R   0.824210 0.388010 0.004470 -0.548235
O5    O     O_R   0.991370 0.460560 0.922410 -0.539594
C2    C     C_R   0.654020 0.354885 0.001172 0.690101
O6    O     O_R   0.497270 0.539440 0.077590 -0.523179
O7    O     O_3   0.659770 0.523970 0.973170 -0.368579
V1    V     V_3+5 0.935840 0.495550 0.004980 1.528404
O8    O     O_R   0.320910 0.465590 0.917650 -0.536924
C3    C     C_R   0.150893 0.450260 0.894278 0.847897
O9    O     O_R   0.323870 0.611990 0.995530 -0.549416
C4    C     C_R   0.154189 0.644674 0.997442 0.692620
V2    V     V_3+5 0.435470 0.504450 0.995020 1.519897
O10   O     O_3   0.161670 0.476030 0.026830 -0.356972
C5    C     C_2   0.142648 0.729003 0.994104 0.040744
C6    C     C_2   0.974514 0.771418 0.005186 0.240296
C7    C     C_R   0.151916 0.260553 0.623686 0.651530
N1    N     N_R   0.101442 0.337771 0.648443 -0.521886
C8    C     C_R   0.034237 0.385646 0.615447 0.655369
C9    C     C_R   0.024776 0.357278 0.554903 -0.145011
C10   C     C_R   0.058652 0.275600 0.530174 -0.127694
C11   C     C_R   0.108999 0.225383 0.565467 -0.194890
C12   C     C_R   0.976010 0.407383 0.519035 0.362450
C13   C     C_R   0.971868 0.376319 0.458719 0.261671
C14   C     C_R   0.012434 0.294705 0.434107 -0.163673
C15   C     C_R   0.040802 0.243815 0.470242 -0.114415
C16   C     C_R   0.051267 0.160948 0.446283 -0.203925
C17   C     C_R   0.092465 0.110400 0.482196 0.435899
C18   C     C_R   0.116459 0.141953 0.541408 0.306598
C19   C     C_R   0.027261 0.261745 0.374260 0.598024
N2    N     N_R   0.014322 0.180988 0.351417 -0.534204
C20   C     C_R   0.015517 0.131083 0.386955 0.670392
O11   O     O_2   0.245738 0.218557 0.655295 -0.509784
O12   O     O_2   0.975400 0.460022 0.641254 -0.484325
O13   O     O_2   0.056584 0.309570 0.339282 -0.470127
O14   O     O_2   0.980758 0.052999 0.364961 -0.503061
C21   C     C_R   0.129234 0.087531 0.261192 0.400644
C22   C     C_R   0.111823 0.053557 0.201812 0.249921
C23   C     C_R   0.976095 0.083446 0.168908 -0.375787
C24   C     C_R   0.848488 0.143899 0.196503 0.335244
C25   C     C_R   0.857735 0.175594 0.256272 0.284500
C26   C     C_R   0.000071 0.148071 0.289521 0.032618
C27   C     C_R   0.222612 0.434721 0.736519 0.390381
C28   C     C_R   0.230672 0.463325 0.796504 0.255921
C29   C     C_R   0.136079 0.421941 0.831186 -0.369285
C30   C     C_R   0.022465 0.354679 0.805752 0.278399
C31   C     C_R   0.007499 0.327281 0.745549 0.360568
C32   C     C_R   0.108984 0.367281 0.710397 0.039626
C33   C     C_R   0.621598 0.851538 0.619735 0.673734
N3    N     N_R   0.503347 0.814095 0.649531 -0.517819
C34   C     C_R   0.407187 0.745784 0.622680 0.660896
C35   C     C_R   0.438644 0.708627 0.564015 -0.171479
C36   C     C_R   0.557285 0.747127 0.532262 -0.102380
C37   C     C_R   0.653671 0.818647 0.560385 -0.160611
C38   C     C_R   0.356032 0.633880 0.536344 0.395406
C39   C     C_R   0.373040 0.602391 0.476853 0.390999
C40   C     C_R   0.480498 0.643434 0.443984 -0.184045
C41   C     C_R   0.578387 0.714343 0.472258 -0.123930
C42   C     C_R   0.693390 0.753629 0.440219 -0.174318
C43   C     C_R   0.783252 0.826422 0.468236 0.440985
C44   C     C_R   0.774095 0.855944 0.527835 0.292251
C45   C     C_R   0.494226 0.615518 0.383558 0.718036
N4    N     N_R   0.611552 0.653020 0.353622 -0.541573
C46   C     C_R   0.713662 0.719507 0.380674 0.669823
O15   O     O_2   0.703914 0.921239 0.647509 -0.505944
O16   O     O_2   0.278123 0.715207 0.652509 -0.493312
O17   O     O_2   0.390751 0.551868 0.354668 -0.456019
O18   O     O_2   0.834402 0.752213 0.349736 -0.486367
C47   C     C_R   0.485174 0.650980 0.258051 0.399822
C48   C     C_R   0.499966 0.629201 0.197616 0.203029
C49   C     C_R   0.647321 0.575678 0.170416 -0.361322
C50   C     C_R   0.779026 0.545971 0.205503 0.322187
C51   C     C_R   0.770793 0.572217 0.265536 0.367279
C52   C     C_R   0.622181 0.624305 0.291896 0.081402
C53   C     C_R   0.604295 0.816214 0.748273 0.391527
C54   C     C_R   0.602406 0.852800 0.807995 0.253493
C55   C     C_R   0.466501 0.913353 0.830843 -0.298633
C56   C     C_R   0.344528 0.940826 0.792807 0.329901
C57   C     C_R   0.355549 0.906994 0.733409 -0.222498
H1    H     H_    0.262522 0.928901 0.704634 0.185184
C58   C     C_R   0.486304 0.845766 0.710874 0.187861
C59   C     C_2   0.639879 0.267431 0.994180 0.146737
C60   C     C_2   0.478180 0.233725 0.009600 0.183408
O19   O     O_R   0.618210 0.960470 0.922400 -0.524097
O20   O     O_R   0.291310 0.111960 0.995450 -0.564493
O21   O     O_R   0.124210 0.039530 0.077580 -0.536940
C61   C     C_R   0.461528 0.145648 0.000473 0.681127
O22   O     O_R   0.288310 0.965490 0.917650 -0.533618
O23   O     O_R   0.121180 0.892010 0.999220 -0.519050
C62   C     C_R   0.456451 0.948375 0.894069 0.834424
O24   O     O_R   0.621230 0.107990 0.000760 -0.534428
O25   O     O_3   0.455770 0.976060 0.026840 -0.358370
V3    V     V_3+5 0.179680 0.004440 0.995020 1.466421
O26   O     O_R   0.791670 0.888040 0.004570 -0.525926
C63   C     C_R   0.961605 0.855276 0.001909 0.715884
O27   O     O_R   0.794680 0.034510 0.082370 -0.544197
C64   C     C_R   0.964412 0.050855 0.105786 0.804154
V4    V     V_3+5 0.680070 0.995560 0.005010 1.506388
O28   O     O_3   0.953840 0.023940 0.973160 -0.384285
O29   O     O_3   0.305286 0.765345 0.979352 -0.641486
H2    H     H_    0.410035 0.725999 0.967910 0.326855
O30   O     O_3   0.723308 0.232722 0.280331 -0.601427
H3    H     H_    0.706127 0.233284 0.320949 0.282720
O31   O     O_3   0.320493 0.475604 0.703545 -0.525375
C65   C     C_3   0.508472 0.444583 0.694366 -0.226705
H4    H     H_    0.594321 0.482821 0.673734 0.172297
H5    H     H_    0.584416 0.444725 0.735213 0.144661
H6    H     H_    0.504404 0.384060 0.664692 0.128876
O32   O     O_3   0.341123 0.529837 0.821184 -0.537062
C66   C     C_3   0.225377 0.597992 0.826634 -0.174905
H7    H     H_    0.313402 0.651335 0.846812 0.153173
H8    H     H_    0.099840 0.597338 0.854825 0.100161
H9    H     H_    0.175274 0.604143 0.784110 0.177203
O33   O     O_3   0.943601 0.310926 0.840362 -0.531634
C67   C     C_3   0.740966 0.319818 0.842047 -0.065877
H10   H     H_    0.688897 0.376817 0.834179 0.082120
H11   H     H_    0.691712 0.318834 0.885146 0.135060
H12   H     H_    0.671869 0.268254 0.811513 0.149073
O34   O     O_3   0.917737 0.254708 0.722318 -0.512950
C68   C     C_3   0.740562 0.266401 0.696503 -0.167356
H13   H     H_    0.761430 0.287075 0.657339 0.115918
H14   H     H_    0.645718 0.308043 0.726814 0.092103
H15   H     H_    0.663997 0.208470 0.683289 0.203126
O35   O     O_3   0.260274 0.589027 0.566898 -0.497749
C69   C     C_3   0.397850 0.546671 0.590913 -0.014705
H16   H     H_    0.443126 0.582223 0.634010 0.163543
H17   H     H_    0.528928 0.528814 0.564359 0.060547
H18   H     H_    0.329688 0.491231 0.595527 0.183360
O36   O     O_3   0.276209 0.532441 0.451101 -0.495082
C70   C     C_3   0.402025 0.467014 0.445847 -0.030271
H19   H     H_    0.556724 0.481522 0.441481 0.087004
H20   H     H_    0.360387 0.420305 0.406851 0.203193
H21   H     H_    0.384835 0.441022 0.482759 0.091579
O37   O     O_3   0.884196 0.869623 0.437586 -0.500009
C71   C     C_3   0.751912 0.918617 0.417934 0.023436
H22   H     H_    0.615209 0.887430 0.400531 0.056444
H23   H     H_    0.818056 0.936906 0.382014 0.216521
H24   H     H_    0.720112 0.972710 0.452662 0.127423
O38   O     O_3   0.883239 0.922305 0.552437 -0.576068
H25   H     H_    0.962388 0.908901 0.583014 0.335308
O39   O     O_3   0.341994 0.701132 0.286130 -0.599770
H26   H     H_    0.249324 0.713170 0.258138 0.349553
O40   O     O_3   0.806751 0.735661 0.016934 -0.547669
C72   C     C_3   0.774487 0.760243 0.076333 -0.201206
H27   H     H_    0.744885 0.825108 0.090862 0.125529
H28   H     H_    0.897547 0.744053 0.101067 0.111946
H29   H     H_    0.644943 0.728998 0.085628 0.144038
O41   O     O_3   0.368975 0.661949 0.166850 -0.640988
H30   H     H_    0.433161 0.670504 0.132717 0.282708
O42   O     O_3   0.916344 0.489432 0.182875 -0.579161
H31   H     H_    0.861737 0.452550 0.147973 0.287774
O43   O     O_3   0.907912 0.543158 0.296817 -0.551484
H32   H     H_    0.884311 0.564020 0.338257 0.331882
O44   O     O_3   0.730202 0.754752 0.725232 -0.539378
C73   C     C_3   0.666689 0.684573 0.738458 -0.149652
H33   H     H_    0.739614 0.633102 0.709518 0.179178
H34   H     H_    0.508286 0.674871 0.731907 0.145923
H35   H     H_    0.707804 0.684723 0.782962 0.168561
O45   O     O_3   0.722825 0.825268 0.844694 -0.559266
C74   C     C_3   0.911588 0.853807 0.840997 -0.102386
H36   H     H_    0.003385 0.837183 0.873897 0.123409
H37   H     H_    0.914888 0.919815 0.849782 0.170109
H38   H     H_    0.976557 0.826380 0.798714 0.167887
O46   O     O_3   0.211077 0.000015 0.813489 -0.549864
C75   C     C_3   0.294953 0.073882 0.813695 -0.144617
H39   H     H_    0.330375 0.077016 0.769559 0.164654
H40   H     H_    0.425898 0.086072 0.841734 0.105682
H41   H     H_    0.189095 0.121573 0.831197 0.179347
O47   O     O_3   0.777844 0.219430 0.961407 -0.575696
C76   C     C_3   0.947173 0.220666 0.994239 -0.069275
H42   H     H_    0.941685 0.173797 0.017568 0.150048
H43   H     H_    0.975414 0.277815 0.026450 0.142549
H44   H     H_    0.069947 0.208731 0.964340 0.180271
O48   O     O_3   0.331521 0.282934 0.036786 -0.574208
C77   C     C_3   0.317130 0.278256 0.093894 -0.284336
H45   H     H_    0.460610 0.282751 0.115781 0.165416
H46   H     H_    0.240153 0.223081 0.095793 0.125981
H47   H     H_    0.229449 0.329152 0.117804 0.201064
O49   O     O_3   0.931122 0.486211 0.543908 -0.588824
H48   H     H_    0.899745 0.514398 0.514331 0.349643
O50   O     O_3   0.918494 0.426252 0.425287 -0.610403
H49   H     H_    0.828601 0.396588 0.395120 0.325032
O51   O     O_3   0.097769 0.028797 0.460344 -0.500477
C78   C     C_3   0.291302 0.005190 0.450077 -0.038319
H50   H     H_    0.358744 0.034020 0.419013 0.094332
H51   H     H_    0.293871 0.939983 0.431064 0.175606
H52   H     H_    0.377483 0.017820 0.490523 0.128325
O52   O     O_3   0.135460 0.088642 0.574506 -0.586493
H53   H     H_    0.053248 0.107493 0.608582 0.350396
O53   O     O_3   0.259377 0.054371 0.292151 -0.511927
C79   C     C_3   0.425433 0.102491 0.304793 -0.175052
H54   H     H_    0.392228 0.167198 0.318940 0.132708
H55   H     H_    0.521420 0.089472 0.267300 0.141822
H56   H     H_    0.505668 0.086918 0.340289 0.144504
O54   O     O_3   0.234256 0.992433 0.175755 -0.540910
C80   C     C_3   0.143744 0.919412 0.174376 -0.127729
H57   H     H_    0.240781 0.870328 0.152805 0.146670
H58   H     H_    0.006219 0.912164 0.149377 0.071164
H59   H     H_    0.117559 0.913340 0.218361 0.176132
O55   O     O_3   0.719058 0.175036 0.164108 -0.541777
C81   C     C_3   0.535859 0.140211 0.165614 -0.113522
H60   H     H_    0.542753 0.076974 0.167521 0.146910
H61   H     H_    0.457279 0.139665 0.125490 0.124015
H62   H     H_    0.451336 0.176142 0.201919 0.154940

loop_
_geom_bond_atom_site_label_1
_geom_bond_atom_site_label_2
_ccdc_geom_bond_type
C36   C37   A    
C51   C52   A    
O52   H53   S    
C67   H10   S    
C23   C24   A    
C7    N1    A    
C1    O6    A    
C59   O47   S    
C66   H8    S    
O40   C72   S    
O51   C78   S    
C55   C62   S    
O22   V3    S    
C75   H40   S    
C8    O12   S    
C46   O18   S    
C53   C54   A    
N3    C34   A    
C81   H61   S    
C18   O52   S    
C40   C45   A    
C73   H33   S    
N4    C52   S    
C8    C9    A    
C15   C16   A    
C74   H36   S    
C67   H11   S    
C53   O44   S    
O5    C3    A    
C17   C18   A    
C22   O54   S    
C53   C58   A    
O39   H26   S    
C72   H29   S    
O49   H48   S    
C60   O48   S    
O33   C67   S    
C33   C37   A    
C49   C50   A    
C43   O37   S    
C31   C32   A    
C34   O16   S    
C25   O30   S    
O30   H3    S    
N1    C32   S    
C1    C49   S    
C35   C36   A    
O8    V2    S    
C42   C46   A    
O32   C66   S    
C12   O49   S    
C70   H19   S    
C77   H46   S    
C9    C12   A    
O20   V3    S    
V3    O28   S    
C10   C11   A    
C23   C64   S    
C80   H57   S    
O1    V2    S    
C6    C63   S    
O47   C76   S    
C16   C17   A    
O19   V4    S    
O7    V1    S    
C72   H28   S    
C42   C43   A    
C76   H44   S    
C30   O33   S    
C13   O50   S    
C77   H47   S    
C2    C59   S    
O21   V3    S    
C31   O34   S    
C40   C41   A    
C73   H34   S    
C20   O14   S    
O9    C4    A    
C65   H5    S    
C4    C5    S    
C50   O42   S    
O54   C80   S    
C3    C29   S    
C56   O46   S    
C66   H7    S    
C57   C58   A    
C75   H39   S    
C76   H43   S    
C57   H1    S    
C75   H41   S    
C74   H37   S    
C71   H24   S    
O55   C81   S    
C33   N3    A    
C17   O51   S    
C70   H21   S    
C81   H62   S    
C59   C60   D    
C50   C51   A    
C67   H12   S    
C38   O35   S    
O4    C2    A    
C60   C61   S    
C54   C55   A    
C48   C49   A    
C79   H55   S    
C12   C13   A    
C34   C35   A    
C16   C20   A    
C55   C56   A    
C41   C42   A    
O44   C73   S    
N3    C58   S    
O2    C1    A    
C5    O29   S    
C69   H17   S    
O50   H49   S    
C43   C44   A    
C74   H38   S    
C71   H23   S    
O22   C62   A    
C29   C30   A    
O25   V4    S    
C39   O36   S    
C65   H4    S    
C79   H56   S    
C28   O32   S    
O26   C63   A    
C80   H59   S    
C5    C6    D    
C44   O38   S    
C37   C44   A    
O25   V3    S    
C33   O15   S    
C19   O13   S    
O23   C63   A    
O24   V4    S    
O43   H32   S    
O34   C68   S    
O3    C4    A    
C77   H45   S    
O48   C77   S    
O27   C64   A    
O6    V2    S    
C48   O41   S    
O9    V2    S    
C25   C26   A    
C13   C14   A    
O46   C75   S    
C65   H6    S    
C24   O55   S    
C10   C15   A    
C24   C25   A    
C68   H14   S    
C69   H16   S    
O2    V1    S    
C21   C22   A    
C27   O31   S    
C47   O39   S    
C72   H27   S    
C28   C29   A    
C22   C23   A    
C14   C19   A    
O1    C2    A    
C6    O40   S    
C56   C57   A    
O5    V1    S    
C80   H58   S    
O8    C3    A    
C21   C26   A    
C73   H35   S    
C45   O17   S    
C71   H22   S    
O27   V4    S    
O41   H30   S    
O53   C79   S    
C78   H52   S    
O20   C61   A    
C7    C11   A    
C39   C40   A    
C11   C18   A    
C47   C48   A    
O3    V1    S    
C7    O11   S    
O38   H25   S    
C19   N2    A    
C21   O53   S    
C51   O43   S    
C38   C39   A    
C47   C52   A    
V1    O10   S    
O45   C74   S    
C27   C32   A    
C68   H15   S    
O35   C69   S    
C30   C31   A    
V2    O10   S    
O26   V4    S    
C45   N4    A    
V4    O28   S    
N2    C20   A    
N4    C46   A    
C61   O24   A    
O29   H2    S    
N2    C26   S    
C78   H50   S    
C69   H18   S    
O21   C64   A    
O23   V3    S    
C76   H42   S    
C27   C28   A    
O4    V1    S    
N1    C8    A    
C54   O45   S    
C70   H20   S    
C79   H54   S    
O31   C65   S    
C14   C15   A    
C9    C10   A    
O37   C71   S    
O19   C62   A    
O42   H31   S    
C81   H60   S    
C68   H13   S    
C36   C41   A    
C78   H51   S    
C66   H9    S    
O36   C70   S    
O7    V2    S    
C35   C38   A    
