data_mof_unit_61985.cif
_audit_creation_date              2012-10-26T17:54:34-0400
_audit_creation_method            fapswitch 2.2
_symmetry_space_group_name_H-M    P1
_symmetry_Int_Tables_number       1
_space_group_crystal_system       triclinic
_cell_length_a                    18.816673
_cell_length_b                    18.829077
_cell_length_c                    18.785029
_cell_angle_alpha                 109.022663
_cell_angle_beta                  109.422543
_cell_angle_gamma                 109.682743
_cell_volume                      5141.29866426

loop_
_atom_site_label
_atom_site_type_symbol
_atom_type_description
_atom_site_fract_x
_atom_site_fract_y
_atom_site_fract_z
_atom_type_partial_charge
C1    C     C_R   0.618850 0.119023 0.999972 0.541063
C2    C     C_R   0.566617 0.774469 0.731954 -0.125071
C3    C     C_R   0.567407 0.839181 0.795472 -0.022903
C4    C     C_R   0.498527 0.116374 0.118562 0.557728
C5    C     C_R   0.500002 0.816337 0.815600 0.069494
C6    C     C_R   0.324403 0.817171 0.078480 -0.131298
C7    C     C_R   0.259547 0.753796 0.078523 -0.138188
C8    C     C_R   0.186050 0.685234 0.999806 0.025964
C9    C     C_R   0.176910 0.680552 0.921110 -0.131428
C10   C     C_R   0.240349 0.745490 0.921234 -0.137183
C11   C     C_R   0.314450 0.813589 0.999887 0.025223
C12   C     C_R   0.823725 0.245283 0.004497 -0.133243
C13   C     C_R   0.618838 0.503843 0.622655 0.551740
C14   C     C_R   0.498581 0.385414 0.383115 0.558850
C15   C     C_R   0.381037 0.503747 0.384362 0.552235
C16   C     C_R   0.381165 0.880891 0.999950 0.541792
C17   C     C_R   0.500066 0.621495 0.621664 0.548643
C18   C     C_R   0.879747 0.499300 0.881701 0.547386
C19   C     C_R   0.880950 0.381233 0.999965 0.542366
C20   C     C_R   0.118996 0.499777 0.117980 0.544563
C21   C     C_R   0.118851 0.618742 0.999804 0.539225
C22   C     C_R   0.758105 0.582509 0.762976 -0.018402
C23   C     C_R   0.814134 0.314545 0.000138 0.026335
C24   C     C_R   0.820470 0.578584 0.824942 -0.122642
C25   C     C_R   0.811785 0.498668 0.815133 0.025429
C26   C     C_R   0.738185 0.420427 0.743577 -0.021262
C27   C     C_R   0.675492 0.424331 0.681877 -0.122783
C28   C     C_R   0.499871 0.882172 0.882063 0.549001
C29   C     C_R   0.685557 0.504264 0.690291 0.026843
C30   C     C_R   0.336638 0.539837 0.267079 -0.113428
C31   C     C_R   0.273626 0.539313 0.201075 -0.013569
C32   C     C_R   0.187171 0.501498 0.184707 0.052793
C33   C     C_R   0.165172 0.465583 0.233883 -0.144876
C34   C     C_R   0.740319 0.319541 0.995487 -0.135653
C35   C     C_R   0.228257 0.465801 0.298793 -0.139114
C36   C     C_R   0.314360 0.503154 0.315933 0.006324
C37   C     C_2   0.425679 0.245111 0.251327 -0.158941
C38   C     C_2   0.497380 0.321600 0.312596 -0.115701
C39   C     C_2   0.425670 0.184204 0.178042 -0.158823
C40   C     C_2   0.497332 0.179011 0.187883 -0.115913
C41   C     C_R   0.760277 0.181853 0.005852 -0.138060
C42   C     C_3   0.640495 0.931023 0.838781 -0.397749
C43   C     C_3   0.768812 0.669925 0.777038 -0.380647
C44   C     C_3   0.723969 0.333092 0.733350 -0.378202
C45   C     C_R   0.675412 0.254494 0.993807 -0.129798
C46   C     C_3   0.301878 0.580960 0.151739 -0.395551
C47   C     C_3   0.360627 0.703980 0.793546 -0.396191
C48   C     C_R   0.685663 0.185955 0.999744 0.025414
C49   C     C_R   0.432775 0.729525 0.772329 -0.025722
C50   C     C_R   0.433658 0.665985 0.709086 -0.116347
C51   C     C_R   0.500126 0.688185 0.688626 -0.009011
Cu1   Cu    Cu3+1 0.438200 0.000380 0.938580 0.928099
Cu2   Cu    Cu3+1 0.561800 0.999620 0.061420 0.928745
Cu3   Cu    Cu3+1 0.438220 0.441470 0.503160 0.926351
Cu4   Cu    Cu3+1 0.561830 0.565070 0.503150 0.918960
Cu5   Cu    Cu3+1 0.999900 0.438590 0.938490 0.917670
Cu6   Cu    Cu3+1 0.999930 0.561410 0.061340 0.932999
H1    H     H_    0.364874 0.228899 0.252037 0.146247
H2    H     H_    0.618899 0.364765 0.626174 0.124646
H3    H     H_    0.403141 0.568635 0.279898 0.133845
H4    H     H_    0.098839 0.436873 0.221530 0.111745
H5    H     H_    0.209836 0.437505 0.336031 0.134500
H6    H     H_    0.364877 0.139938 0.117027 0.146847
H7    H     H_    0.555415 0.216472 0.251371 0.107941
H8    H     H_    0.768705 0.129011 0.010293 0.117048
H9    H     H_    0.880873 0.241251 0.008352 0.118925
H10   H     H_    0.732401 0.372811 0.991653 0.120110
H11   H     H_    0.618090 0.258376 0.989461 0.125526
H12   H     H_    0.382076 0.599201 0.675361 0.135579
H13   H     H_    0.634682 0.978941 0.886118 0.144387
H14   H     H_    0.703574 0.935002 0.873463 0.126784
H15   H     H_    0.641233 0.950033 0.788825 0.130627
H16   H     H_    0.824569 0.723184 0.841825 0.115639
H17   H     H_    0.781039 0.682685 0.727421 0.157107
H18   H     H_    0.709256 0.671793 0.772934 0.138235
H19   H     H_    0.728654 0.331155 0.793149 0.138798
H20   H     H_    0.658781 0.279724 0.678157 0.116929
H21   H     H_    0.773335 0.320636 0.720743 0.159183
H22   H     H_    0.248302 0.579866 0.102465 0.150406
H23   H     H_    0.618417 0.791832 0.716540 0.135013
H24   H     H_    0.353403 0.649808 0.197762 0.124077
H25   H     H_    0.328566 0.546565 0.118168 0.135104
H26   H     H_    0.314324 0.633036 0.754564 0.120819
H27   H     H_    0.388456 0.722464 0.863232 0.140019
H28   H     H_    0.323632 0.737483 0.779746 0.144805
H29   H     H_    0.381398 0.869749 0.139624 0.123970
H30   H     H_    0.267170 0.757406 0.139587 0.118466
H31   H     H_    0.120041 0.627702 0.860009 0.120570
H32   H     H_    0.232291 0.742017 0.860132 0.116552
H33   H     H_    0.876870 0.638157 0.880843 0.124651
H34   H     H_    0.555495 0.341935 0.306745 0.108344
O1    O     O_R   0.537990 0.090490 0.948120 -0.509451
O2    O     O_R   0.909750 0.552440 0.962210 -0.512836
O3    O     O_R   0.909720 0.357980 0.948050 -0.514054
O4    O     O_R   0.642370 0.089850 0.051860 -0.512307
O5    O     O_R   0.909750 0.461690 0.051790 -0.507675
O6    O     O_R   0.090070 0.447560 0.037620 -0.508953
O7    O     O_R   0.090100 0.551270 0.141360 -0.507352
O8    O     O_R   0.090070 0.538310 0.948030 -0.512936
O9    O     O_R   0.090100 0.642020 0.051770 -0.508564
O10   O     O_R   0.447800 0.089920 0.037730 -0.502300
O11   O     O_R   0.552180 0.089280 0.141460 -0.506811
O12   O     O_R   0.642390 0.554900 0.592760 -0.513166
O13   O     O_R   0.357630 0.910150 0.948140 -0.513790
O14   O     O_R   0.462010 0.909510 0.051880 -0.511741
O15   O     O_R   0.447820 0.910720 0.858540 -0.511336
O16   O     O_R   0.552200 0.910080 0.962270 -0.510699
O17   O     O_R   0.538000 0.450530 0.592770 -0.510965
O18   O     O_R   0.447840 0.361480 0.413570 -0.503379
O19   O     O_R   0.552220 0.465860 0.413560 -0.506194
O20   O     O_R   0.357660 0.451630 0.413550 -0.514362
O21   O     O_R   0.462040 0.556010 0.413540 -0.513378
O22   O     O_R   0.447820 0.540680 0.592750 -0.513623
O23   O     O_R   0.552200 0.645050 0.592740 -0.517907
O24   O     O_R   0.909730 0.448730 0.858460 -0.513197

loop_
_geom_bond_atom_site_label_1
_geom_bond_atom_site_label_2
_ccdc_geom_bond_type
C43   H16   S    
C14   O18   A    
C3    C42   S    
C22   C29   A    
Cu4   O21   S    
C27   C29   A    
C35   C36   A    
C17   C51   S    
C17   O22   A    
C7    C8    A    
C47   C49   S    
Cu5   O3    S    
C12   C23   A    
C26   C27   A    
C37   C38   D    
C47   H28   S    
C13   C29   S    
C44   H20   S    
C50   H12   S    
C9    H31   S    
C30   C31   A    
C21   O8    A    
Cu2   O4    S    
Cu6   O7    S    
C28   O16   A    
C5    C28   S    
Cu3   O22   S    
Cu4   O12   S    
C42   H13   S    
Cu5   Cu6   S    
C44   H19   S    
C46   H25   S    
C16   O13   A    
C7    H30   S    
C20   O6    A    
C4    C40   S    
C10   H32   S    
C28   O15   A    
C8    C9    A    
C31   C46   S    
C4    O11   A    
C47   H26   S    
C13   O12   A    
C9    C10   A    
C37   H1    S    
C43   H17   S    
Cu1   O15   S    
Cu6   O2    S    
C5    C49   A    
C18   C25   S    
Cu5   O6    S    
C13   O17   A    
C17   O23   A    
C8    C21   S    
C43   H18   S    
Cu1   O10   S    
C26   C44   S    
C15   O20   A    
C24   C25   A    
C10   C11   A    
C6    C11   A    
C21   O9    A    
C41   H8    S    
C25   C26   A    
Cu6   O9    S    
C12   H9    S    
C38   H34   S    
Cu6   O5    S    
Cu3   O18   S    
C30   H3    S    
C34   H10   S    
C19   C23   S    
C12   C41   A    
C14   C38   S    
C46   H24   S    
C11   C16   S    
Cu2   O16   S    
C22   C43   S    
Cu2   O11   S    
C1    O4    A    
C23   C34   A    
C4    O10   A    
C45   H11   S    
C42   H15   S    
C50   C51   A    
C34   C45   A    
C47   H27   S    
C19   O3    A    
C16   O14   A    
C1    O1    A    
Cu4   O19   S    
C41   C48   A    
C22   C24   A    
Cu1   O1    S    
C15   C36   S    
C39   C40   D    
Cu1   Cu2   S    
C20   C32   S    
C45   C48   A    
C14   O19   A    
Cu3   Cu4   S    
Cu1   O13   S    
C15   O21   A    
C31   C32   A    
C3    C5    A    
C24   H33   S    
C18   O24   A    
C1    C48   S    
C6    C7    A    
Cu4   O23   S    
C30   C36   A    
C39   H6    S    
C6    H29   S    
Cu3   O17   S    
C32   C33   A    
C44   H21   S    
C2    C3    A    
C37   C39   S    
C27   H2    S    
C46   H22   S    
C40   H7    S    
C42   H14   S    
C33   C35   A    
Cu5   O24   S    
Cu3   O20   S    
C35   H5    S    
C2    H23   S    
C2    C51   A    
Cu2   O14   S    
C20   O7    A    
C33   H4    S    
C49   C50   A    
C18   O2    A    
Cu5   O8    S    
C19   O5    A    
