data_mof_unit_30510.cif
_audit_creation_date              2012-12-10T16:54:02-0500
_audit_creation_method            fapswitch 2.2
_symmetry_space_group_name_H-M    P1
_symmetry_Int_Tables_number       1
_space_group_crystal_system       triclinic
_cell_length_a                    9.745777
_cell_length_b                    10.912051
_cell_length_c                    13.333057
_cell_angle_alpha                 91.278965
_cell_angle_beta                  72.984659
_cell_angle_gamma                 89.803866
_cell_volume                      1355.44401584

loop_
_atom_site_label
_atom_site_type_symbol
_atom_type_description
_atom_site_fract_x
_atom_site_fract_y
_atom_site_fract_z
_atom_type_partial_charge
C1    C     C_R   0.497192 0.734413 0.504748 0.870243
C2    C     C_R   0.447415 0.418395 0.972982 0.071492
C3    C     C_R   0.490523 0.420663 0.862126 0.039352
C4    C     C_R   0.552817 0.432492 0.026311 0.003482
C5    C     C_R   0.700042 0.430000 0.968248 0.076752
C6    C     C_R   0.741181 0.398035 0.861136 0.372426
C7    C     C_R   0.636309 0.395388 0.808759 -0.295855
C8    C     C_R   0.515686 0.458387 0.134599 -0.229618
C9    C     C_R   0.765320 0.483072 0.125974 -0.214481
C10   C     C_R   0.385288 0.445638 0.809627 -0.091047
C11   C     C_2   0.568128 0.069037 0.546955 0.396687
C12   C     C_R   0.424908 0.483357 0.698500 0.788141
C13   C     C_2   0.512314 0.131853 0.481288 0.206861
C14   C     C_2   0.590279 0.935747 0.531258 -0.218943
C15   C     C_2   0.483953 0.865915 0.519765 -0.320535
C16   C     C_2   0.068550 0.595300 0.520123 -0.069230
C17   C     C_2   0.907968 0.585269 0.545083 0.247411
C18   C     C_R   0.502417 0.265425 0.495113 0.755872
C19   C     C_R   0.576810 0.497195 0.299689 0.788937
C20   C     C_R   0.803885 0.459624 0.018223 -0.172795
C21   C     C_R   0.620762 0.480888 0.185016 -0.048769
C22   C     C_R   0.239708 0.433280 0.865366 -0.205769
C23   C     C_R   0.199688 0.404818 0.971245 -0.155416
C24   C     C_R   0.300755 0.403240 0.025792 -0.168268
Cu1   Cu    Cu3+1 0.361370 0.499980 0.499980 0.927450
Cu2   Cu    Cu3+1 0.638630 0.500020 0.500020 0.937129
H1    H     H_    0.848334 0.503331 0.162778 0.157048
H2    H     H_    0.691259 0.896422 0.533385 0.150966
H3    H     H_    0.379878 0.906814 0.525470 0.169108
H4    H     H_    0.113284 0.684268 0.529058 0.161538
H5    H     H_    0.105382 0.416882 0.502716 0.194769
H6    H     H_    0.914275 0.442833 0.447220 0.176145
H7    H     H_    0.914384 0.468011 0.972803 0.169743
H8    H     H_    0.404880 0.464968 0.180831 0.153571
H9    H     H_    0.157049 0.443133 0.826698 0.192025
H10   H     H_    0.261855 0.385435 0.108463 0.126463
H11   H     H_    0.089755 0.386357 0.013310 0.132366
H12   H     H_    0.671721 0.370654 0.726625 0.217993
N1    N     N_2   0.152660 0.501340 0.501130 -0.298133
N2    N     N_2   0.846520 0.501370 0.501160 -0.307595
O1    O     O_R   0.382960 0.678040 0.499980 -0.578575
O2    O     O_R   0.617100 0.678080 0.500020 -0.590376
O3    O     O_R   0.325800 0.499940 0.650950 -0.564595
O4    O     O_R   0.559930 0.499980 0.650990 -0.592725
O5    O     O_R   0.382900 0.321920 0.499980 -0.605560
O6    O     O_R   0.617040 0.321960 0.500020 -0.548423
O7    O     O_R   0.440070 0.500020 0.349010 -0.578983
O8    O     O_R   0.674200 0.500060 0.349050 -0.578316
O9    O     O_3   0.481071 0.067596 0.398161 -0.644802
C25   C     C_3   0.427328 0.138678 0.330239 0.086465
H13   H     H_    0.462417 0.092901 0.251490 0.159463
H14   H     H_    0.473391 0.232000 0.317348 0.128753
C26   C     C_3   0.262740 0.139775 0.366463 -0.321361
H15   H     H_    0.223787 0.045083 0.360273 0.212433
H16   H     H_    0.221634 0.170334 0.449912 0.222518
C27   C     C_3   0.201922 0.223846 0.299732 -0.941973
H17   H     H_    0.236410 0.319659 0.307099 0.263994
H18   H     H_    0.082863 0.221454 0.326953 0.253038
H19   H     H_    0.239152 0.193082 0.216080 0.253436
C28   C     C_3   0.823322 0.685129 0.618572 -0.348975
C29   C     C_3   0.864585 0.697904 0.720483 -0.872542
H20   H     H_    0.852521 0.609444 0.760703 0.301785
H21   H     H_    0.976692 0.729697 0.705445 0.249974
H22   H     H_    0.792887 0.766593 0.773542 0.234739
H23   H     H_    0.845643 0.773457 0.577853 0.167983
H24   H     H_    0.707325 0.669553 0.641933 0.261081
O10   O     O_3   0.885808 0.387912 0.805622 -0.637762
C30   C     C_3   0.920776 0.268448 0.761722 0.049202
H25   H     H_    0.024084 0.274310 0.698458 0.170347
H26   H     H_    0.841908 0.231679 0.723477 0.150248
C31   C     C_3   0.941298 0.179780 0.843880 -0.374243
H27   H     H_    0.026339 0.214911 0.876817 0.226653
H28   H     H_    0.839907 0.173267 0.908891 0.213436
C32   C     C_3   0.983914 0.051966 0.795715 -0.922612
H29   H     H_    0.897452 0.013337 0.766019 0.255499
H30   H     H_    0.001421 0.990450 0.856145 0.262551
H31   H     H_    0.084701 0.055770 0.729950 0.249567
O11   O     O_3   0.615968 0.131775 0.622447 -0.638661
C33   C     C_3   0.563019 0.078861 0.722345 0.017622
H32   H     H_    0.617690 0.124638 0.775014 0.171838
H33   H     H_    0.591049 0.979792 0.721163 0.140551
C34   C     C_3   0.400446 0.100013 0.768564 -0.366694
H34   H     H_    0.373123 0.196433 0.756994 0.228360
H35   H     H_    0.342488 0.039269 0.727063 0.198276
C35   C     C_3   0.349925 0.073409 0.885441 -0.877229
H36   H     H_    0.374861 0.976780 0.898682 0.251118
H37   H     H_    0.232154 0.088422 0.915973 0.258407
H38   H     H_    0.403129 0.135673 0.929283 0.257552

loop_
_geom_bond_atom_site_label_1
_geom_bond_atom_site_label_2
_ccdc_geom_bond_type
C4    C8    A    
Cu2   N2    S    
Cu1   O3    S    
Cu2   O4    S    
C5    C20   A    
C26   H15   S    
C10   C22   A    
C22   H9    S    
C9    H1    S    
C24   H10   S    
C32   H30   S    
C13   C18   S    
C19   C21   S    
C12   O3    A    
C3    C7    A    
C35   H36   S    
C5    C6    A    
C11   C14   S    
C19   O7    A    
C26   C27   S    
C16   H4    S    
C27   H17   S    
C29   H21   S    
C27   H18   S    
C16   C17   S    
C32   H31   S    
C25   H14   S    
C23   C24   A    
C1    C15   S    
Cu1   O7    S    
Cu2   O8    S    
C35   H37   S    
C28   H24   S    
C18   O6    A    
C15   H3    S    
C26   H16   S    
C25   C26   S    
C32   H29   S    
O10   C30   S    
Cu1   O1    S    
C33   H33   S    
O11   C33   S    
C30   H25   S    
C16   N1    D    
Cu1   Cu2   S    
C23   H11   S    
C28   C29   S    
C17   N2    D    
C29   H22   S    
C2    C4    A    
C11   O11   S    
C31   C32   S    
C9    C20   A    
C14   C15   D    
C25   H13   S    
C8    H8    S    
C10   C12   S    
C13   O9    S    
C20   H7    S    
C1    O1    A    
C6    O10   S    
C28   H23   S    
C34   H34   S    
C34   H35   S    
C2    C24   A    
C18   O5    A    
Cu1   O5    S    
Cu2   O2    S    
C31   H28   S    
C35   H38   S    
C19   O8    A    
C4    C5    A    
C8    C21   A    
C33   C34   S    
C6    C7    A    
C34   C35   S    
C27   H19   S    
C2    C3    A    
C31   H27   S    
C12   O4    A    
C3    C10   A    
Cu1   N1    S    
C11   C13   D    
C9    C21   A    
C30   C31   S    
C7    H12   S    
H5    N1    S    
H6    N2    S    
C29   H20   S    
Cu2   O6    S    
C17   C28   S    
C33   H32   S    
C1    O2    A    
C30   H26   S    
O9    C25   S    
C22   C23   A    
C14   H2    S    
