data_mof_unit_21210.cif
_audit_creation_date              2012-12-11T14:36:04-0500
_audit_creation_method            fapswitch 2.2
_symmetry_space_group_name_H-M    P1
_symmetry_Int_Tables_number       1
_space_group_crystal_system       triclinic
_cell_length_a                    13.474184
_cell_length_b                    13.509708
_cell_length_c                    27.514749
_cell_angle_alpha                 90.812787
_cell_angle_beta                  90.20202
_cell_angle_gamma                 59.823633
_cell_volume                      4329.34879845

loop_
_atom_site_label
_atom_site_type_symbol
_atom_type_description
_atom_site_fract_x
_atom_site_fract_y
_atom_site_fract_z
_atom_type_partial_charge
C1    C     C_R   0.598802 0.073555 0.575554 0.553398
C2    C     C_1   0.630405 0.734760 0.616959 0.004554
C3    C     C_3   0.710774 0.562599 0.768066 -0.111335
C4    C     C_3   0.676736 0.658921 0.806174 0.031955
C5    C     C_3   0.598193 0.640061 0.740356 -0.106888
C6    C     C_3   0.661306 0.688506 0.711562 0.061813
C7    C     C_3   0.564352 0.735973 0.779177 -0.116461
C8    C     C_3   0.627221 0.784931 0.749646 -0.077520
C9    C     C_1   0.686081 0.636826 0.858438 -0.052482
C10   C     C_1   0.648066 0.709097 0.659168 -0.024439
C11   C     C_3   0.093681 0.130747 0.737733 -0.083004
C12   C     C_R   0.599592 0.780073 0.568956 0.539856
C13   C     C_3   0.186051 0.059646 0.776173 -0.108072
C14   C     C_1   0.096105 0.201411 0.901672 -0.017526
C15   C     C_1   0.230729 0.138264 0.617811 -0.004555
C16   C     C_3   0.053401 0.240290 0.769378 -0.087890
C17   C     C_3   0.146258 0.169039 0.806953 0.044565
C18   C     C_3   0.140133 0.264769 0.743205 -0.105825
C19   C     C_3   0.180003 0.155469 0.712356 0.045684
C20   C     C_3   0.232467 0.193784 0.781491 -0.103043
C21   C     C_3   0.272859 0.084160 0.749918 -0.103309
C22   C     C_1   0.123534 0.182291 0.859418 -0.064133
C23   C     C_R   0.278145 0.121867 0.569802 0.538813
C24   C     C_1   0.203076 0.147483 0.659987 -0.046359
C25   C     C_3   0.631611 0.236348 0.742181 -0.099346
C26   C     C_3   0.545888 0.245818 0.782108 -0.148371
C27   C     C_1   0.684387 0.202244 0.905776 -0.011258
C28   C     C_1   0.609093 0.098342 0.625503 0.026525
C29   C     C_3   0.732240 0.153318 0.774505 0.312430
C30   C     C_3   0.647450 0.163504 0.814053 0.007164
C31   C     C_3   0.729975 0.050338 0.751686 0.304462
C32   C     C_3   0.628828 0.132377 0.719950 0.004810
C33   C     C_3   0.645596 0.058508 0.791782 -0.142425
C34   C     C_R   0.622309 0.099210 0.431100 0.555723
C35   C     C_3   0.543302 0.141200 0.759200 -0.173761
C36   C     C_1   0.662764 0.184183 0.865226 -0.039097
C37   C     C_1   0.617633 0.115311 0.667982 0.006615
C38   C     C_R   0.733664 0.708167 0.358967 -0.115811
C39   C     C_R   0.745073 0.690991 0.308650 0.012696
C40   C     C_R   0.760470 0.667114 0.207036 0.006848
C41   C     C_R   0.849225 0.667550 0.233595 -0.129991
C42   C     C_R   0.840491 0.681427 0.284070 -0.103973
C43   C     C_R   0.771066 0.645221 0.157013 -0.136285
C44   C     C_R   0.683066 0.639950 0.131803 -0.003712
C45   C     C_R   0.601960 0.775889 0.430303 0.548367
C46   C     C_R   0.554286 0.705876 0.356368 -0.127409
C47   C     C_R   0.560985 0.695728 0.306251 0.011004
C48   C     C_R   0.656236 0.689124 0.282129 0.062133
C49   C     C_R   0.470632 0.698526 0.279849 -0.133406
C50   C     C_R   0.474125 0.695684 0.229413 -0.134600
C51   C     C_R   0.569985 0.685661 0.205155 0.013260
C52   C     C_R   0.661915 0.681581 0.231410 0.065433
C53   C     C_R   0.578874 0.671122 0.155214 -0.129778
C54   C     C_R   0.635569 0.720820 0.382487 -0.002690
C55   C     C_R   0.215591 0.056531 0.357725 -0.130795
C56   C     C_R   0.277445 0.120862 0.431183 0.547601
C57   C     C_R   0.189288 0.071018 0.308275 0.020082
C58   C     C_R   0.149396 0.095807 0.207793 0.026116
C59   C     C_R   0.168527 0.995712 0.230699 -0.122637
C60   C     C_R   0.189543 0.982914 0.280572 -0.117759
C61   C     C_R   0.124162 0.111499 0.158184 -0.130339
C62   C     C_R   0.102890 0.213352 0.136134 0.001811
C63   C     C_R   0.184264 0.249645 0.363067 -0.082397
C64   C     C_R   0.165430 0.263874 0.313228 0.002605
C65   C     C_R   0.168032 0.173256 0.285668 0.017538
C66   C     C_R   0.149725 0.363601 0.289885 0.280633
C67   C     C_3   0.773751 0.611483 0.738526 -0.082233
C68   C     C_R   0.135086 0.371789 0.239622 -0.112774
C69   C     C_R   0.135059 0.283531 0.212548 -0.041557
C70   C     C_R   0.151179 0.184007 0.235336 0.050801
C71   C     C_R   0.114689 0.295825 0.162992 -0.123632
C72   C     C_R   0.217884 0.144196 0.384587 -0.025495
C73   C     C_R   0.572020 0.239333 0.363834 -0.116143
C74   C     C_R   0.578549 0.258334 0.314288 0.016705
C75   C     C_R   0.588145 0.291112 0.213991 0.008156
C76   C     C_R   0.514826 0.383422 0.244439 -0.116256
C77   C     C_R   0.509529 0.366966 0.294231 -0.086644
C78   C     C_3   0.739895 0.707428 0.777476 -0.071033
C79   C     C_R   0.599521 0.307341 0.164652 -0.132717
C80   C     C_R   0.678351 0.214711 0.135557 -0.003941
C81   C     C_R   0.723686 0.041052 0.352949 -0.125931
C82   C     C_R   0.727445 0.057168 0.303584 0.009836
C83   C     C_R   0.653990 0.165728 0.283908 0.058431
C84   C     C_R   0.801308 0.964995 0.273468 -0.122605
C85   C     C_R   0.801507 0.979523 0.223634 -0.124199
C86   C     C_R   0.730425 0.087432 0.203715 0.013933
C87   C     C_R   0.656685 0.181359 0.233802 0.062106
C88   C     C_R   0.737575 0.104193 0.154583 -0.128050
C89   C     C_1   0.695831 0.609558 0.900453 -0.009803
C90   C     C_R   0.642927 0.129881 0.382933 -0.006684
C91   C     C_R   0.048991 0.236239 0.949690 0.546431
C92   C     C_R   0.711279 0.563161 0.948233 0.545970
C93   C     C_R   0.721141 0.224805 0.951445 0.545947
C94   C     C_R   0.047674 0.245643 0.088614 0.546261
C95   C     C_R   0.707135 0.576179 0.086019 0.546019
C96   C     C_R   0.718254 0.234485 0.089396 0.547534
Cr1   Cr    Cr6+3 0.417550 0.169090 0.500530 1.050999
Cr2   Cr    Cr6+3 0.669180 0.913420 0.499920 1.048611
Cr3   Cr    Cr6+3 0.413260 0.917540 0.499520 1.031095
Cr4   Cr    Cr6+3 0.909170 0.177380 0.020380 1.021623
Cr5   Cr    Cr6+3 0.912710 0.429210 0.018220 1.024521
Cr6   Cr    Cr6+3 0.657170 0.432570 0.019030 1.024457
H1    H     H_    0.797588 0.735412 0.793529 0.166275
H2    H     H_    0.288805 0.219970 0.800324 0.108723
H3    H     H_    0.120955 0.349177 0.729140 0.113325
H4    H     H_    0.962756 0.304614 0.778013 0.130988
H5    H     H_    0.469454 0.326200 0.794949 0.125651
H6    H     H_    0.627293 0.308532 0.721625 0.123148
H7    H     H_    0.465470 0.135581 0.751655 0.117473
H8    H     H_    0.651341 0.985720 0.812356 0.125122
H9    H     H_    0.850822 0.623314 0.138715 0.120517
H10   H     H_    0.859669 0.560145 0.721328 0.121163
H11   H     H_    0.797008 0.718809 0.379165 0.137937
H12   H     H_    0.925078 0.657292 0.215386 0.123146
H13   H     H_    0.908067 0.684935 0.303880 0.181375
H14   H     H_    0.509214 0.670544 0.135567 0.129320
H15   H     H_    0.403572 0.697873 0.209447 0.104963
H16   H     H_    0.396636 0.704650 0.298176 0.113717
H17   H     H_    0.478986 0.713931 0.374333 0.136093
H18   H     H_    0.115733 0.047320 0.137417 0.119597
H19   H     H_    0.240774 0.975063 0.374443 0.129200
H20   H     H_    0.167578 0.927300 0.210043 0.107260
H21   H     H_    0.592820 0.876694 0.741382 0.125043
H22   H     H_    0.205864 0.904219 0.297503 0.112421
H23   H     H_    0.099078 0.374541 0.146220 0.132027
H24   H     H_    0.122798 0.447674 0.221377 0.145255
H25   H     H_    0.182238 0.317328 0.385098 0.224164
H26   H     H_    0.553621 0.392921 0.149933 0.127440
H27   H     H_    0.509871 0.307995 0.387035 0.150649
H28   H     H_    0.462294 0.468357 0.229820 0.120748
H29   H     H_    0.452514 0.439392 0.317076 0.163854
H30   H     H_    0.797260 0.032349 0.131979 0.127665
H31   H     H_    0.478408 0.787497 0.796339 0.109496
H32   H     H_    0.859344 0.907201 0.200865 0.109921
H33   H     H_    0.858737 0.881759 0.288495 0.115127
H34   H     H_    0.778475 0.956012 0.367207 0.134130
H35   H     H_    0.540276 0.611965 0.724570 0.115932
H36   H     H_    0.744984 0.470822 0.776245 0.128017
H37   H     H_    0.205063 0.975361 0.790314 0.105981
H38   H     H_    0.036646 0.105405 0.718933 0.167801
H39   H     H_    0.363365 0.019399 0.741276 0.097584
O1    O     O_R   0.301710 0.195650 0.554160 -0.510856
O2    O     O_R   0.658900 0.818120 0.449760 -0.502636
O3    O     O_R   0.503220 0.801620 0.445520 -0.518766
O4    O     O_R   0.319370 0.022040 0.450020 -0.498206
O5    O     O_3   0.499990 0.000010 0.499990 -0.275415
O6    O     O_R   0.818720 0.150820 0.967160 -0.511470
O7    O     O_R   0.006410 0.181720 0.970200 -0.497631
O8    O     O_R   0.027890 0.334070 0.964920 -0.503873
O9    O     O_R   0.809600 0.521790 0.967960 -0.494444
O10   O     O_R   0.635520 0.542770 0.964420 -0.506992
O11   O     O_R   0.665950 0.325030 0.970100 -0.492742
O12   O     O_R   0.522390 0.158990 0.550460 -0.498277
O13   O     O_R   0.816620 0.158530 0.074540 -0.519446
O14   O     O_R   0.004460 0.188870 0.069750 -0.499889
O15   O     O_R   0.025800 0.341780 0.072300 -0.522088
O16   O     O_R   0.807650 0.528950 0.067500 -0.501618
O17   O     O_R   0.633420 0.550490 0.071810 -0.524069
O18   O     O_R   0.664000 0.332180 0.069640 -0.501884
O19   O     O_3   0.826350 0.346390 0.019210 -0.243597
O20   O     O_R   0.694390 0.003530 0.554040 -0.474770
O21   O     O_R   0.657700 0.819660 0.549320 -0.498928
O22   O     O_R   0.501930 0.803280 0.552920 -0.505253
O23   O     O_R   0.318170 0.023580 0.549580 -0.493403
O24   O     O_R   0.303010 0.193990 0.446760 -0.504342
O25   O     O_R   0.523600 0.157450 0.450900 -0.485487
O26   O     O_R   0.695690 0.001860 0.446640 -0.517314
S1    S     S_3+6 0.849146 0.919852 0.729617 -0.026523
O27   O     O_2   0.805909 0.854949 0.700098 -0.302004
O28   O     O_2   0.923406 0.946639 0.698207 -0.276258
O29   O     O_3   0.925841 0.840069 0.776796 -0.588081
H40   H     H_    0.987265 0.768002 0.761939 0.365059
O30   O     O_3   0.827978 0.167792 0.782029 -0.582893
C97   C     C_3   0.912755 0.077423 0.809698 -0.077921
H41   H     H_    0.978921 0.012061 0.785098 0.187845
H42   H     H_    0.879450 0.035343 0.833927 0.145136
H43   H     H_    0.955378 0.112119 0.833225 0.128387
S2    S     S_3+6 0.153689 0.476761 0.321763 -0.053924
O31   O     O_2   0.267888 0.430386 0.346459 -0.318437
O32   O     O_2   0.137075 0.569928 0.287709 -0.337251
O33   O     O_3   0.049291 0.530984 0.364178 -0.565794
H44   H     H_    0.056436 0.592843 0.380576 0.362253

loop_
_geom_bond_atom_site_label_1
_geom_bond_atom_site_label_2
_ccdc_geom_bond_type
C66   C68   A    
O29   H40   S    
C55   H19   S    
C84   H33   S    
C40   C41   A    
Cr2   O2    S    
C50   H15   S    
Cr1   O5    S    
C83   C87   A    
C74   C83   A    
C79   H26   S    
C2    C12   S    
Cr6   O17   S    
S2    O31   D    
C7    C8    S    
C47   C49   A    
O33   H44   S    
C66   S2    S    
C11   C19   S    
C20   C21   S    
C13   H37   S    
C40   C52   A    
C19   C21   S    
Cr4   O7    S    
C73   C90   A    
C7    H31   S    
C77   H29   S    
C5    C6    S    
C86   C88   A    
Cr4   O6    S    
C65   C70   A    
C95   O17   A    
Cr5   O9    S    
C17   C20   S    
C60   H22   S    
C18   C19   S    
C73   C74   A    
Cr5   O8    S    
C56   O4    A    
C69   C71   A    
Cr4   O19   S    
C97   H41   S    
C76   H28   S    
C44   C53   A    
S1    O29   S    
C96   O13   A    
C47   C48   A    
Cr5   O19   S    
C16   C17   S    
C56   C72   S    
C74   C77   A    
C56   O24   A    
C62   C71   A    
C1    C28   S    
C31   C33   S    
C23   O1    A    
Cr1   O12   S    
C80   C96   S    
C41   H12   S    
C55   C72   A    
C35   H7    S    
C53   H14   S    
C16   H4    S    
C85   H32   S    
C58   C61   A    
C15   C23   S    
C41   C42   A    
Cr3   O4    S    
Cr5   O16   S    
C59   C60   A    
C61   H18   S    
C8    C78   S    
Cr1   O25   S    
C61   C62   A    
C67   C78   S    
C43   H9    S    
C4    C7    S    
C91   O7    A    
Cr2   O21   S    
C81   C82   A    
C39   C42   A    
C40   C43   A    
C25   C29   S    
Cr1   O1    S    
C73   H27   S    
C51   C52   A    
C32   C35   S    
Cr3   O3    S    
C76   C77   A    
C9    C89   T    
C5    C7    S    
C38   H11   S    
C86   C87   A    
C68   C69   A    
C57   C60   A    
C6    C8    S    
Cr2   O5    S    
Cr5   O15   S    
C58   C59   A    
O30   C97   S    
C79   C80   A    
C51   C53   A    
C11   H38   S    
Cr6   O18   S    
C75   C76   A    
C34   C90   S    
C4    C78   S    
C29   C30   S    
C45   O3    A    
C11   C16   S    
C26   C35   S    
C49   H16   S    
C38   C54   A    
C29   C31   S    
C46   C54   A    
C92   O10   A    
C50   C51   A    
C94   O14   A    
C13   C21   S    
C67   H10   S    
C3    H36   S    
C32   C37   S    
C84   C85   A    
C89   C92   S    
C1    O12   A    
C97   H43   S    
C85   C86   A    
Cr3   O22   S    
C81   C90   A    
Cr4   O14   S    
C75   C87   A    
S1    O27   D    
Cr3   O5    S    
C45   C54   S    
C26   C30   S    
C82   C84   A    
C62   C94   S    
C43   C44   A    
C92   O9    A    
C49   C50   A    
C27   C93   S    
C88   H30   S    
Cr6   O19   S    
C3    C4    S    
C2    C10   T    
C68   H24   S    
Cr2   O20   S    
C81   H34   S    
C91   O8    A    
C23   O23   A    
Cr4   O13   S    
C46   C47   A    
C15   C24   T    
C29   O30   S    
C30   C33   S    
C78   H1    S    
C95   O16   A    
C1    O20   A    
C31   C32   S    
C58   C70   A    
Cr2   O26   S    
C57   C65   A    
Cr3   O23   S    
C3    C5    S    
C16   C18   S    
C26   H5    S    
C6    C10   S    
S2    O32   D    
C8    H21   S    
C5    H35   S    
C20   H2    S    
C30   C36   S    
C27   C36   T    
Cr6   O10   S    
C17   C22   S    
C13   C17   S    
C64   C65   A    
C14   C22   T    
C55   C57   A    
C19   C24   S    
C25   C26   S    
C18   H3    S    
C21   H39   S    
C80   C88   A    
C44   C95   S    
C6    C67   S    
C12   O22   A    
C11   C13   S    
C38   C39   A    
C3    C67   S    
C28   C37   T    
C59   H20   S    
Cr1   O24   S    
S1    O28   D    
C63   C72   A    
C33   C35   S    
C46   H17   S    
C93   O6    A    
C18   C20   S    
C69   C70   A    
C97   H42   S    
C14   C91   S    
S2    O33   S    
C12   O21   A    
C63   C64   A    
C42   H13   S    
C48   C52   A    
C96   O18   A    
C31   S1    S    
C94   O15   A    
C82   C83   A    
Cr6   O11   S    
C45   O2    A    
C71   H23   S    
C93   O11   A    
C33   H8    S    
C4    C9    S    
C34   O25   A    
C75   C79   A    
C63   H25   S    
C34   O26   A    
C25   H6    S    
C64   C66   A    
C39   C48   A    
C25   C32   S    
