data_mof_unit_39173.cif
_audit_creation_date              2012-12-10T19:01:24-0500
_audit_creation_method            fapswitch 2.2
_symmetry_space_group_name_H-M    P1
_symmetry_Int_Tables_number       1
_space_group_crystal_system       triclinic
_cell_length_a                    9.537702
_cell_length_b                    10.848172
_cell_length_c                    15.410701
_cell_angle_alpha                 89.276334
_cell_angle_beta                  74.79682
_cell_angle_gamma                 90.962847
_cell_volume                      1538.2320477

loop_
_atom_site_label
_atom_site_type_symbol
_atom_type_description
_atom_site_fract_x
_atom_site_fract_y
_atom_site_fract_z
_atom_type_partial_charge
C1    C     C_R   0.997682 0.262398 0.502957 0.785829
C2    C     C_R   0.680094 0.497477 0.911257 0.023081
C3    C     C_R   0.778153 0.536436 0.960736 0.016928
C4    C     C_R   0.532543 0.466816 0.957282 0.095320
C5    C     C_R   0.481638 0.489424 0.050918 0.082949
C6    C     C_R   0.584001 0.524097 0.098193 -0.261692
C7    C     C_R   0.728920 0.545422 0.054148 -0.151626
C8    C     C_R   0.435827 0.409572 0.913858 -0.179487
C9    C     C_R   0.292108 0.382794 0.959294 -0.104337
C10   C     C_R   0.236781 0.415401 0.049025 0.079008
C11   C     C_R   0.331151 0.471224 0.095178 0.004891
C12   C     C_R   0.919562 0.503809 0.672834 0.860283
C13   C     C_R   0.089172 0.390279 0.093559 0.488372
C14   C     C_R   0.035199 0.425127 0.183820 -0.331373
C15   C     C_R   0.271946 0.507358 0.184294 -0.258244
C16   C     C_R   0.114298 0.066448 0.520432 0.128077
C17   C     C_R   0.991217 0.129494 0.513963 -0.097523
C18   C     C_R   0.861788 0.062091 0.520169 -0.223390
C19   C     C_R   0.863380 0.933416 0.519403 -0.218811
C20   C     C_R   0.994582 0.871201 0.511655 -0.104914
C21   C     C_R   0.116344 0.939428 0.518582 0.173364
C22   C     C_3   0.267740 0.941041 0.459628 -0.499474
C23   C     C_R   0.999782 0.737961 0.501791 0.786814
C24   C     C_3   0.266533 0.080038 0.463548 -0.474280
C25   C     C_R   0.584352 0.604796 0.478473 0.187028
C26   C     C_R   0.559216 0.401201 0.531801 -0.060551
C27   C     C_R   0.410280 0.401460 0.532146 0.030354
C28   C     C_R   0.438335 0.603428 0.475934 0.227204
C29   C     C_3   0.475190 0.668508 0.387027 -0.564304
C30   C     C_3   0.629719 0.682631 0.395092 0.294429
C31   C     C_R   0.081560 0.497687 0.327617 0.810360
C32   C     C_R   0.878979 0.513477 0.772628 -0.248017
C33   C     C_R   0.127439 0.480600 0.229674 -0.125406
C34   C     C_R   0.925383 0.563476 0.917029 0.362528
C35   C     C_R   0.979166 0.546443 0.823516 0.258189
C36   C     C_R   0.732214 0.491656 0.817342 -0.309795
Cu1   Cu    Cu3+1 0.140670 0.499980 0.500000 1.005276
Cu2   Cu    Cu3+1 0.859330 0.500020 0.500000 0.973714
H1    H     H_    0.802643 0.569476 0.094315 0.186452
H2    H     H_    0.761658 0.108116 0.520757 0.157434
H3    H     H_    0.763670 0.883635 0.520427 0.158723
H4    H     H_    0.345224 0.900105 0.494069 0.205565
H5    H     H_    0.271950 0.907787 0.391065 0.188932
H6    H     H_    0.341450 0.117840 0.501380 0.187549
H7    H     H_    0.274305 0.125692 0.397358 0.203292
H8    H     H_    0.602629 0.320544 0.556477 0.125394
H9    H     H_    0.342642 0.321535 0.558014 0.137088
H10   H     H_    0.464164 0.606506 0.332247 0.209900
H11   H     H_    0.336127 0.557919 0.220295 0.151313
H12   H     H_    0.422185 0.756976 0.386790 0.161835
H13   H     H_    0.659505 0.776886 0.413095 0.064203
H14   H     H_    0.922458 0.407004 0.218731 0.171532
H15   H     H_    0.223641 0.337212 0.922956 0.175868
H16   H     H_    0.658654 0.471499 0.776839 0.201704
H17   H     H_    0.556818 0.530386 0.170365 0.152022
H18   H     H_    0.469038 0.379866 0.845171 0.155711
N1    N     N_R   0.648210 0.500930 0.499430 -0.171240
N2    N     N_R   0.352300 0.500890 0.499430 -0.161609
O1    O     O_R   0.118810 0.319640 0.500000 -0.594154
O2    O     O_R   0.881230 0.319680 0.499990 -0.598601
O3    O     O_R   0.055580 0.499970 0.629840 -0.485075
O4    O     O_R   0.818000 0.500010 0.629830 -0.589617
O5    O     O_R   0.118770 0.680320 0.500010 -0.558616
O6    O     O_R   0.881190 0.680360 0.500000 -0.596607
O7    O     O_R   0.182000 0.499990 0.370170 -0.592149
O8    O     O_R   0.944420 0.500030 0.370160 -0.536290
O9    O     O_3   0.999081 0.337975 0.045544 -0.585792
C37   C     C_3   0.916693 0.236935 0.092960 0.058615
H19   H     H_    0.814518 0.270152 0.138892 0.151683
H20   H     H_    0.977978 0.183934 0.133099 0.094257
C38   C     C_3   0.878355 0.147651 0.026175 -0.364016
H21   H     H_    0.979904 0.114805 0.979531 0.215394
H22   H     H_    0.818419 0.066454 0.063675 0.174145
C39   C     C_3   0.784706 0.207067 0.971384 -0.736189
H23   H     H_    0.685637 0.246245 0.016545 0.244723
H24   H     H_    0.751038 0.136576 0.928842 0.217620
H25   H     H_    0.847874 0.280800 0.926585 0.269823
O10   O     O_3   0.729228 0.625984 0.323327 -0.567784
C40   C     C_3   0.818379 0.716836 0.267184 0.112420
H26   H     H_    0.904610 0.666992 0.218917 0.126227
H27   H     H_    0.876909 0.776024 0.305487 0.130352
C41   C     C_3   0.735497 0.793429 0.212149 -0.393963
H28   H     H_    0.805061 0.805752 0.142866 0.183678
H29   H     H_    0.634994 0.743854 0.207551 0.233278
C42   C     C_3   0.698114 0.922428 0.249086 -0.895131
H30   H     H_    0.616643 0.918461 0.315205 0.255334
H31   H     H_    0.650488 0.975474 0.202105 0.244604
H32   H     H_    0.797527 0.972428 0.255360 0.243470
O11   O     O_3   0.019447 0.596832 0.967798 -0.569976
C43   C     C_3   0.027360 0.726744 0.971448 0.085383
H33   H     H_    0.918607 0.764709 0.002274 0.097304
H34   H     H_    0.068240 0.768724 0.902917 0.181101
C44   C     C_3   0.132584 0.761696 0.027319 -0.279696
H35   H     H_    0.098264 0.714668 0.094098 0.204241
H36   H     H_    0.243150 0.729803 0.993058 0.255104
C45   C     C_3   0.139042 0.900494 0.040562 -0.978873
H37   H     H_    0.172721 0.949644 0.974501 0.263743
H38   H     H_    0.219446 0.922207 0.079090 0.261842
H39   H     H_    0.031358 0.933200 0.079036 0.250648
S1    S     S_3+6 0.170834 0.565548 0.773183 0.010782
O12   O     O_2   0.195860 0.665301 0.701843 -0.276055
O13   O     O_2   0.255765 0.599949 0.838939 -0.274144
O14   O     O_3   0.236768 0.432457 0.725967 -0.530206
H40   H     H_    0.190557 0.367252 0.770272 0.314726

loop_
_geom_bond_atom_site_label_1
_geom_bond_atom_site_label_2
_ccdc_geom_bond_type
C8    C9    A    
C31   O8    A    
C30   H13   S    
C44   H35   S    
C19   C20   A    
C6    H17   S    
C4    C8    A    
C8    H18   S    
C14   C33   A    
C42   H30   S    
C25   C28   A    
C26   C27   A    
C16   C21   A    
C39   H24   S    
C24   H7    S    
C32   C36   A    
C28   C29   S    
Cu1   Cu2   S    
C5    C11   A    
C3    C7    A    
C1    O1    A    
C5    C6    A    
C16   C17   A    
C2    C36   A    
C45   H39   S    
C34   C35   A    
C18   H2    S    
C11   C15   A    
C14   H14   S    
Cu2   O8    S    
C37   H19   S    
C39   H25   S    
C45   H38   S    
C31   C33   S    
C9    C10   A    
Cu1   N2    S    
C23   O5    A    
C44   H36   S    
C21   C22   S    
C12   C32   S    
C25   N1    A    
Cu1   O5    S    
Cu2   O6    S    
C29   H12   S    
C42   H31   S    
C39   H23   S    
C29   H10   S    
O9    C37   S    
C32   C35   A    
C1    O2    A    
C40   H27   S    
O10   C40   S    
C18   C19   A    
C3    C34   A    
C27   N2    A    
S1    O14   S    
Cu1   O7    S    
C2    C4    A    
C29   C30   S    
C40   C41   S    
Cu2   N1    S    
C12   O4    A    
C43   H34   S    
C22   H5    S    
C20   C23   S    
C45   H37   S    
S1    O13   D    
C17   C18   A    
Cu1   O1    S    
Cu2   O2    S    
C37   H20   S    
C23   O6    A    
C44   C45   S    
C41   H29   S    
C24   H6    S    
C22   C24   S    
C9    H15   S    
C35   S1    S    
C43   C44   S    
C38   H22   S    
C13   O9    S    
C42   H32   S    
C27   H9    S    
C25   C30   S    
C31   O7    A    
C4    C5    A    
C10   C13   A    
C38   C39   S    
Cu1   O3    S    
C6    C7    A    
C28   N2    A    
C41   C42   S    
C1    C17   S    
C2    C3    A    
C34   O11   S    
C38   H21   S    
C12   O3    A    
C43   H33   S    
C22   H4    S    
C37   C38   S    
S1    O12   D    
C15   H11   S    
C26   N1    A    
C36   H16   S    
C10   C11   A    
C26   H8    S    
C40   H26   S    
C30   O10   S    
C20   C21   A    
C16   C24   S    
C41   H28   S    
O14   H40   S    
C7    H1    S    
O11   C43   S    
C13   C14   A    
C15   C33   A    
C19   H3    S    
Cu2   O4    S    
