data_mof_unit_50502.cif
_audit_creation_date              2013-03-05T16:48:30-0500
_audit_creation_method            fapswitch 2.2
_symmetry_space_group_name_H-M    P1
_symmetry_Int_Tables_number       1
_space_group_crystal_system       triclinic
_cell_length_a                    10.815786
_cell_length_b                    14.947089
_cell_length_c                    15.001815
_cell_angle_alpha                 63.903216
_cell_angle_beta                  105.942749
_cell_angle_gamma                 103.806484
_cell_volume                      2074.65343268

loop_
_atom_site_label
_atom_site_type_symbol
_atom_site_description
_atom_site_fract_x
_atom_site_fract_y
_atom_site_fract_z
_atom_type_partial_charge
O1    O     O_R   0.455540 0.022090 0.338120 -0.577416
O2    O     O_R   0.544460 0.977910 0.661880 -0.575613
O3    O     O_R   0.512510 0.160150 0.379180 -0.533920
O4    O     O_R   0.487490 0.839850 0.620820 -0.535225
C1    C     C_R   0.475951 0.119737 0.312691 0.788059
C2    C     C_R   0.523247 0.880265 0.687421 0.797242
O5    O     O_R   0.291160 0.930970 0.479480 -0.546603
O6    O     O_R   0.708840 0.069030 0.520520 -0.547748
O7    O     O_R   0.348130 0.069020 0.520540 -0.547307
O8    O     O_R   0.651870 0.930980 0.479460 -0.545577
C3    C     C_R   0.262931 0.999114 0.501021 0.807625
C4    C     C_R   0.736903 0.001164 0.498534 0.811506
Cu1   Cu    Cu3+1 0.466270 0.918260 0.475690 1.056077
Cu2   Cu    Cu3+1 0.533730 0.081740 0.524310 1.054486
H1    H     H_    0.456040 0.136327 0.844486 0.210543
H2    H     H_    0.541263 0.887225 0.140584 0.213294
C5    C     C_R   0.356566 0.010767 0.805865 0.426399
C6    C     C_R   0.644634 0.006688 0.187830 0.418866
C7    C     C_R   0.262970 0.981256 0.734548 -0.231693
C8    C     C_R   0.738713 0.030207 0.262786 -0.238648
H3    H     H_    0.242775 0.903124 0.744790 0.160905
H4    H     H_    0.761338 0.106804 0.257492 0.160212
C9    C     C_R   0.195314 0.052544 0.649653 0.025727
C10   C     C_R   0.803832 0.955010 0.344972 0.020003
C11   C     C_R   0.219230 0.153546 0.636877 -0.026912
C12   C     C_R   0.776735 0.855970 0.351473 -0.024025
H5    H     H_    0.165134 0.208103 0.571710 0.192817
H6    H     H_    0.828712 0.798394 0.414605 0.195328
C13   C     C_R   0.313526 0.184180 0.707041 -0.053750
C14   C     C_R   0.681952 0.831190 0.277629 -0.056091
C15   C     C_R   0.383530 0.112804 0.790155 -0.236798
C16   C     C_R   0.614660 0.906454 0.197262 -0.278849
C17   C     C_R   0.967496 0.020113 0.572165 -0.152230
C18   C     C_R   0.032006 0.980406 0.426796 -0.154129
H7    H     H_    0.942264 0.029538 0.631996 0.224266
H8    H     H_    0.057297 0.971047 0.366916 0.220140
C19   C     C_R   0.870457 0.001572 0.496844 -0.074331
C20   C     C_R   0.129157 0.999073 0.502173 -0.071619
C21   C     C_R   0.902440 0.979631 0.424110 0.010434
C22   C     C_R   0.097041 0.022235 0.574060 0.008502
C23   C     C_R   0.446929 0.188480 0.205497 -0.043464
C24   C     C_R   0.546205 0.811867 0.795304 -0.059428
C25   C     C_R   0.311709 0.226430 0.037862 0.008680
C26   C     C_R   0.667681 0.776281 0.967023 0.021559
C27   C     C_R   0.353303 0.158040 0.136072 -0.171327
C28   C     C_R   0.630672 0.843915 0.867476 -0.142620
C29   C     C_R   0.504515 0.288250 0.175426 -0.117203
C30   C     C_R   0.490837 0.711521 0.824406 -0.152091
C31   C     C_R   0.460486 0.361878 0.079670 0.087008
C32   C     C_R   0.520851 0.640612 0.924631 0.082634
C33   C     C_R   0.362095 0.330147 0.009935 0.108801
C34   C     C_R   0.612632 0.673458 0.996439 0.112105
C35   C     C_R   0.509436 0.466213 0.052721 0.067052
C36   C     C_R   0.464766 0.537446 0.954186 0.073661
C37   C     C_R   0.362936 0.503748 0.889240 -0.168738
C38   C     C_R   0.597707 0.502231 0.122416 -0.166477
C39   C     C_R   0.312553 0.403144 0.916760 -0.159529
C40   C     C_R   0.644681 0.603269 0.095705 -0.160890
H9    H     H_    0.231316 0.384672 0.864262 0.225126
H10   H     H_    0.706819 0.624679 0.154958 0.226477
H11   H     H_    0.426922 0.690501 0.765883 0.179752
H12   H     H_    0.582952 0.305799 0.229762 0.157291
H13   H     H_    0.671317 0.921736 0.845798 0.211153
H14   H     H_    0.313542 0.080100 0.157833 0.210391
H15   H     H_    0.315304 0.553764 0.817250 0.167917
H16   H     H_    0.631011 0.455004 0.200132 0.192941
N1    N     N_R   0.584450 0.204570 0.560790 -0.289782
N2    N     N_R   0.415550 0.795430 0.439210 -0.288289
C41   C     C_R   0.734601 0.293112 0.657187 -0.193853
C42   C     C_R   0.266979 0.708496 0.340665 -0.218374
C43   C     C_R   0.694131 0.209371 0.631580 0.416591
C44   C     C_R   0.306196 0.791132 0.367970 0.426274
C45   C     C_R   0.517138 0.286764 0.507207 0.397002
C46   C     C_R   0.483381 0.713478 0.491773 0.398060
C47   C     C_R   0.549525 0.372014 0.534421 -0.133059
C48   C     C_R   0.452520 0.629707 0.462463 -0.114084
C49   C     C_R   0.664741 0.375966 0.606355 -0.002625
C50   C     C_R   0.337750 0.626261 0.390102 0.002698
C51   C     C_R   0.475956 0.456180 0.489121 0.113149
C52   C     C_R   0.526705 0.546082 0.506686 0.123938
C53   C     C_R   0.651638 0.550294 0.565442 -0.080145
C54   C     C_R   0.351333 0.452556 0.429622 -0.080208
C55   C     C_R   0.713584 0.465717 0.620344 -0.091322
C56   C     C_R   0.289709 0.537221 0.374758 -0.089259
H17   H     H_    0.804433 0.474271 0.670348 0.190257
H18   H     H_    0.199114 0.529028 0.324312 0.188828
H19   H     H_    0.705915 0.619247 0.568807 0.190675
H20   H     H_    0.296201 0.384006 0.426138 0.192721
C57   C     C_2   0.214357 0.183999 0.969897 0.405730
H21   H     H_    0.149108 0.115969 0.002266 0.101136
O9    O     O_2   0.210607 0.219656 0.878982 -0.520786
C58   C     C_2   0.767035 0.817882 0.034700 0.364994
H22   H     H_    0.768275 0.894371 0.025212 0.128980
O10   O     O_2   0.853523 0.770930 0.096218 -0.514047
N3    N     N_R   0.558853 0.699742 0.590691 0.122942
O11   O     O_R   0.522362 0.623942 0.669157 -0.385294
O12   O     O_R   0.672411 0.751731 0.602405 -0.374581
N4    N     N_R   0.439687 0.298440 0.409353 0.127226
O13   O     O_R   0.325276 0.246972 0.399752 -0.381758
O14   O     O_R   0.475111 0.372568 0.329505 -0.400260
N5    N     N_R   0.212019 0.855724 0.340413 0.133642
O15   O     O_R   0.198713 0.928813 0.251457 -0.437089
O16   O     O_R   0.111978 0.817827 0.384169 -0.358387
N6    N     N_R   0.786956 0.143161 0.660980 0.135181
O17   O     O_R   0.792843 0.066797 0.747664 -0.425969
O18   O     O_R   0.891024 0.180091 0.622084 -0.356059
C59   C     C_2   0.855282 0.292304 0.734642 0.489734
H23   H     H_    0.863817 0.229629 0.808096 0.096056
O19   O     O_2   0.948695 0.356982 0.714603 -0.488819
C60   C     C_2   0.145860 0.709001 0.263804 0.515351
H24   H     H_    0.136942 0.771259 0.190081 0.122904
O20   O     O_2   0.052746 0.644207 0.284612 -0.467420
N7    N     N_R   0.422110 0.937251 0.895068 0.116196
O21   O     O_R   0.531550 0.964379 0.945752 -0.400693
O22   O     O_R   0.372205 0.842888 0.927110 -0.388107
N8    N     N_R   0.581669 0.084503 0.101463 0.119736
O23   O     O_R   0.473741 0.062075 0.046006 -0.356924
O24   O     O_R   0.632747 0.178328 0.076560 -0.383135
C61   C     C_2   0.337878 0.289699 0.696282 0.465552
H25   H     H_    0.420287 0.314267 0.744667 0.086349
O25   O     O_2   0.264849 0.349893 0.635045 -0.496171
C62   C     C_2   0.653619 0.727733 0.281982 0.386113
H26   H     H_    0.574314 0.708746 0.227882 0.076327
O26   O     O_2   0.719249 0.662830 0.344893 -0.502571

loop_
_geom_bond_atom_site_label_1
_geom_bond_atom_site_label_2
_geom_bond_distance
_ccdc_geom_bond_type
C14   C16   1.401547 A    
C43   N6    1.424377 S    
N5    O15   1.296916 A    
C42   C50   1.407843 A    
C45   C47   1.441925 A    
N2    C46   1.386303 A    
C41   C49   1.409039 A    
N3    O11   1.301362 A    
C29   H12   1.074697 S    
N6    O18   1.301151 A    
C41   C59   1.488626 S    
C5    N7    1.434485 S    
C29   C31   1.408898 A    
C35   C36   1.421507 A    
O5    C3    1.314272 A    
C13   C61   1.477876 S    
C25   C57   1.486912 S    
C46   C48   1.441133 A    
O1    C1    1.314217 A    
C7    H3    1.083525 S    
C48   C50   1.414338 A    
C17   H7    1.078946 S    
C31   C35   1.429898 A    
C39   H9    1.078836 S    
C44   N5    1.423882 S    
C49   C55   1.404033 A    
Cu2   N1    2.051702 S    
C40   H10   1.078740 S    
C9    C22   1.476827 S    
O4    Cu1   1.943057 S    
C10   C21   1.477782 S    
N8    O23   1.300875 A    
C41   C43   1.405354 A    
C24   C28   1.392972 A    
C4    C19   1.450167 S    
C47   C49   1.415314 A    
C60   H24   1.085006 S    
C42   C60   1.487595 S    
C37   H15   1.076330 S    
C54   H20   1.070759 S    
C14   C62   1.478330 S    
C38   C40   1.383004 A    
C31   C33   1.426841 A    
C32   C34   1.425540 A    
C59   H23   1.085169 S    
N1    C45   1.386410 A    
C57   O9    1.219145 D    
C6    C8    1.404236 A    
C26   C58   1.486381 S    
N2    C44   1.369276 A    
C26   C34   1.422053 A    
C30   C32   1.408358 A    
N5    O16   1.301171 A    
Cu1   Cu2   2.731307 S    
C59   O19   1.220964 D    
O2    C2    1.313805 A    
N6    O17   1.296651 A    
C53   C55   1.382196 A    
C26   C28   1.396046 A    
C61   O25   1.220955 D    
C11   C13   1.403263 A    
C45   N4    1.433867 S    
C34   C40   1.397828 A    
C17   C22   1.386605 A    
C18   C21   1.388247 A    
C8    C10   1.400399 A    
O4    C2    1.311488 A    
C6    N8    1.436258 S    
C17   C19   1.392949 A    
C3    C20   1.451557 S    
C7    C9    1.399691 A    
O7    Cu2   1.958052 S    
C19   C21   1.412141 A    
O7    C3    1.299267 A    
O6    C4    1.313862 A    
C58   O10   1.220054 D    
C23   C29   1.390862 A    
C24   C30   1.392010 A    
C25   C27   1.395850 A    
C53   H19   1.072437 S    
O3    Cu2   1.943057 S    
O8    C4    1.298946 A    
C33   C39   1.399027 A    
C55   H17   1.078920 S    
C8    H4    1.083499 S    
C12   C14   1.403998 A    
C54   C56   1.381307 A    
C37   C39   1.383806 A    
C11   H5    1.084051 S    
C5    C15   1.405675 A    
O1    Cu1   1.953926 S    
C62   O26   1.221006 D    
N7    O21   1.300539 A    
C35   C38   1.412815 A    
C1    C23   1.470791 S    
C36   C37   1.411911 A    
O6    Cu2   1.966412 S    
C18   C20   1.394831 A    
C12   H6    1.083966 S    
C46   N3    1.434253 S    
C48   C52   1.450172 A    
C10   C12   1.403037 A    
C52   C53   1.400252 A    
O3    C1    1.309792 A    
O8    Cu1   1.958052 S    
C51   C54   1.401152 A    
C61   H25   1.085836 S    
N3    O12   1.299734 A    
H1    C15   1.082765 S    
H2    C16   1.082152 S    
C27   H14   1.073364 S    
N4    O14   1.300457 A    
C28   H13   1.074112 S    
C62   H26   1.085807 S    
C32   C36   1.429046 A    
C20   C22   1.412527 A    
C25   C33   1.423589 A    
C30   H11   1.073785 S    
C38   H16   1.074208 S    
C58   H22   1.085420 S    
C5    C7    1.403949 A    
C18   H8    1.079420 S    
N8    O24   1.301610 A    
N1    C43   1.369142 A    
C9    C11   1.403239 A    
O2    Cu2   1.953926 S    
C60   O20   1.221003 D    
C51   C52   1.434037 A    
C50   C56   1.402846 A    
O5    Cu1   1.966411 S    
C6    C16   1.405929 A    
C13   C15   1.400983 A    
N4    O13   1.299632 A    
C2    C24   1.473398 S    
C23   C27   1.390970 A    
C56   H18   1.079225 S    
C42   C44   1.404632 A    
C57   H21   1.085885 S    
C47   C51   1.451274 A    
N7    O22   1.301718 A    
Cu1   N2    2.051702 S    
