data_mof_unit_52382.cif
_audit_creation_date              2012-12-10T17:37:20-0500
_audit_creation_method            fapswitch 2.2
_symmetry_space_group_name_H-M    P1
_symmetry_Int_Tables_number       1
_space_group_crystal_system       triclinic
_cell_length_a                    12.419889
_cell_length_b                    13.164738
_cell_length_c                    15.882195
_cell_angle_alpha                 75.354712
_cell_angle_beta                  101.859101
_cell_angle_gamma                 117.425164
_cell_volume                      2218.05251991

loop_
_atom_site_label
_atom_site_type_symbol
_atom_type_description
_atom_site_fract_x
_atom_site_fract_y
_atom_site_fract_z
_atom_type_partial_charge
C1    C     C_R   0.855276 0.285911 0.504430 0.809062
C2    C     C_R   0.225972 0.839076 0.475910 -0.034807
C3    C     C_R   0.814735 0.071660 0.530263 0.167323
C4    C     C_R   0.001461 0.501067 0.659769 0.851643
C5    C     C_R   0.727039 0.956474 0.550776 -0.133199
C6    C     C_R   0.603823 0.929407 0.538347 -0.259379
C7    C     C_R   0.561775 0.014800 0.498884 0.040826
C8    C     C_R   0.648593 0.128068 0.466554 -0.053295
C9    C     C_R   0.435205 0.986644 0.481156 0.030259
C10   C     C_R   0.397693 0.063560 0.416332 0.036550
C11   C     C_R   0.483790 0.170413 0.378131 -0.223022
C12   C     C_3   0.005126 0.508208 0.915177 -0.055553
C13   C     C_R   0.607833 0.201753 0.399687 0.416881
C14   C     C_R   0.343423 0.881679 0.521451 0.112180
C15   C     C_R   0.190270 0.915280 0.411153 -0.240348
C16   C     C_R   0.144926 0.714165 0.489362 0.769247
C17   C     C_R   0.773763 0.161119 0.498427 -0.198883
C18   C     C_R   0.384596 0.415515 0.674885 0.045085
C19   C     C_R   0.754798 0.645617 0.377165 0.223404
C20   C     C_R   0.666595 0.689618 0.358734 0.302044
C21   C     C_R   0.572633 0.647643 0.411173 0.092655
C22   C     C_R   0.560888 0.552771 0.480894 -0.160854
C23   C     C_3   0.117028 0.548145 0.037389 0.258894
C24   C     C_R   0.658472 0.516775 0.504455 0.097888
C25   C     C_R   0.458507 0.496305 0.531579 -0.048726
C26   C     C_R   0.476158 0.446566 0.620308 -0.094380
C27   C     C_R   0.574376 0.414509 0.647760 0.019770
C28   C     C_R   0.000015 0.501047 0.340004 0.790536
C29   C     C_R   0.651289 0.435520 0.584451 0.436907
C30   C     C_R   0.339117 0.487525 0.497532 -0.056033
C31   C     C_R   0.266483 0.393649 0.635943 0.554433
C32   C     C_3   0.940156 0.398586 0.038043 0.302597
C33   C     C_3   0.886584 0.464384 0.959179 -0.357736
C34   C     C_3   0.001585 0.505478 0.082928 0.030022
C35   C     C_1   0.005491 0.504670 0.749106 -0.182202
C36   C     C_1   0.999489 0.502558 0.250105 -0.170449
C37   C     C_3   0.055612 0.440733 0.993590 0.323335
C38   C     C_3   0.362700 0.826314 0.616841 -0.425815
C39   C     C_3   0.272134 0.819773 0.672709 -0.828356
C40   C     C_3   0.949169 0.097190 0.539242 -0.371746
C41   C     C_3   0.974864 0.995240 0.535273 -0.874197
C42   C     C_3   0.582808 0.342276 0.739992 -0.377018
C43   C     C_3   0.673809 0.288549 0.766167 -0.781509
C44   C     C_3   0.412648 0.437731 0.768351 -0.352255
C45   C     C_3   0.067630 0.617282 0.958919 0.019398
C46   C     C_3   0.368116 0.326425 0.837988 -0.732345
C47   C     C_3   0.850294 0.701954 0.312184 -0.340170
C48   C     C_3   0.800820 0.651332 0.227994 -0.682588
C49   C     C_3   0.503663 0.721946 0.399938 -0.383865
C50   C     C_3   0.416800 0.714998 0.315256 -0.686223
C51   C     C_3   0.139639 0.741004 0.911488 -0.391437
C52   C     C_3   0.188183 0.829243 0.972247 -0.754448
C53   C     C_3   0.951074 0.572526 0.004075 0.364685
C54   C     C_1   0.006598 0.506979 0.824191 0.044213
C55   C     C_1   0.999920 0.503929 0.174480 0.116948
C56   C     C_R   0.274366 0.029016 0.385133 -0.169337
Cu1   Cu    Cu3+1 0.098270 0.475420 0.519690 0.932524
Cu2   Cu    Cu3+1 0.901730 0.524580 0.480310 0.982125
H1    H     H_    0.791715 0.430390 0.927012 0.173231
H2    H     H_    0.295346 0.786985 0.742248 0.235437
H3    H     H_    0.355451 0.737863 0.621544 0.218551
H4    H     H_    0.454116 0.879194 0.647721 0.216043
H5    H     H_    0.953800 0.929252 0.596341 0.246877
H6    H     H_    0.921160 0.954473 0.477753 0.250237
H7    H     H_    0.073252 0.027592 0.528887 0.255799
H8    H     H_    0.992935 0.166507 0.483931 0.228348
H9    H     H_    0.994039 0.127451 0.601876 0.208358
H10   H     H_    0.756110 0.283539 0.342300 0.311094
H11   H     H_    0.097770 0.298166 0.652233 0.345385
H12   H     H_    0.542000 0.838584 0.553788 0.137264
H13   H     H_    0.645505 0.213842 0.733228 0.254251
H14   H     H_    0.767018 0.354954 0.753182 0.282938
H15   H     H_    0.675903 0.253734 0.837630 0.222661
H16   H     H_    0.609666 0.399876 0.787825 0.206377
H17   H     H_    0.491738 0.268965 0.750850 0.221068
H18   H     H_    0.317553 0.334953 0.883940 0.269485
H19   H     H_    0.306618 0.248316 0.808465 0.261333
H20   H     H_    0.446552 0.312136 0.877057 0.215115
H21   H     H_    0.510145 0.495412 0.783529 0.170560
H22   H     H_    0.366174 0.490685 0.773097 0.220283
H23   H     H_    0.752450 0.885554 0.577511 0.150058
H24   H     H_    0.762079 0.554861 0.242672 0.276937
H25   H     H_    0.728131 0.676760 0.191112 0.270534
H26   H     H_    0.875551 0.685303 0.185750 0.243764
H27   H     H_    0.878177 0.797191 0.294463 0.170922
H28   H     H_    0.938294 0.701652 0.337404 0.224989
H29   H     H_    0.845390 0.236200 0.034997 0.339706
H30   H     H_    0.466412 0.777793 0.259542 0.283390
H31   H     H_    0.373775 0.626662 0.298670 0.250831
H32   H     H_    0.343988 0.737797 0.322737 0.215375
H33   H     H_    0.454213 0.702123 0.456807 0.190027
H34   H     H_    0.318886 0.518632 0.429766 0.177318
H35   H     H_    0.570653 0.814349 0.398688 0.210173
H36   H     H_    0.732283 0.851734 0.311863 0.310399
H37   H     H_    0.633552 0.284875 0.588478 0.307998
H38   H     H_    0.871232 0.671125 0.950871 0.325287
H39   H     H_    0.111846 0.829751 0.997950 0.272742
H40   H     H_    0.249708 0.808442 0.027873 0.274494
H41   H     H_    0.240525 0.917580 0.935425 0.227527
H42   H     H_    0.217434 0.743926 0.885239 0.200605
H43   H     H_    0.079610 0.764204 0.855790 0.201355
H44   H     H_    0.289369 0.609564 0.033765 0.340019
H45   H     H_    0.098349 0.886131 0.378719 0.143776
H46   H     H_    0.133259 0.340535 0.047994 0.341042
H47   H     H_    0.454781 0.226930 0.326281 0.171967
H48   H     H_    0.244859 0.086495 0.334804 0.147692
H49   H     H_    0.276908 0.907533 0.667305 0.254993
H50   H     H_    0.177456 0.759429 0.652583 0.236575
N1    N     N_R   0.246280 0.438200 0.549540 -0.257311
N2    N     N_R   0.754330 0.561180 0.450980 -0.197302
O1    O     O_R   0.972510 0.318130 0.524770 -0.625270
O2    O     O_3   0.173869 0.334562 0.689284 -0.722436
O3    O     O_3   0.875564 0.284752 0.080873 -0.705056
O4    O     O_3   0.675224 0.779368 0.289265 -0.727306
O5    O     O_3   0.702516 0.361564 0.595780 -0.682867
O6    O     O_3   0.895891 0.640936 0.011731 -0.726143
O7    O     O_3   0.235636 0.589247 0.079548 -0.720728
O8    O     O_3   0.110112 0.371292 0.986890 -0.706959
O9    O     O_R   0.806530 0.359650 0.491510 -0.471837
O10   O     O_R   0.082970 0.479240 0.637550 -0.544724
O11   O     O_R   0.916990 0.520750 0.604290 -0.535549
O12   O     O_R   0.193470 0.640350 0.508490 -0.581215
O13   O     O_R   0.027490 0.681870 0.475230 -0.613815
O14   O     O_R   0.083010 0.479250 0.395710 -0.580798
O15   O     O_R   0.917030 0.520760 0.362450 -0.561401
O16   O     O_3   0.684548 0.296387 0.345400 -0.701727

loop_
_geom_bond_atom_site_label_1
_geom_bond_atom_site_label_2
_ccdc_geom_bond_type
C43   H15   S    
C43   H14   S    
C23   C45   S    
C27   C29   A    
C19   C20   A    
C18   C26   A    
C46   H18   S    
H36   O4    S    
C7    C8    A    
Cu1   O1    S    
C39   H49   S    
C42   H17   S    
C8    C13   A    
C47   H27   S    
C16   O13   A    
C5    C6    A    
H11   O2    S    
C19   C47   S    
C45   C51   S    
C52   H39   S    
C25   C30   A    
C6    H12   S    
C1    O9    A    
C12   C37   S    
C16   O12   A    
C24   C29   A    
Cu1   O12   S    
C50   H32   S    
Cu1   N1    S    
C37   O8    S    
H37   O5    S    
C40   H9    S    
C11   H47   S    
C31   O2    S    
C32   O3    S    
C2    C16   S    
C9    C10   A    
C53   O6    S    
C50   H30   S    
C38   H3    S    
C29   O5    S    
C4    C35   S    
C45   C53   S    
C34   C55   S    
C33   H1    S    
C40   H8    S    
C21   C22   A    
C35   C54   T    
C49   H33   S    
C21   C49   S    
C44   C46   S    
H46   O8    S    
C33   C53   S    
C39   H50   S    
C42   H16   S    
C30   N1    A    
C51   C52   S    
C47   H28   S    
C44   H22   S    
C24   N2    A    
C30   H34   S    
C46   H20   S    
C41   H7    S    
C25   C26   A    
C23   C37   S    
C22   C25   A    
C48   H26   S    
C32   C34   S    
C9    C14   A    
C18   C44   S    
C14   C38   S    
C5    H23   S    
C50   H31   S    
C47   C48   S    
C23   C34   S    
Cu2   O13   S    
C32   C37   S    
C2    C15   A    
C56   H48   S    
H44   O7    S    
Cu2   O15   S    
Cu1   O10   S    
C13   O16   S    
C40   C41   S    
C3    C40   S    
C26   C27   A    
C22   C24   A    
C42   C43   S    
C41   H5    S    
H10   O16   S    
C10   C56   A    
C28   O15   A    
C19   N2    A    
C51   H42   S    
C7    C9    A    
Cu2   O11   S    
C43   H13   S    
Cu2   N2    S    
C31   N1    A    
C44   H21   S    
C4    O10   A    
C12   C45   S    
C3    C5    A    
C23   O7    S    
C46   H19   S    
C28   O14   A    
C6    C7    A    
C51   H43   S    
C52   H41   S    
C1    C17   S    
C8    C17   A    
C48   H25   S    
C49   H35   S    
C32   C33   S    
C36   C55   T    
C15   C56   A    
Cu1   O14   S    
C20   O4    S    
C11   C13   A    
C27   C42   S    
Cu1   Cu2   S    
C38   C39   S    
C39   H2    S    
C52   H40   S    
Cu2   O9    S    
C48   H24   S    
C4    O11   A    
C3    C17   A    
C2    C14   A    
C12   C54   S    
H29   O3    S    
C10   C11   A    
C20   C21   A    
C28   C36   S    
C34   C53   S    
C49   C50   S    
H38   O6    S    
C18   C31   A    
C41   H6    S    
C15   H45   S    
C12   C33   S    
C1    O1    A    
C38   H4    S    
