data_mof_unit_37478.cif
_audit_creation_date              2012-12-10T17:42:42-0500
_audit_creation_method            fapswitch 2.2
_symmetry_space_group_name_H-M    P1
_symmetry_Int_Tables_number       1
_space_group_crystal_system       triclinic
_cell_length_a                    9.943468
_cell_length_b                    10.615468
_cell_length_c                    13.008136
_cell_angle_alpha                 91.675751
_cell_angle_beta                  71.751996
_cell_angle_gamma                 89.863107
_cell_volume                      1303.36249564

loop_
_atom_site_label
_atom_site_type_symbol
_atom_type_description
_atom_site_fract_x
_atom_site_fract_y
_atom_site_fract_z
_atom_type_partial_charge
C1    C     C_R   0.500910 0.739207 0.497346 0.866587
C2    C     C_R   0.383472 0.431966 0.811370 -0.128597
C3    C     C_R   0.450794 0.862572 0.315974 -0.169380
C4    C     C_R   0.424323 0.480998 0.701248 0.867212
C5    C     C_R   0.425433 0.925508 0.231088 -0.121776
C6    C     C_R   0.425731 0.056599 0.231067 -0.142406
C7    C     C_R   0.451443 0.125127 0.315923 -0.190920
C8    C     C_R   0.475746 0.062769 0.403325 0.098540
C9    C     C_R   0.475349 0.930770 0.403414 0.093029
C10   C     C_R   0.503881 0.871339 0.490103 -0.092757
C11   C     C_R   0.537629 0.938283 0.572027 -0.207916
C12   C     C_R   0.447016 0.391573 0.973500 0.089047
C13   C     C_R   0.538067 0.066941 0.571894 -0.210303
C14   C     C_R   0.504740 0.128124 0.489824 -0.088809
C15   C     C_R   0.804114 0.670440 0.638130 -0.143193
C16   C     C_R   0.501354 0.260655 0.497070 0.852695
C17   C     C_R   0.847342 0.755979 0.704198 -0.210839
C18   C     C_R   0.986665 0.755717 0.703918 -0.192783
C19   C     C_R   0.083415 0.669264 0.638147 -0.165000
C20   C     C_R   0.044560 0.583957 0.567652 0.144290
C21   C     C_R   0.900150 0.584147 0.567640 0.162650
C22   C     C_R   0.955291 0.419356 0.435436 -0.114339
C23   C     C_R   0.486728 0.397573 0.860124 0.044180
C24   C     C_R   0.098200 0.419438 0.435402 -0.120568
C25   C     C_R   0.577333 0.496073 0.296110 0.853881
C26   C     C_R   0.793582 0.486559 0.001313 -0.013845
C27   C     C_R   0.621409 0.474395 0.179491 -0.105651
C28   C     C_R   0.240149 0.422491 0.870540 -0.148230
C29   C     C_R   0.199400 0.392142 0.979179 -0.090346
C30   C     C_R   0.300984 0.381568 0.031868 -0.195398
C31   C     C_3   0.884176 0.331170 0.784699 -0.438430
C32   C     C_3   0.887905 0.193335 0.744165 -0.343106
C33   C     C_3   0.039657 0.149285 0.685219 -0.836590
C34   C     C_R   0.554807 0.408310 0.022658 0.060455
C35   C     C_2   0.915023 0.557949 0.932307 0.312195
C36   C     C_R   0.698033 0.422331 0.956843 0.033722
C37   C     C_R   0.735562 0.376719 0.848267 0.047235
C38   C     C_R   0.628562 0.368492 0.800114 -0.213509
C39   C     C_R   0.521961 0.426685 0.133999 -0.255436
C40   C     C_R   0.756037 0.506007 0.113752 -0.175019
H1    H     H_    0.828028 0.552636 0.149756 0.195076
H2    H     H_    0.019342 0.820909 0.756877 0.171100
H3    H     H_    0.186878 0.670641 0.645912 0.213941
H4    H     H_    0.173525 0.353513 0.382507 0.139783
H5    H     H_    0.417525 0.407550 0.187056 0.153385
H6    H     H_    0.160297 0.439265 0.832286 0.152942
H7    H     H_    0.261838 0.365486 0.117485 0.121167
H8    H     H_    0.088223 0.383380 0.024206 0.153257
H9    H     H_    0.656677 0.337502 0.716149 0.182205
H10   H     H_    0.560800 0.890665 0.637307 0.138562
H11   H     H_    0.087934 0.208556 0.614323 0.274963
H12   H     H_    0.453099 0.760758 0.311303 0.153950
H13   H     H_    0.104865 0.154924 0.740653 0.257366
H14   H     H_    0.039469 0.049942 0.656058 0.251852
H15   H     H_    0.841387 0.131983 0.814009 0.226254
H16   H     H_    0.825533 0.182353 0.687095 0.219333
H17   H     H_    0.928000 0.392363 0.714627 0.204881
H18   H     H_    0.953709 0.335924 0.836560 0.191370
H19   H     H_    0.934917 0.560386 0.845858 0.093958
H20   H     H_    0.406940 0.872344 0.164598 0.145803
H21   H     H_    0.407485 0.105378 0.164597 0.137869
H22   H     H_    0.454248 0.226589 0.311306 0.140679
H23   H     H_    0.561439 0.119186 0.637095 0.137556
H24   H     H_    0.923680 0.353413 0.382563 0.147999
H25   H     H_    0.694687 0.674600 0.645215 0.204022
H26   H     H_    0.771674 0.821875 0.756968 0.150410
N1    N     N_R   0.856860 0.501200 0.500990 -0.120811
N2    N     N_R   0.142450 0.501280 0.501020 -0.117629
O1    O     O_R   0.385310 0.683220 0.500000 -0.630376
O2    O     O_R   0.614640 0.683250 0.500010 -0.620475
O3    O     O_R   0.328400 0.499950 0.653610 -0.632260
O4    O     O_R   0.557730 0.499970 0.653620 -0.642095
O5    O     O_R   0.385360 0.316750 0.499990 -0.623580
O6    O     O_R   0.614690 0.316780 0.500000 -0.623755
O7    O     O_R   0.442270 0.500030 0.346380 -0.622339
O8    O     O_R   0.671600 0.500050 0.346390 -0.605284
O9    O     O_2   0.991097 0.619849 0.971724 -0.577357
Zn1   Zn    Zn3+2 0.346880 0.499980 0.499990 0.918503
Zn2   Zn    Zn3+2 0.653120 0.500020 0.500010 0.927203

loop_
_geom_bond_atom_site_label_1
_geom_bond_atom_site_label_2
_ccdc_geom_bond_type
C19   C20   A    
O8    Zn2   S    
C7    C8    A    
C38   H9    S    
C12   C23   A    
C28   H6    S    
C17   H26   S    
C37   C38   A    
C16   O6    A    
C6    H21   S    
C28   C29   A    
O4    Zn2   S    
C18   H2    S    
C5    C6    A    
C15   H25   S    
C35   H19   S    
C18   C19   A    
C34   C39   A    
C27   C39   A    
C8    C9    A    
O5    Zn1   S    
C14   C16   S    
C9    C10   A    
C32   H15   S    
C39   H5    S    
C13   C14   A    
C21   N1    A    
C33   H13   S    
O1    Zn1   S    
C19   H3    S    
N2    Zn1   S    
C29   H8    S    
C16   O5    A    
C30   H7    S    
N1    Zn2   S    
C35   O9    D    
C1    O1    A    
C31   C37   S    
C25   O7    A    
C2    C4    S    
C7    H22   S    
C29   C30   A    
C3    C9    A    
C31   C32   S    
C13   H23   S    
C27   C40   A    
C17   C18   A    
C26   C36   A    
C40   H1    S    
O6    Zn2   S    
C24   H4    S    
C22   C24   A    
C33   H11   S    
C12   C34   A    
C4    O4    A    
C31   H18   S    
C33   H14   S    
C15   C17   A    
C36   C37   A    
C8    C14   A    
C5    H20   S    
C12   C30   A    
O2    Zn2   S    
C20   N2    A    
C1    C10   S    
C3    C5    A    
C3    H12   S    
C6    C7    A    
C25   C27   S    
C23   C38   A    
C1    O2    A    
C25   O8    A    
C32   C33   S    
C31   H17   S    
C11   H10   S    
C11   C13   A    
C26   C40   A    
C34   C36   A    
O3    Zn1   S    
O7    Zn1   S    
C22   N1    A    
C10   C11   A    
C24   N2    A    
C22   H24   S    
C26   C35   S    
C15   C21   A    
C20   C21   A    
C2    C23   A    
C2    C28   A    
C32   H16   S    
C4    O3    A    
