data_mof_unit_16571.cif
_audit_creation_date              2013-03-05T15:44:47-0500
_audit_creation_method            fapswitch 2.2
_symmetry_space_group_name_H-M    P1
_symmetry_Int_Tables_number       1
_space_group_crystal_system       triclinic
_cell_length_a                    12.990633
_cell_length_b                    13.04018
_cell_length_c                    15.310882
_cell_angle_alpha                 117.279516
_cell_angle_beta                  63.19194
_cell_angle_gamma                 97.477991
_cell_volume                      2047.83842259

loop_
_atom_site_label
_atom_site_type_symbol
_atom_site_description
_atom_site_fract_x
_atom_site_fract_y
_atom_site_fract_z
_atom_type_partial_charge
C1    C     C_R   0.018398 0.835529 0.036801 -0.171505
H1    H     H_    0.062998 0.900186 0.077368 0.098724
N1    N     N_R   0.037310 0.720000 0.995790 -0.032666
C2    C     C_R   0.701237 0.403394 0.208710 -0.108607
H2    H     H_    0.648003 0.343982 0.174648 0.109938
N2    N     N_R   0.790790 0.446160 0.152010 -0.043469
C3    C     C_R   0.738765 0.575189 0.946280 -0.177876
H3    H     H_    0.746048 0.616915 0.897543 0.104206
N3    N     N_R   0.824890 0.517960 0.936420 -0.045177
C4    C     C_R   0.939883 0.721134 0.316450 -0.075912
H4    H     H_    0.892754 0.694791 0.380178 0.140969
N4    N     N_R   0.003210 0.648190 0.211380 -0.054146
C5    C     C_R   0.660711 0.482718 0.049849 -0.092515
H5    H     H_    0.601840 0.446239 0.102493 0.090762
N5    N     N_R   0.774330 0.457010 0.995840 -0.047318
C6    C     C_R   0.028342 0.821578 0.222791 -0.133054
H6    H     H_    0.070043 0.890261 0.204142 0.088704
N6    N     N_R   0.053760 0.709140 0.151960 -0.041315
C7    C     C_R   0.802044 0.488020 0.304054 -0.062306
H7    H     H_    0.841455 0.506770 0.357936 0.082464
N7    N     N_R   0.853860 0.498840 0.211410 -0.045398
C8    C     C_R   0.915715 0.751442 0.944128 -0.046509
H8    H     H_    0.863559 0.739870 0.902974 0.133572
N8    N     N_R   0.974240 0.667310 0.936390 -0.052167
C9    C     C_R   0.933664 0.857620 0.014736 -0.014316
C10   C     C_R   0.706164 0.427630 0.304528 0.046962
C11   C     C_R   0.636407 0.560345 0.022461 0.153316
C12   C     C_R   0.947984 0.832144 0.325206 0.079949
C13   C     C_R   0.322153 0.580155 0.012011 -0.132471
H9    H     H_    0.367812 0.644525 0.986797 0.093326
N9    N     N_R   0.225670 0.542990 0.004160 -0.046279
C14   C     C_R   0.903801 0.200828 0.789473 -0.084935
H10   H     H_    0.841748 0.149346 0.821606 0.167178
N10   N     N_R   0.946240 0.290860 0.848040 -0.054851
C15   C     C_R   0.219993 0.436256 0.684010 -0.110128
H11   H     H_    0.194786 0.385771 0.619268 0.093506
N11   N     N_R   0.146140 0.501160 0.788590 -0.041966
C16   C     C_R   0.085433 0.249822 0.056020 -0.211230
H12   H     H_    0.141530 0.265714 0.094878 0.131636
N12   N     N_R   0.025760 0.332690 0.063610 -0.063188
C17   C     C_R   0.981738 0.165165 0.964670 0.345826
N13   N     N_R   0.962690 0.280000 0.004210 -0.093459
C18   C     C_R   0.321633 0.521493 0.780216 -0.103584
H13   H     H_    0.390250 0.549964 0.804741 0.096139
N14   N     N_R   0.209210 0.553840 0.847990 -0.041585
C19   C     C_R   0.243432 0.479644 0.107063 -0.147680
H14   H     H_    0.220333 0.449553 0.168103 0.093731
N15   N     N_R   0.175110 0.482040 0.063580 -0.039745
C20   C     C_R   0.987534 0.300146 0.695194 -0.140029
H15   H     H_    0.004697 0.340804 0.643015 0.091097
N16   N     N_R   0.996790 0.351810 0.788620 -0.045606
Ni1   Ni    Ni4+2 0.130310 0.630310 0.999970 0.223106
Ni2   Ni    Ni4+2 0.869690 0.369690 0.000030 0.258786
Ni3   Ni    Ni4+2 0.985640 0.509470 0.863740 0.219734
Ni4   Ni    Ni4+2 0.014360 0.490530 0.136260 0.210841
C21   C     C_R   0.335494 0.541704 0.076422 0.159865
C22   C     C_R   0.928151 0.204769 0.693526 0.052580
C23   C     C_R   0.331434 0.445696 0.676274 0.039881
C24   C     C_R   0.060206 0.141372 0.993574 -0.013124
C25   C     C_R   0.933005 0.045109 0.420223 -0.198987
H16   H     H_    0.976253 0.051301 0.344030 0.122662
C26   C     C_R   0.932779 0.138154 0.512607 -0.153964
H17   H     H_    0.976646 0.211351 0.503246 0.113215
C27   C     C_R   0.890648 0.128670 0.610105 0.088398
C28   C     C_R   0.824610 0.037292 0.620525 -0.266973
H18   H     H_    0.779309 0.035402 0.698699 0.174897
C29   C     C_R   0.821586 0.944357 0.527875 0.345881
C30   C     C_R   0.893360 0.941579 0.424638 -0.001083
C31   C     C_R   0.639339 0.429533 0.484719 -0.134088
H19   H     H_    0.715794 0.467213 0.492409 0.118982
C32   C     C_R   0.545566 0.432429 0.577913 -0.145144
H20   H     H_    0.553696 0.471850 0.653560 0.114010
C33   C     C_R   0.439672 0.398866 0.575020 0.139205
C34   C     C_R   0.436529 0.338942 0.473443 -0.168533
H21   H     H_    0.358581 0.304723 0.466855 0.111062
C35   C     C_R   0.530460 0.335680 0.380061 -0.164659
H22   H     H_    0.521239 0.299052 0.305066 0.115714
C36   C     C_R   0.627835 0.391821 0.388109 0.136111
C37   C     C_2   0.429591 0.562096 0.105881 -0.189294
H23   H     H_    0.431192 0.519592 0.151781 0.129328
C38   C     C_2   0.523216 0.603326 0.052180 -0.208847
H24   H     H_    0.520806 0.649081 0.009233 0.134710
C39   C     C_2   0.852694 0.963922 0.078043 0.592124
C40   C     C_2   0.866086 0.060572 0.156387 -0.307281
H25   H     H_    0.937352 0.067558 0.176774 0.100610
N17   N     N_R   0.912803 0.082650 0.921514 0.223593
O1    O     O_R   0.956232 0.975933 0.852158 -0.397196
O2    O     O_R   0.801447 0.108469 0.967341 -0.415408
N18   N     N_R   0.746213 0.855675 0.539590 0.219612
O3    O     O_R   0.693415 0.809198 0.477459 -0.407748
O4    O     O_R   0.717346 0.832755 0.621526 -0.401670
O5    O     O_3   0.757801 0.960744 0.058515 -0.590162
C41   C     C_3   0.658124 0.948622 0.142891 0.190225
H26   H     H_    0.636261 0.027697 0.222591 0.118553
H27   H     H_    0.671748 0.871045 0.150752 0.086442
C42   C     C_3   0.556354 0.932958 0.114877 -0.229464
H28   H     H_    0.543001 0.008607 0.104738 0.220176
H29   H     H_    0.576580 0.853545 0.036108 0.197032
C43   C     C_3   0.444948 0.922338 0.204621 -1.034133
H30   H     H_    0.456404 0.847940 0.217132 0.285313
H31   H     H_    0.373585 0.907944 0.180368 0.270932
H32   H     H_    0.420544 0.003130 0.282977 0.273159

loop_
_geom_bond_atom_site_label_1
_geom_bond_atom_site_label_2
_geom_bond_distance
_ccdc_geom_bond_type
C6    C12   1.389405 A    
N15   Ni4   1.860781 S    
C41   H26   1.114979 S    
C17   N13   1.341816 A    
C7    H7    1.079803 S    
N9    Ni1   1.827861 S    
C38   H24   1.082778 S    
N1    N8    1.386826 A    
N6    Ni1   1.856579 S    
C3    H3    1.075603 S    
C17   N17   1.423914 S    
N10   N16   1.370660 A    
C10   C36   1.463084 S    
C21   C37   1.439136 S    
C34   C35   1.385309 A    
C15   C23   1.391870 A    
N5    Ni2   1.827860 S    
C15   N11   1.335691 A    
C35   C36   1.402900 A    
N13   Ni2   1.826945 S    
C16   H12   1.080143 S    
N17   O2    1.301136 A    
N8    Ni3   1.824210 S    
C42   C43   1.526509 S    
C29   N18   1.437090 S    
C3    C11   1.380963 A    
C25   C26   1.377288 A    
C1    H1    1.072269 S    
C33   C34   1.402148 A    
C31   C32   1.384228 A    
C7    C10   1.383237 A    
C26   C27   1.399239 A    
C18   C23   1.390661 A    
C15   H11   1.077822 S    
C6    H6    1.070408 S    
C20   N16   1.328596 A    
C8    C9    1.382537 A    
C42   H29   1.111786 S    
N18   O4    1.301503 A    
C13   H9    1.079982 S    
N12   N13   1.386826 A    
C41   H27   1.116511 S    
C5    H5    1.077760 S    
C1    C9    1.384175 A    
C31   C36   1.402002 A    
C14   C22   1.380786 A    
C19   N15   1.338368 A    
C34   H21   1.080687 S    
C29   C30   1.412808 A    
C11   C38   1.435461 S    
C35   H22   1.080445 S    
C17   C24   1.395075 A    
C2    N2    1.334902 A    
C37   C38   1.333181 D    
N17   O1    1.300721 A    
N14   Ni1   1.856694 S    
C28   C29   1.394467 A    
N2    N7    1.386811 A    
C37   H23   1.083861 S    
C25   H16   1.080017 S    
C1    N1    1.346960 A    
C14   N10   1.341195 A    
C18   H13   1.077676 S    
C26   H17   1.080052 S    
C39   O5    1.385101 S    
C43   H30   1.110733 S    
N12   Ni4   1.824208 S    
C42   H28   1.112006 S    
C40   H25   1.084182 S    
C18   N14   1.334071 A    
C4    N4    1.332956 A    
N11   Ni3   1.861032 S    
C43   H31   1.110784 S    
C28   H18   1.080481 S    
C41   C42   1.527877 S    
N9    N15   1.370674 A    
C5    N5    1.322297 A    
C8    N8    1.346253 A    
C39   C40   1.342721 D    
N2    Ni2   1.856694 S    
N4    N6    1.370662 A    
C22   C27   1.458441 S    
C32   C33   1.402267 A    
C4    C12   1.385543 A    
C3    N3    1.339095 A    
C19   H14   1.081670 S    
N7    Ni4   1.861034 S    
C7    N7    1.335121 A    
C2    H2    1.079786 S    
C12   C30   1.468115 S    
C20   C22   1.371699 A    
C2    C10   1.382272 A    
N1    Ni1   1.826943 S    
C13   C21   1.372617 A    
N16   Ni3   1.824911 S    
C27   C28   1.402145 A    
N3    N5    1.370673 A    
C32   H20   1.080435 S    
C13   N9    1.320856 A    
C14   H10   1.070859 S    
C16   N12   1.343069 A    
O5    C41   1.412676 S    
C31   H19   1.080350 S    
N4    Ni4   1.824911 S    
C4    H4    1.076357 S    
C16   C24   1.394301 A    
C43   H32   1.111311 S    
C25   C30   1.401331 A    
N10   Ni2   1.856580 S    
C6    N6    1.334301 A    
C20   H15   1.079766 S    
C19   C21   1.376708 A    
C9    C39   1.481783 S    
C8    H8    1.072455 S    
C5    C11   1.375486 A    
N3    Ni3   1.860783 S    
N18   O3    1.301750 A    
N11   N14   1.386811 A    
C23   C33   1.463835 S    
