data_mof_unit_57294.cif
_audit_creation_date              2013-03-05T15:54:36-0500
_audit_creation_method            fapswitch 2.2
_symmetry_space_group_name_H-M    P1
_symmetry_Int_Tables_number       1
_space_group_crystal_system       triclinic
_cell_length_a                    17.271177
_cell_length_b                    24.300368
_cell_length_c                    14.862257
_cell_angle_alpha                 89.886865
_cell_angle_beta                  125.252499
_cell_angle_gamma                 90.054037
_cell_volume                      5093.74008839

loop_
_atom_site_label
_atom_site_type_symbol
_atom_site_description
_atom_site_fract_x
_atom_site_fract_y
_atom_site_fract_z
_atom_type_partial_charge
C1    C     C_R   0.855106 0.653598 0.907521 -0.065248
C2    C     C_R   0.193311 0.621046 0.093279 -0.041738
C3    C     C_R   0.354437 0.153382 0.907450 -0.104814
C4    C     C_R   0.693144 0.121311 0.092922 -0.037229
H1    H     H_    0.824815 0.669101 0.825757 0.165290
H2    H     H_    0.254261 0.621097 0.177881 0.127716
H3    H     H_    0.325647 0.169193 0.826187 0.173431
H4    H     H_    0.754256 0.121226 0.177423 0.126580
N1    N     N_R   0.892620 0.603790 0.941770 -0.073636
N2    N     N_R   0.107380 0.603790 0.058230 -0.036476
N3    N     N_R   0.392620 0.103790 0.941770 -0.069561
N4    N     N_R   0.607380 0.103790 0.058230 -0.034955
C5    C     C_R   0.945934 0.348809 0.093398 -0.163602
C6    C     C_R   0.096762 0.377966 0.905828 -0.083313
C7    C     C_R   0.445418 0.848825 0.093107 -0.161513
C8    C     C_R   0.595526 0.876020 0.905593 -0.060337
H5    H     H_    0.994937 0.334652 0.177235 0.115767
H6    H     H_    0.070983 0.376063 0.820427 0.110619
H7    H     H_    0.494119 0.834528 0.176907 0.116241
H8    H     H_    0.567751 0.870806 0.819957 0.106121
N5    N     N_R   0.952270 0.397640 0.058010 -0.049921
N6    N     N_R   0.047730 0.397640 0.941990 -0.045777
N7    N     N_R   0.452270 0.897640 0.058010 -0.050759
N8    N     N_R   0.547730 0.897640 0.941990 -0.048440
C9    C     C_R   0.977648 0.546993 0.244404 -0.081888
C10   C     C_R   0.946584 0.547099 0.694874 -0.094958
C11   C     C_R   0.479681 0.046950 0.247388 -0.053199
C12   C     C_R   0.448227 0.046909 0.694976 -0.052712
H9    H     H_    0.961767 0.589541 0.247172 0.109240
H10   H     H_    0.925603 0.589169 0.667727 0.117908
H11   H     H_    0.467788 0.089633 0.255431 0.109265
H12   H     H_    0.429658 0.089156 0.668007 0.113212
N9    N     N_R   0.026310 0.529110 0.206760 -0.041708
N10   N     N_R   0.973690 0.529110 0.793240 -0.044471
N11   N     N_R   0.526310 0.029110 0.206760 -0.045410
N12   N     N_R   0.473690 0.029110 0.793240 -0.051637
C13   C     C_R   0.731869 0.453669 0.751945 -0.150073
C14   C     C_R   0.255323 0.454960 0.304936 -0.107455
C15   C     C_R   0.231726 0.953602 0.750553 -0.153287
C16   C     C_R   0.754710 0.954828 0.305031 -0.105586
H13   H     H_    0.712184 0.410928 0.738189 0.182142
H14   H     H_    0.270602 0.412517 0.331757 0.130325
H15   H     H_    0.212155 0.910856 0.736838 0.183513
H16   H     H_    0.769784 0.912350 0.331649 0.129400
N13   N     N_R   0.818570 0.472310 0.793020 -0.074836
N14   N     N_R   0.181430 0.472310 0.206980 -0.065937
N15   N     N_R   0.318570 0.972310 0.793020 -0.075099
N16   N     N_R   0.681430 0.972310 0.206980 -0.066170
C17   C     C_R   0.982864 0.455094 0.252907 -0.136001
C18   C     C_R   0.947883 0.455955 0.692838 -0.131814
C19   C     C_R   0.482187 0.954923 0.251814 -0.134698
C20   C     C_R   0.448496 0.955666 0.693447 -0.137954
H17   H     H_    0.975346 0.412623 0.268193 0.119880
H18   H     H_    0.932690 0.413799 0.664878 0.117897
H19   H     H_    0.474767 0.912364 0.266550 0.121483
H20   H     H_    0.434288 0.913350 0.666626 0.120976
N17   N     N_R   0.026930 0.472300 0.207330 -0.053553
N18   N     N_R   0.973070 0.472300 0.792670 -0.042984
N19   N     N_R   0.526930 0.972300 0.207330 -0.055558
N20   N     N_R   0.473070 0.972300 0.792670 -0.046382
C21   C     C_R   0.729341 0.545484 0.749706 0.342091
C22   C     C_R   0.250774 0.546273 0.308486 0.273670
C23   C     C_R   0.229015 0.045475 0.747047 0.343368
C24   C     C_R   0.750492 0.046154 0.308673 0.271591
N21   N     N_R   0.817960 0.529130 0.792460 -0.096245
N22   N     N_R   0.182040 0.529130 0.207540 -0.084334
N23   N     N_R   0.317960 0.029130 0.792460 -0.096311
N24   N     N_R   0.682040 0.029130 0.207540 -0.084878
C25   C     C_R   0.851912 0.348538 0.910563 -0.059237
C26   C     C_R   0.188587 0.374986 0.089927 -0.076771
C27   C     C_R   0.351398 0.848747 0.910308 -0.062583
C28   C     C_R   0.688625 0.875292 0.090002 -0.075042
H21   H     H_    0.811107 0.334824 0.826108 0.163246
H22   H     H_    0.245754 0.367854 0.174745 0.153866
H23   H     H_    0.310367 0.835404 0.825794 0.168020
H24   H     H_    0.745809 0.868438 0.174912 0.153298
N25   N     N_R   0.894850 0.397640 0.943830 -0.059051
N26   N     N_R   0.105150 0.397640 0.056170 -0.055675
N27   N     N_R   0.394850 0.897640 0.943830 -0.059420
N28   N     N_R   0.605150 0.897640 0.056170 -0.057306
C29   C     C_R   0.943065 0.653479 0.089653 -0.067884
C30   C     C_R   0.100126 0.625481 0.909356 -0.076167
C31   C     C_R   0.441358 0.153206 0.089571 -0.068606
C32   C     C_R   0.599441 0.125903 0.909020 -0.071164
H25   H     H_    0.986936 0.667040 0.174246 0.174712
H26   H     H_    0.073458 0.632471 0.824263 0.131309
H27   H     H_    0.485176 0.167121 0.173967 0.174024
H28   H     H_    0.571818 0.133284 0.823873 0.150581
N29   N     N_R   0.950040 0.603780 0.055950 -0.062374
N30   N     N_R   0.049960 0.603780 0.944050 -0.065594
N31   N     N_R   0.450040 0.103780 0.055950 -0.061418
N32   N     N_R   0.549960 0.103780 0.944050 -0.065518
C33   C     C_R   0.884909 0.685691 0.997451 0.091402
C34   C     C_R   0.191105 0.636425 0.002639 0.119519
C35   C     C_R   0.382025 0.185200 0.997110 0.085276
C36   C     C_R   0.690440 0.136980 0.001924 0.107775
C37   C     C_R   0.883993 0.316742 0.003113 0.144964
C38   C     C_R   0.185634 0.362783 0.996475 0.118733
C39   C     C_R   0.382972 0.816918 0.002609 0.143452
C40   C     C_R   0.685355 0.862393 0.996658 0.119442
C41   C     C_R   0.949412 0.501754 0.275013 0.071662
C42   C     C_R   0.928788 0.502389 0.628965 0.084999
C43   C     C_R   0.448607 0.001359 0.274295 0.073444
C44   C     C_R   0.429041 0.001850 0.628891 0.094346
C45   C     C_R   0.673901 0.498728 0.724194 -0.037895
C46   C     C_R   0.299577 0.500607 0.368996 0.021972
C47   C     C_R   0.173593 0.998638 0.721357 -0.041224
C48   C     C_R   0.798639 0.000349 0.369257 0.026388
Ni1   Ni    Ni4+2 0.934160 0.565860 0.869070 0.252123
Ni2   Ni    Ni4+2 0.065840 0.565860 0.130930 0.314519
Ni3   Ni    Ni4+2 0.434160 0.065860 0.869070 0.253927
Ni4   Ni    Ni4+2 0.565840 0.065860 0.130930 0.318085
Ni5   Ni    Ni4+2 0.067260 0.435560 0.132230 0.218229
Ni6   Ni    Ni4+2 0.932740 0.435560 0.867770 0.241649
Ni7   Ni    Ni4+2 0.567260 0.935560 0.132230 0.217590
Ni8   Ni    Ni4+2 0.432740 0.935560 0.867770 0.241060
C49   C     C_3   0.510541 0.446838 0.578005 0.255223
C50   C     C_3   0.475560 0.477203 0.471794 0.245362
C51   C     C_3   0.010481 0.946362 0.575580 0.254282
C52   C     C_3   0.974261 0.977136 0.469413 0.239662
C53   C     C_3   0.428118 0.470193 0.579304 -0.263866
C54   C     C_3   0.535504 0.527294 0.534272 -0.266758
C55   C     C_3   0.928565 0.969161 0.578509 -0.263131
C56   C     C_3   0.034057 0.027221 0.531868 -0.251287
H29   H     H_    0.382385 0.446682 0.595782 0.180747
H30   H     H_    0.578193 0.549745 0.511933 0.205143
H31   H     H_    0.883523 0.945274 0.595548 0.179814
H32   H     H_    0.075929 0.050042 0.508792 0.202414
C57   C     C_3   0.393636 0.500887 0.471444 -0.043383
C58   C     C_3   0.571630 0.496689 0.642864 -0.002969
C59   C     C_3   0.892901 0.000335 0.470792 -0.050293
C60   C     C_3   0.071405 0.996264 0.640392 0.001623
C61   C     C_3   0.453852 0.551704 0.535440 -0.015539
C62   C     C_3   0.490725 0.521224 0.645363 -0.020313
C63   C     C_3   0.952940 0.051092 0.534750 -0.007720
C64   C     C_3   0.991028 0.020194 0.644585 -0.024687
H33   H     H_    0.433795 0.595767 0.518430 0.195129
H34   H     H_    0.498790 0.539311 0.718850 0.171399
H35   H     H_    0.932465 0.095110 0.518369 0.195879
H36   H     H_    0.999856 0.037916 0.718759 0.165167
C65   C     C_R   0.878749 0.240676 0.106841 0.142462
C66   C     C_R   0.223319 0.304960 0.891502 0.129788
C67   C     C_R   0.376385 0.741648 0.106369 0.147061
C68   C     C_R   0.719467 0.801141 0.895337 0.156056
C69   C     C_R   0.864668 0.258847 0.009492 -0.136485
C70   C     C_R   0.255330 0.332696 0.989275 -0.141716
C71   C     C_R   0.362739 0.759178 0.008954 -0.144738
C72   C     C_R   0.754743 0.831187 0.991227 -0.164260
C73   C     C_R   0.822010 0.222228 0.918522 0.199514
C74   C     C_R   0.351009 0.324714 0.079764 0.188709
C75   C     C_R   0.321932 0.721733 0.919240 0.210638
C76   C     C_R   0.848851 0.822015 0.083587 0.191029
C77   C     C_R   0.274480 0.674027 0.920879 0.205840
C78   C     C_R   0.901410 0.777855 0.082717 0.201739
C79   C     C_R   0.771476 0.175795 0.918127 0.214379
C80   C     C_R   0.402945 0.279693 0.078947 0.199653
C81   C     C_R   0.268069 0.666726 0.010969 -0.123871
C82   C     C_R   0.857311 0.742867 0.990331 -0.158376
C83   C     C_R   0.767006 0.167347 0.009393 -0.126250
C84   C     C_R   0.355924 0.243026 0.988910 -0.121656
C85   C     C_R   0.329738 0.696499 0.107459 0.095688
C86   C     C_R   0.770046 0.757438 0.894904 0.168968
C87   C     C_R   0.830969 0.195816 0.106997 0.096222
C88   C     C_R   0.272650 0.260873 0.891547 0.075007
C89   C     C_3   0.314300 0.722980 0.187184 -0.379719
C90   C     C_3   0.753113 0.775644 0.788698 -0.437397
C91   C     C_3   0.818106 0.221824 0.189186 -0.379626
C92   C     C_3   0.184005 0.230112 0.809709 -0.339815
C93   C     C_3   0.870886 0.271059 0.188784 -0.502024
C94   C     C_3   0.129533 0.278525 0.809036 -0.474717
C95   C     C_3   0.365983 0.772556 0.185863 -0.503184
C96   C     C_3   0.697793 0.823246 0.789114 -0.474606
H37   H     H_    0.353808 0.701783 0.268448 0.207682
H38   H     H_    0.708161 0.746036 0.720797 0.236067
H39   H     H_    0.857831 0.199771 0.269544 0.205350
H40   H     H_    0.174608 0.192571 0.845349 0.227555
H41   H     H_    0.238406 0.731581 0.151049 0.235755
H42   H     H_    0.819309 0.788261 0.797964 0.206472
H43   H     H_    0.742802 0.231195 0.154845 0.237837
H44   H     H_    0.175024 0.224587 0.729955 0.235141
H45   H     H_    0.940867 0.277118 0.268661 0.197485
H46   H     H_    0.088285 0.268353 0.843002 0.236875
H47   H     H_    0.435153 0.779697 0.266141 0.197586
H48   H     H_    0.620931 0.821055 0.721387 0.202131
H49   H     H_    0.825798 0.308509 0.153775 0.214451
H50   H     H_    0.089306 0.300657 0.728770 0.198094
H51   H     H_    0.319711 0.809424 0.148476 0.215370
H52   H     H_    0.731370 0.863907 0.798567 0.217236
C97   C     C_R   0.915274 0.554704 0.480837 0.073001
C98   C     C_R   0.921123 0.554468 0.393021 0.052845
C99   C     C_R   0.416812 0.052826 0.481979 0.151507
C100  C     C_R   0.421183 0.052646 0.392188 0.139116
C101  C     C_R   0.892672 0.506837 0.512634 -0.022352
C102  C     C_R   0.904398 0.506239 0.333309 -0.023067
C103  C     C_R   0.392525 0.005210 0.512263 -0.065827
C104  C     C_R   0.402490 0.004741 0.331545 -0.060320
C105  C     C_R   0.846752 0.463763 0.434023 0.156688
C106  C     C_R   0.853657 0.463120 0.342661 0.235456
C107  C     C_R   0.351343 0.960541 0.437086 0.160965
C108  C     C_R   0.357652 0.959915 0.345658 0.240909
C109  C     C_3   0.005032 0.592508 0.449613 -0.363698
C110  C     C_3   0.998374 0.592559 0.546149 -0.376362
C111  C     C_3   0.366387 0.105174 0.348402 -0.472616
C112  C     C_3   0.361731 0.105437 0.446191 -0.431200
H53   H     H_    0.988459 0.633338 0.408467 0.214506
H54   H     H_    0.060246 0.572497 0.620490 0.238968
H55   H     H_    0.296041 0.099768 0.268535 0.203386
H56   H     H_    0.402685 0.139721 0.504248 0.223922
H57   H     H_    0.071235 0.572882 0.469004 0.225862
H58   H     H_    0.978082 0.633314 0.560429 0.209891
H59   H     H_    0.409869 0.139402 0.349897 0.224669
H60   H     H_    0.288601 0.100302 0.423961 0.209034
N33   N     N_R   0.537699 0.389034 0.601882 0.234662
O1    O     O_R   0.534477 0.357740 0.528958 -0.281849
O2    O     O_R   0.556301 0.367268 0.692409 -0.393933
N34   N     N_R   0.473265 0.457316 0.378049 0.280129
O3    O     O_R   0.549090 0.434036 0.396821 -0.288930
O4    O     O_R   0.414123 0.479968 0.282324 -0.354999
N35   N     N_R   0.038249 0.888615 0.598644 0.234765
O5    O     O_R   0.036278 0.857997 0.525716 -0.278968
O6    O     O_R   0.056579 0.866211 0.688573 -0.399616
N36   N     N_R   0.971090 0.957937 0.374720 0.280043
O7    O     O_R   0.046929 0.935342 0.392212 -0.289089
O8    O     O_R   0.911095 0.980873 0.279523 -0.359840
N37   N     N_R   0.833309 0.230926 0.831144 0.250105
O9    O     O_R   0.759704 0.236305 0.729809 -0.284814
O10   O     O_R   0.917191 0.240897 0.854758 -0.406748
N38   N     N_R   0.396403 0.363253 0.167997 0.265316
O11   O     O_R   0.435581 0.406600 0.158897 -0.287076
O12   O     O_R   0.415396 0.349809 0.263546 -0.306977
N39   N     N_R   0.330966 0.731317 0.830470 0.258447
O13   O     O_R   0.256681 0.743851 0.732884 -0.298438
O14   O     O_R   0.414830 0.737893 0.851866 -0.378465
N40   N     N_R   0.894484 0.861134 0.170776 0.263255
O15   O     O_R   0.929666 0.905383 0.158179 -0.290627
O16   O     O_R   0.916190 0.848169 0.267744 -0.304449
N41   N     N_R   0.236140 0.632827 0.835852 0.241779
O17   O     O_R   0.239975 0.581098 0.861025 -0.386242
O18   O     O_R   0.196832 0.646119 0.733440 -0.335590
N42   N     N_R   0.000131 0.770980 0.170283 0.253047
O19   O     O_R   0.028991 0.771022 0.272743 -0.286253
O20   O     O_R   0.060875 0.760890 0.147223 -0.381700
N43   N     N_R   0.726687 0.137500 0.828176 0.251600
O21   O     O_R   0.740034 0.084951 0.848380 -0.371509
O22   O     O_R   0.661018 0.153955 0.728852 -0.331744
N44   N     N_R   0.501608 0.271976 0.165979 0.251465
O23   O     O_R   0.532155 0.275466 0.268806 -0.280632
O24   O     O_R   0.560849 0.258556 0.142293 -0.380621
C113  C     C_3   0.791301 0.419749 0.445877 -0.782654
H61   H     H_    0.719081 0.416133 0.368558 0.284854
H62   H     H_    0.828260 0.379565 0.465080 0.239757
H63   H     H_    0.780267 0.430056 0.510341 0.244535
C114  C     C_3   0.808885 0.417087 0.259147 -0.936455
H64   H     H_    0.732738 0.413148 0.225453 0.278550
H65   H     H_    0.810686 0.424956 0.186927 0.244315
H66   H     H_    0.845618 0.377703 0.298641 0.248591
C115  C     C_3   0.297013 0.916046 0.449855 -0.784570
H67   H     H_    0.225298 0.911171 0.372312 0.281902
H68   H     H_    0.335712 0.876356 0.471512 0.240701
H69   H     H_    0.284058 0.926742 0.512576 0.244014
C116  C     C_3   0.314177 0.913274 0.263358 -0.943786
H70   H     H_    0.238647 0.907805 0.231239 0.277278
H71   H     H_    0.313531 0.921518 0.189597 0.242952
H72   H     H_    0.353379 0.874546 0.303333 0.249951
N45   N     N_R   0.694548 0.599453 0.707261 0.207088
O25   O     O_R   0.718415 0.623676 0.648474 -0.452784
O26   O     O_R   0.631209 0.621928 0.716618 -0.418149
N46   N     N_R   0.241514 0.595494 0.355147 0.214460
O27   O     O_R   0.190662 0.636304 0.291394 -0.401795
O28   O     O_R   0.263980 0.594722 0.455135 -0.379090
N47   N     N_R   0.194600 0.099054 0.701851 0.203735
O29   O     O_R   0.224415 0.123253 0.648984 -0.455804
O30   O     O_R   0.122748 0.119491 0.696920 -0.456255
N48   N     N_R   0.741196 0.095424 0.355160 0.215253
O31   O     O_R   0.690951 0.136369 0.291379 -0.398522
O32   O     O_R   0.763109 0.094664 0.454908 -0.368100

loop_
_geom_bond_atom_site_label_1
_geom_bond_atom_site_label_2
_geom_bond_distance
_ccdc_geom_bond_type
C89   C95   1.505533 S    
C46   C57   1.449869 S    
C91   H43   1.112522 S    
C111  C112  1.501243 S    
C33   C82   1.453037 S    
N44   O24   1.301534 A    
C61   H33   1.108586 S    
C116  H70   1.108294 S    
C30   C34   1.395634 A    
C81   C85   1.397812 A    
C26   N26   1.340599 A    
C52   C59   1.525633 S    
C89   H41   1.112521 S    
C109  C110  1.504053 S    
C66   C70   1.395451 A    
C25   N25   1.339978 A    
N4    Ni4   1.849703 S    
C4    H4    1.077535 S    
C27   N27   1.338686 A    
C61   C62   1.555074 S    
C17   N17   1.343987 A    
C63   C64   1.554909 S    
C91   C93   1.505544 S    
C2    H2    1.077603 S    
N33   O1    1.299843 A    
C7    H7    1.081154 S    
C113  H61   1.108893 S    
C18   H18   1.079937 S    
C95   H51   1.112135 S    
C1    H1    1.075654 S    
C100  C104  1.392552 A    
C6    C38   1.385327 A    
C95   H47   1.111702 S    
C8    H8    1.077853 S    
N34   O4    1.300330 A    
N14   N22   1.380780 A    
C59   C63   1.537701 S    
C24   N24   1.333527 A    
C77   C81   1.416565 A    
C66   C88   1.369216 A    
C114  H64   1.108706 S    
N10   N18   1.380540 A    
C101  C105  1.422410 A    
C68   C96   1.495267 S    
C76   N40   1.424257 S    
C89   H37   1.111978 S    
N43   O21   1.301165 A    
C78   N42   1.437680 S    
C73   N37   1.435473 S    
C56   C60   1.542262 S    
N11   N19   1.380527 A    
N48   O31   1.299967 A    
C50   C54   1.519234 S    
C109  H57   1.112635 S    
C109  H53   1.111941 S    
C11   C43   1.385717 A    
N19   Ni7   1.852199 S    
C49   C53   1.543458 S    
C48   C59   1.446257 S    
C23   N47   1.427161 S    
C20   N20   1.340795 A    
C22   N46   1.438311 S    
C53   H29   1.110017 S    
C4    C36   1.378875 A    
C52   C56   1.518198 S    
C64   H36   1.109834 S    
C10   N10   1.324889 A    
C92   H40   1.111857 S    
C75   N39   1.433714 S    
C112  H56   1.111800 S    
C96   H48   1.111705 S    
N43   O22   1.300464 A    
N27   Ni8   1.844966 S    
N3    N31   1.385831 A    
C26   H22   1.075485 S    
C52   N36   1.454257 S    
C19   C43   1.395602 A    
C25   H21   1.078562 S    
C90   H42   1.112580 S    
C78   C82   1.408709 A    
C53   C62   1.564521 S    
C4    N4    1.326382 A    
C92   H44   1.111483 S    
C21   C45   1.389993 A    
N45   O25   1.301176 A    
N48   O32   1.301366 A    
N14   Ni5   1.841667 S    
C97   C101  1.392350 A    
C68   C72   1.391506 A    
C56   H32   1.110393 S    
C29   N29   1.340269 A    
C55   C59   1.540785 S    
C92   C94   1.503455 S    
C107  C108  1.424603 A    
C8    N8    1.329472 A    
C86   C90   1.495785 S    
C90   C96   1.503290 S    
C94   H46   1.112550 S    
C51   N35   1.458192 S    
C111  H59   1.111732 S    
C58   C62   1.539782 S    
N40   O16   1.300581 A    
C112  H60   1.112726 S    
C110  H58   1.111768 S    
N13   Ni6   1.841343 S    
C12   H12   1.080764 S    
N15   N23   1.380767 A    
N38   O11   1.299790 A    
N8    N28   1.385828 A    
C29   H25   1.079287 S    
C24   C48   1.369189 A    
C103  C107  1.420738 A    
N33   O2    1.300654 A    
N46   O28   1.301365 A    
C9    H9    1.076878 S    
N15   Ni8   1.841343 S    
C23   N23   1.332803 A    
C90   H38   1.111837 S    
C44   C103  1.465112 S    
C74   N38   1.424074 S    
C22   N22   1.333888 A    
C79   C83   1.416948 A    
C35   C84   1.459375 S    
C18   N18   1.343642 A    
C72   C76   1.414112 A    
C2    C34   1.376458 A    
C1    N1    1.327481 A    
N34   O3    1.300720 A    
N6    N26   1.385828 A    
N5    Ni5   1.865960 S    
N2    N30   1.385830 A    
N1    N29   1.385831 A    
N35   O5    1.300025 A    
C116  H71   1.107731 S    
C82   C86   1.392809 A    
C8    C40   1.386982 A    
C15   H15   1.074899 S    
C38   C70   1.464801 S    
C99   C103  1.390090 A    
C24   N48   1.438151 S    
C30   H26   1.080417 S    
C15   N15   1.327324 A    
C111  H55   1.112603 S    
N29   Ni2   1.875521 S    
N22   Ni2   1.866098 S    
C99   C100  1.379465 A    
C115  H68   1.110055 S    
N1    Ni1   1.852501 S    
N31   Ni4   1.875521 S    
C54   H30   1.110215 S    
C67   C71   1.391758 A    
C54   C61   1.539725 S    
C13   C45   1.376591 A    
C26   C38   1.392627 A    
N35   O6    1.300762 A    
C18   C42   1.384981 A    
C29   C33   1.381217 A    
C12   C44   1.378851 A    
C32   N32   1.342389 A    
C55   H31   1.110038 S    
C105  C106  1.430115 A    
N28   Ni7   1.847811 S    
C105  C113  1.511388 S    
C87   C91   1.502485 S    
C60   C64   1.539693 S    
C31   C35   1.383712 A    
C14   C46   1.372451 A    
C94   H50   1.111965 S    
N12   Ni3   1.851245 S    
N42   O20   1.301577 A    
N37   O9    1.300308 A    
C5    N5    1.326793 A    
C104  C108  1.419586 A    
N39   O14   1.301023 A    
C5    C37   1.377561 A    
N17   Ni5   1.852198 S    
N16   N24   1.380780 A    
C49   N33   1.458114 S    
C49   C58   1.529086 S    
N45   O26   1.300530 A    
C21   N45   1.428139 S    
N16   Ni7   1.841667 S    
C57   C61   1.539970 S    
C40   C72   1.459924 S    
C88   C92   1.494623 S    
N23   Ni3   1.866439 S    
C76   C78   1.411078 A    
N8    Ni8   1.865660 S    
C113  H62   1.110041 S    
C51   C55   1.543739 S    
N41   O18   1.299077 A    
C11   H11   1.077749 S    
N13   N21   1.380767 A    
N38   O12   1.300608 A    
C83   C87   1.398541 A    
N20   Ni8   1.849438 S    
N26   Ni5   1.847811 S    
C19   N19   1.341866 A    
C43   C104  1.465565 S    
C23   C47   1.391107 A    
N25   Ni6   1.844966 S    
C2    N2    1.325547 A    
C42   C101  1.464401 S    
C84   C88   1.395281 A    
C25   C37   1.383054 A    
C115  H67   1.108523 S    
C41   C102  1.464599 S    
C106  C114  1.511865 S    
C114  H65   1.107868 S    
C28   C40   1.391869 A    
C110  H54   1.111869 S    
C97   C98   1.365971 A    
N47   O30   1.299248 A    
C70   C74   1.418158 A    
C39   C71   1.461606 S    
N44   O23   1.300285 A    
N36   O8    1.300664 A    
C113  H63   1.108510 S    
N9    N17   1.380529 A    
C56   C63   1.540131 S    
C68   C86   1.378122 A    
C65   C93   1.497114 S    
C93   H45   1.111698 S    
C74   C80   1.419887 A    
C37   C69   1.461082 S    
C6    H6    1.076681 S    
N4    N32   1.385830 A    
C32   H28   1.078684 S    
C53   C57   1.541056 S    
C47   C60   1.454211 S    
N12   N20   1.380540 A    
C51   C60   1.528950 S    
C31   H27   1.079722 S    
C62   H34   1.109787 S    
C116  H72   1.109835 S    
C3    C35   1.367828 A    
C51   C52   1.515609 S    
C66   C94   1.499332 S    
C98   C109  1.501857 S    
C65   C87   1.367428 A    
C45   C58   1.455649 S    
C22   C46   1.368750 A    
C80   C84   1.411726 A    
C65   C69   1.392448 A    
C97   C110  1.497053 S    
C34   C81   1.460461 S    
C54   C58   1.543000 S    
C31   N31   1.343104 A    
N21   Ni1   1.866439 S    
C63   H35   1.108492 S    
N6    Ni6   1.865660 S    
C3    H3    1.076494 S    
C30   N30   1.344774 A    
C77   N41   1.440666 S    
C55   C64   1.563787 S    
C115  H69   1.108338 S    
C11   N11   1.328204 A    
C6    N6    1.327293 A    
C114  H66   1.109961 S    
C73   C79   1.423783 A    
C67   C95   1.497000 S    
N32   Ni3   1.875831 S    
C28   N28   1.337844 A    
C50   C57   1.525211 S    
C80   N44   1.437802 S    
C49   C50   1.515454 S    
C10   C42   1.374938 A    
N3    Ni3   1.852501 S    
C27   H23   1.076426 S    
C16   N16   1.332454 A    
C9    C41   1.380732 A    
C108  C116  1.512681 S    
C102  C106  1.422511 A    
C7    C39   1.378931 A    
C27   C39   1.382216 A    
C93   H49   1.112237 S    
C96   H52   1.112551 S    
C28   H24   1.075383 S    
C17   H17   1.080040 S    
C71   C75   1.421725 A    
C7    N7    1.327316 A    
N42   O19   1.300442 A    
N37   O10   1.301323 A    
C100  C111  1.495501 S    
C20   C44   1.384662 A    
N2    Ni2   1.849703 S    
C91   H39   1.112003 S    
C19   H19   1.079464 S    
C75   C77   1.427340 A    
C21   N21   1.334826 A    
C13   H13   1.075203 S    
N36   O7    1.300931 A    
C15   C47   1.375261 A    
C85   C89   1.502392 S    
C14   N14   1.334092 A    
C3    N3    1.325936 A    
C99   C112  1.495971 S    
C98   C102  1.397181 A    
N7    Ni7   1.865960 S    
C5    H5    1.081068 S    
C14   H14   1.081532 S    
C20   H20   1.079223 S    
C16   C48   1.370030 A    
C16   H16   1.081563 S    
C36   C83   1.461037 S    
N46   O27   1.299972 A    
C12   N12   1.330333 A    
C1    C33   1.366998 A    
N40   O15   1.299911 A    
N5    N25   1.385830 A    
N39   O13   1.301276 A    
N18   Ni6   1.849438 S    
N10   Ni1   1.851245 S    
C69   C73   1.419959 A    
C50   N34   1.454356 S    
N9    Ni2   1.848478 S    
C32   C36   1.394518 A    
N30   Ni1   1.875831 S    
N7    N27   1.385830 A    
N41   O17   1.301601 A    
C13   N13   1.328431 A    
C107  C115  1.512752 S    
C67   C85   1.366158 A    
N24   Ni4   1.866098 S    
N11   Ni4   1.848478 S    
N47   O29   1.301150 A    
C17   C41   1.396143 A    
C9    N9    1.323872 A    
C10   H10   1.081440 S    
C79   N43   1.435758 S    
