data_mof_unit_43282.cif
_audit_creation_date              2012-12-10T18:34:37-0500
_audit_creation_method            fapswitch 2.2
_symmetry_space_group_name_H-M    P1
_symmetry_Int_Tables_number       1
_space_group_crystal_system       triclinic
_cell_length_a                    14.983023
_cell_length_b                    15.499622
_cell_length_c                    15.71492
_cell_angle_alpha                 90.408127
_cell_angle_beta                  106.100362
_cell_angle_gamma                 80.52153
_cell_volume                      3455.61965897

loop_
_atom_site_label
_atom_site_type_symbol
_atom_type_description
_atom_site_fract_x
_atom_site_fract_y
_atom_site_fract_z
_atom_type_partial_charge
C1    C     C_R   0.439808 0.662543 0.485863 0.906525
C2    C     C_R   0.557636 0.098103 0.511183 0.058872
C3    C     C_R   0.345166 0.939565 0.452939 -0.135199
C4    C     C_R   0.653894 0.060217 0.542802 -0.122168
C5    C     C_R   0.512767 0.954358 0.497160 -0.157099
C6    C     C_R   0.486159 0.045865 0.497167 -0.159824
C7    C     C_R   0.389347 0.082130 0.487117 0.348732
C8    C     C_R   0.609487 0.918054 0.506888 0.347076
C9    C     C_R   0.318453 0.030979 0.455813 0.354167
C10   C     C_R   0.680486 0.968939 0.538703 0.350328
C11   C     C_R   0.850562 0.616160 0.652492 0.428504
C12   C     C_R   0.560130 0.337444 0.514031 0.891972
C13   C     C_R   0.149496 0.383612 0.347544 0.428665
C14   C     C_R   0.757886 0.599525 0.622135 -0.049426
C15   C     C_R   0.242541 0.399392 0.378624 -0.094090
C16   C     C_R   0.502283 0.500195 0.662372 0.888067
C17   C     C_R   0.497704 0.499833 0.337629 0.891615
C18   C     C_R   0.790583 0.520922 0.501264 0.025366
C19   C     C_R   0.208770 0.481110 0.497340 -0.002466
C20   C     C_R   0.885327 0.532452 0.528144 -0.058591
C21   C     C_R   0.114118 0.469390 0.470553 -0.062110
C22   C     C_R   0.914853 0.580313 0.605608 0.047565
C23   C     C_R   0.278350 0.883570 0.424085 -0.139750
C24   C     C_R   0.084875 0.420660 0.393673 0.048151
C25   C     C_R   0.951704 0.495644 0.482614 0.115212
C26   C     C_R   0.047661 0.506486 0.515872 0.113513
C27   C     C_R   0.074116 0.553995 0.593360 -0.167072
C28   C     C_R   0.925360 0.447799 0.405355 -0.190168
C29   C     C_R   0.009018 0.590586 0.636470 -0.119037
C30   C     C_R   0.990628 0.410613 0.362673 -0.127473
C31   C     C_3   0.445931 0.575311 0.012824 -0.269610
C32   C     C_3   0.553988 0.424988 0.987184 -0.269053
C33   C     C_3   0.538699 0.569570 0.985365 -0.282320
C34   C     C_R   0.720709 0.115820 0.573707 -0.147053
C35   C     C_3   0.461223 0.430729 0.014640 -0.284291
C36   C     C_1   0.507173 0.500753 0.752601 -0.121061
C37   C     C_1   0.492770 0.499386 0.247397 -0.125725
C38   C     C_3   0.414354 0.506163 0.945237 0.562035
C39   C     C_3   0.585566 0.494135 0.054771 0.563952
C40   C     C_3   0.505641 0.500523 0.918568 -0.022263
C41   C     C_3   0.494276 0.499774 0.081435 -0.021945
C42   C     C_1   0.508523 0.500813 0.828334 0.080825
C43   C     C_1   0.491397 0.499419 0.171662 0.078231
C44   C     C_R   0.400340 0.756492 0.473975 -0.227505
C45   C     C_R   0.305457 0.792387 0.429453 0.424588
C46   C     C_R   0.599257 0.243415 0.524804 -0.216447
C47   C     C_3   0.814280 0.720968 0.751988 0.075485
C48   C     C_3   0.862263 0.780667 0.820657 -0.646477
C49   C     C_3   0.186711 0.281953 0.245102 0.082498
C50   C     C_3   0.140089 0.222815 0.174981 -0.652876
C51   C     C_3   0.374741 0.166960 0.602700 0.136066
C52   C     C_3   0.344876 0.259772 0.628602 -0.680524
C53   C     C_3   0.622446 0.832950 0.391033 0.136684
C54   C     C_3   0.650877 0.739872 0.365000 -0.682901
C55   C     C_R   0.693666 0.206947 0.570170 0.342528
C56   C     C_R   0.464270 0.812773 0.505874 -0.206547
C57   C     C_R   0.535370 0.187570 0.490781 -0.198625
C58   C     C_R   0.441526 0.901991 0.484181 0.059037
H1    H     H_    0.571655 0.625363 0.972371 0.194255
H2    H     H_    0.599286 0.364360 0.975637 0.201280
H3    H     H_    0.467066 0.214661 0.447159 0.216615
H4    H     H_    0.532974 0.786254 0.549110 0.218438
H5    H     H_    0.204812 0.909854 0.395878 0.253404
H6    H     H_    0.794085 0.089237 0.602477 0.251079
H7    H     H_    0.033746 0.626391 0.695451 0.217385
H8    H     H_    0.965987 0.374324 0.304032 0.216842
H9    H     H_    0.768958 0.687849 0.781680 0.144939
H10   H     H_    0.770232 0.762287 0.692724 0.194270
H11   H     H_    0.911547 0.812257 0.795121 0.290316
H12   H     H_    0.428268 0.374937 0.027637 0.193551
H13   H     H_    0.808502 0.832203 0.835668 0.205710
H14   H     H_    0.902526 0.742118 0.882655 0.254055
H15   H     H_    0.233627 0.239754 0.302509 0.195786
H16   H     H_    0.228747 0.319240 0.215334 0.140777
H17   H     H_    0.096511 0.262582 0.114806 0.255465
H18   H     H_    0.194838 0.174843 0.156814 0.203885
H19   H     H_    0.094167 0.186863 0.200754 0.291670
H20   H     H_    0.841942 0.475086 0.119043 0.391968
H21   H     H_    0.158235 0.522279 0.881055 0.393495
H22   H     H_    0.112874 0.208954 0.424602 0.386769
H23   H     H_    0.237131 0.519641 0.552145 0.172806
H24   H     H_    0.885838 0.790795 0.569242 0.388968
H25   H     H_    0.831362 0.279228 0.507023 0.355334
H26   H     H_    0.215530 0.610412 0.306503 0.382082
H27   H     H_    0.449744 0.144430 0.640496 0.132274
H28   H     H_    0.329771 0.124180 0.621556 0.173828
H29   H     H_    0.270401 0.284639 0.591560 0.273141
H30   H     H_    0.351631 0.260493 0.700763 0.216959
H31   H     H_    0.390484 0.303557 0.613338 0.258053
H32   H     H_    0.667432 0.875162 0.371339 0.173887
H33   H     H_    0.547280 0.855989 0.354031 0.132009
H34   H     H_    0.761751 0.483896 0.445351 0.164489
H35   H     H_    0.605329 0.696665 0.381421 0.255949
H36   H     H_    0.642773 0.738835 0.292611 0.218089
H37   H     H_    0.725549 0.714549 0.401061 0.272412
H38   H     H_    0.294836 0.377002 0.344429 0.127695
H39   H     H_    0.706369 0.620560 0.657552 0.121872
H40   H     H_    0.145183 0.563908 0.623772 0.185736
H41   H     H_    0.854368 0.437607 0.375094 0.182148
H42   H     H_    0.400634 0.635937 0.024377 0.201346
N1    N     N_R   0.731710 0.552730 0.549140 -0.114037
N2    N     N_R   0.268290 0.447270 0.450860 -0.124887
O1    O     O_R   0.383110 0.605620 0.475230 -0.531506
O2    O     O_3   0.115957 0.340001 0.269934 -0.619223
O3    O     O_2   0.703884 0.564720 0.186938 -0.315642
O4    O     O_2   0.720869 0.404382 0.188528 -0.318908
O5    O     O_3   0.780343 0.481507 0.073273 -0.527877
O6    O     O_2   0.278979 0.595788 0.811393 -0.310431
O7    O     O_2   0.296039 0.435437 0.813245 -0.315410
O8    O     O_3   0.219595 0.518867 0.926828 -0.530762
O9    O     O_2   0.150192 0.064319 0.334342 -0.315744
O10   O     O_2   0.150799 0.039382 0.488156 -0.258855
O11   O     O_3   0.182030 0.189385 0.442691 -0.528724
O12   O     O_R   0.616890 0.394380 0.524770 -0.522443
O13   O     O_2   0.848494 0.961902 0.507413 -0.259091
O14   O     O_2   0.848376 0.933664 0.660422 -0.318186
O15   O     O_3   0.816772 0.810811 0.549239 -0.529704
O16   O     O_2   0.743209 0.334662 0.681082 -0.246491
O17   O     O_2   0.868135 0.212934 0.677546 -0.253292
O18   O     O_3   0.809079 0.325054 0.544189 -0.539639
O19   O     O_2   0.194852 0.681690 0.453966 -0.308704
O20   O     O_2   0.129666 0.785024 0.326430 -0.249785
O21   O     O_3   0.257911 0.654487 0.315547 -0.540345
O22   O     O_3   0.363431 0.166839 0.510455 -0.580751
O23   O     O_R   0.531900 0.639510 0.506760 -0.633668
O24   O     O_3   0.635247 0.833333 0.483488 -0.581048
O25   O     O_R   0.468100 0.360490 0.493240 -0.629127
O26   O     O_R   0.425620 0.483070 0.607460 -0.615812
O27   O     O_R   0.574380 0.516930 0.392540 -0.619073
O28   O     O_R   0.574400 0.516960 0.638990 -0.602579
O29   O     O_R   0.425600 0.483040 0.361010 -0.611291
O30   O     O_3   0.884056 0.658344 0.730955 -0.616993
S1    S     S_3+6 0.700214 0.485988 0.130489 0.016237
S2    S     S_3+6 0.299691 0.514267 0.869562 0.017996
S3    S     S_3+6 0.197186 0.080717 0.429319 0.029305
S4    S     S_3+6 0.801707 0.919111 0.564887 0.030144
S5    S     S_3+6 0.780688 0.270323 0.622121 0.064532
S6    S     S_3+6 0.217887 0.728217 0.381227 0.052533
Zn1   Zn    Zn3+2 0.400660 0.477370 0.478940 0.993715
Zn2   Zn    Zn3+2 0.599340 0.522630 0.521060 1.017974

loop_
_geom_bond_atom_site_label_1
_geom_bond_atom_site_label_2
_ccdc_geom_bond_type
H25   O18   S    
C21   C26   A    
C27   H40   S    
C23   C45   A    
C22   C29   A    
C17   O29   A    
C36   C42   T    
C7    O22   S    
C49   H15   S    
O28   Zn2   S    
C11   O30   S    
C51   H27   S    
C49   O2    S    
C2    C57   A    
C39   C41   S    
C12   O25   A    
C53   C54   S    
H26   O21   S    
O21   S6    S    
C26   C27   A    
C33   C39   S    
C5    C58   A    
C14   H39   S    
C19   C21   A    
O26   Zn1   S    
C1    O23   A    
C50   H18   S    
C5    C6    A    
C19   N2    A    
C27   C29   A    
C20   C25   A    
C32   C39   S    
C54   H35   S    
C3    C23   A    
O4    S1    D    
C35   H12   S    
C46   C55   A    
C53   H33   S    
C31   C33   S    
O12   Zn2   S    
O16   S5    D    
C16   O28   A    
C1    O1    A    
C40   C42   S    
C34   C55   A    
C33   H1    S    
O13   S4    D    
C51   O22   S    
C41   C43   S    
C52   H31   S    
C2    C6    A    
O25   Zn1   S    
C48   H14   S    
C51   H28   S    
C47   H9    S    
N1    Zn2   S    
C12   O12   A    
O23   Zn2   S    
C4    C34   A    
C33   C40   S    
C17   O27   A    
C51   C52   S    
O17   S5    D    
C32   C35   S    
C52   H30   S    
C35   C38   S    
O20   S6    D    
C12   C46   S    
C15   H38   S    
C14   N1    A    
C25   C26   A    
C13   C24   A    
H20   O5    S    
C25   C28   A    
C18   N1    A    
O19   S6    D    
C37   C43   T    
C2    C4    A    
O6    S2    D    
C3    C9    A    
O1    Zn1   S    
C44   C56   A    
C1    C44   S    
C47   C48   S    
C34   H6    S    
C17   C37   S    
C31   H42   S    
C13   O2    S    
C16   O26   A    
C54   H37   S    
C30   H8    S    
C29   H7    S    
C9    S3    S    
C28   H41   S    
C8    O24   S    
C20   C22   A    
C13   C15   A    
C46   C57   A    
C56   H4    S    
O8    S2    S    
C32   H2    S    
O10   S3    D    
C4    C10   A    
C50   H19   S    
C47   H10   S    
C44   C45   A    
C48   H11   S    
O3    S1    D    
C39   S1    S    
C7    C9    A    
C38   S2    S    
C31   C41   S    
H21   O8    S    
O7    S2    D    
C52   H29   S    
C10   S4    S    
C5    C8    A    
C57   H3    S    
C6    C7    A    
O14   S4    D    
C11   C22   A    
C55   S5    S    
C31   C38   S    
C47   O30   S    
C18   H34   S    
C28   C30   A    
O5    S1    S    
C50   H17   S    
C16   C36   S    
C38   C40   S    
O9    S3    D    
O27   Zn2   S    
C23   H5    S    
C45   S6    S    
C11   C14   A    
C56   C58   A    
C18   C20   A    
N2    Zn1   S    
C32   C40   S    
C15   N2    A    
C35   C41   S    
C24   C30   A    
C54   H36   S    
O29   Zn1   S    
C53   O24   S    
C3    C58   A    
H22   O11   S    
C8    C10   A    
C49   C50   S    
O11   S3    S    
C21   C24   A    
C53   H32   S    
C49   H16   S    
O18   S5    S    
C48   H13   S    
H24   O15   S    
C19   H23   S    
O15   S4    S    
