data_mof_unit_12391.cif
_audit_creation_date              2012-10-26T18:47:56-0400
_audit_creation_method            fapswitch 2.2
_symmetry_space_group_name_H-M    P1
_symmetry_Int_Tables_number       1
_space_group_crystal_system       triclinic
_cell_length_a                    15.864733
_cell_length_b                    8.700715
_cell_length_c                    7.442753
_cell_angle_alpha                 102.679108
_cell_angle_beta                  94.00722
_cell_angle_gamma                 92.200196
_cell_volume                      998.329113585

loop_
_atom_site_label
_atom_site_type_symbol
_atom_type_description
_atom_site_fract_x
_atom_site_fract_y
_atom_site_fract_z
_atom_type_partial_charge
C1    C     C_R   0.494986 0.199923 0.454344 0.579759
C2    C     C_2   0.479158 0.962286 0.569728 -0.021376
C3    C     C_R   0.340374 0.499735 0.502695 0.574080
C4    C     C_R   0.497052 0.799240 0.546340 0.515200
C5    C     C_R   0.659629 0.500245 0.497307 0.545607
C6    C     C_3   0.051139 0.472897 0.690316 -0.095202
C7    C     C_3   0.042593 0.375526 0.339065 -0.202030
C8    C     C_3   0.944870 0.371138 0.337342 0.267836
C9    C     C_1   0.749011 0.501003 0.491962 0.002106
C10   C     C_3   0.083250 0.502456 0.506190 -0.015521
C11   C     C_2   0.915169 0.721308 0.309149 0.292142
C12   C     C_3   0.952838 0.473169 0.681145 -0.253776
C13   C     C_2   0.434747 0.035300 0.734641 0.252903
C14   C     C_2   0.083433 0.325088 0.740936 0.239896
C15   C     C_3   0.916980 0.504637 0.493723 -0.027193
C16   C     C_3   0.955398 0.668508 0.475401 -0.042462
C17   C     C_3   0.054147 0.665378 0.480119 0.273750
C18   C     C_1   0.824525 0.502400 0.490999 -0.033593
C19   C     C_1   0.175594 0.501446 0.509163 -0.013137
C20   C     C_1   0.251053 0.500660 0.508227 0.029320
C21   C     C_2   0.495469 0.032588 0.431923 -0.111649
Cu1   Cu    Cu3+1 0.509300 0.517380 0.684380 1.009659
Cu2   Cu    Cu3+1 0.490700 0.482620 0.315620 0.999862
F1    F     F_    0.909782 0.384668 0.165917 -0.621412
F2    F     F_    0.090315 0.785144 0.622850 -0.599877
H1    H     H_    0.924275 0.359591 0.700613 0.189954
H2    H     H_    0.078367 0.687129 0.350846 0.190601
H3    H     H_    0.939638 0.758271 0.598124 0.154007
H4    H     H_    0.849069 0.749198 0.307109 0.111274
H5    H     H_    0.449885 0.004043 0.866113 0.124448
H6    H     H_    0.134343 0.335463 0.848892 0.131092
H7    H     H_    0.076405 0.572753 0.804639 0.179262
H8    H     H_    0.933699 0.566311 0.796860 0.189599
H9    H     H_    0.518387 0.967241 0.304360 0.101058
H10   H     H_    0.433289 0.380724 0.949658 0.277540
H11   H     H_    0.566062 0.620807 0.050795 0.240703
H12   H     H_    0.062298 0.402540 0.208114 0.153927
H13   H     H_    0.065445 0.257088 0.343153 0.173291
H14   H     H_    0.921873 0.254699 0.359429 0.166999
N1    N     N_2   0.476670 0.456430 0.038530 -0.252948
N2    N     N_2   0.523330 0.543570 0.961470 -0.258183
O1    O     O_R   0.506050 0.286130 0.619770 -0.474317
O2    O     O_2   0.377044 0.122163 0.721592 -0.495723
O3    O     O_2   0.054662 0.194023 0.660020 -0.451611
O4    O     O_R   0.490330 0.256780 0.308370 -0.503395
O5    O     O_R   0.387300 0.514690 0.655770 -0.485240
O6    O     O_R   0.371580 0.485340 0.344370 -0.493218
O7    O     O_R   0.509670 0.743220 0.691630 -0.519649
O8    O     O_R   0.493950 0.713870 0.380230 -0.512664
O9    O     O_R   0.628420 0.514660 0.655630 -0.493366
O10   O     O_R   0.612700 0.485310 0.344230 -0.499768
O11   O     O_2   0.954673 0.733526 0.177433 -0.488566

loop_
_geom_bond_atom_site_label_1
_geom_bond_atom_site_label_2
_ccdc_geom_bond_type
Cu2   N1    S    
C6    C10   S    
C15   C18   S    
Cu1   O7    S    
C1    C21   S    
Cu2   O4    S    
C8    H14   S    
C6    C14   S    
C11   C16   S    
C10   C19   S    
C3    O5    A    
Cu2   O10   S    
C16   H3    S    
C12   C15   S    
C13   O2    D    
C4    O8    A    
Cu1   O9    S    
C17   F2    S    
C2    C21   D    
H10   N1    S    
C7    H12   S    
C7    C8    S    
C5    C9    S    
C1    O4    A    
H11   N2    S    
Cu1   O1    S    
C9    C18   T    
C2    C4    S    
C3    O6    A    
N1    N2    D    
C8    F1    S    
C7    H13   S    
C8    C15   S    
C6    C12   S    
C5    O9    A    
Cu2   O8    S    
Cu1   N2    S    
Cu2   O6    S    
C11   O11   D    
C10   C17   S    
C15   C16   S    
C17   H2    S    
C1    O1    A    
C3    C20   S    
C13   H5    S    
C11   H4    S    
C14   O3    D    
C6    H7    S    
C4    O7    A    
C7    C10   S    
C2    C13   S    
C14   H6    S    
Cu1   Cu2   S    
C5    O10   A    
C21   H9    S    
Cu1   O5    S    
C12   H8    S    
C19   C20   T    
C12   H1    S    
C16   C17   S    
