data_mof_unit_21670.cif
_audit_creation_date              2012-12-11T16:43:14-0500
_audit_creation_method            fapswitch 2.2
_symmetry_space_group_name_H-M    P1
_symmetry_Int_Tables_number       1
_space_group_crystal_system       triclinic
_cell_length_a                    6.910268
_cell_length_b                    23.260791
_cell_length_c                    25.869624
_cell_angle_alpha                 104.508304
_cell_angle_beta                  90.435018
_cell_angle_gamma                 90.344574
_cell_volume                      4025.38809178

loop_
_atom_site_label
_atom_site_type_symbol
_atom_type_description
_atom_site_fract_x
_atom_site_fract_y
_atom_site_fract_z
_atom_type_partial_charge
O1    O     O_R   0.505750 0.453350 0.547660 -0.542425
O2    O     O_R   0.170990 0.432220 0.437590 -0.538621
O3    O     O_R   0.005600 0.546650 0.452340 -0.544939
C1    C     C_R   0.339685 0.415228 0.417794 0.710136
O4    O     O_R   0.175720 0.446240 0.546340 -0.545698
O5    O     O_R   0.010370 0.560770 0.561860 -0.543620
C2    C     C_R   0.344985 0.434391 0.563076 0.688659
O6    O     O_R   0.500990 0.439230 0.438140 -0.541787
O7    O     O_3   0.340820 0.537560 0.504970 -0.361240
V1    V     V_3+5 0.064050 0.493030 0.499080 1.405434
O8    O     O_R   0.680940 0.567780 0.562410 -0.541612
C3    C     C_R   0.851036 0.582814 0.583666 0.711667
O9    O     O_R   0.676210 0.553760 0.453660 -0.514031
C4    C     C_R   0.844770 0.566543 0.437573 0.742842
V2    V     V_3+5 0.564640 0.506970 0.500920 1.432857
O10   O     O_3   0.837740 0.462440 0.495030 -0.372235
C5    C     C_R   0.796715 0.899115 0.135424 -0.155711
C6    C     C_R   0.788855 0.863590 0.171824 -0.143709
H1    H     H_    0.667808 0.868118 0.198866 0.114833
C7    C     C_R   0.936023 0.822677 0.173468 0.095987
C8    C     C_R   0.092640 0.818532 0.138462 -0.147167
H2    H     H_    0.206550 0.786790 0.138504 0.115866
C9    C     C_R   0.103100 0.855096 0.102930 -0.165952
C10   C     C_R   0.954521 0.895549 0.100746 -0.049918
C11   C     C_R   0.060658 0.791616 0.254553 0.193485
C12   C     C_R   0.046917 0.755924 0.290814 -0.129390
C13   C     C_R   0.899105 0.713364 0.286018 0.003749
C14   C     C_R   0.766136 0.705798 0.243633 -0.072005
C15   C     C_R   0.778456 0.740352 0.206458 0.175724
C16   C     C_R   0.925543 0.784327 0.211752 -0.037124
C17   C     C_R   0.718028 0.681064 0.358360 0.174467
C18   C     C_R   0.704175 0.645659 0.395729 0.139093
C19   C     C_R   0.854676 0.605790 0.399846 -0.072498
C20   C     C_R   0.017737 0.603159 0.367149 -0.235617
C21   C     C_R   0.031494 0.638399 0.330787 -0.220096
C22   C     C_R   0.882192 0.677099 0.325670 0.090131
C23   C     C_R   0.021288 0.629513 0.671636 0.152731
C24   C     C_R   0.866820 0.629275 0.635008 -0.115908
C25   C     C_R   0.725449 0.673550 0.647902 -0.254493
C26   C     C_R   0.738032 0.719381 0.695317 0.062358
C27   C     C_R   0.896101 0.720530 0.730897 -0.005136
C28   C     C_R   0.035701 0.675279 0.719075 0.050596
C29   C     C_R   0.597221 0.764622 0.707922 0.201873
C30   C     C_R   0.616620 0.810087 0.754591 -0.148872
C31   C     C_R   0.773923 0.812029 0.789492 0.040810
C32   C     C_R   0.914836 0.767047 0.778295 -0.009301
C33   C     C_R   0.073437 0.768545 0.814229 0.069274
C34   C     C_R   0.211373 0.721661 0.801358 0.185076
C35   C     C_R   0.190217 0.676615 0.754711 -0.146631
C36   C     C_R   0.790971 0.858864 0.835277 -0.238595
C37   C     C_R   0.947160 0.862522 0.870801 -0.118048
C38   C     C_R   0.087658 0.816619 0.860974 0.145754
H3    H     H_    0.607265 0.672439 0.619981 0.138674
C39   C     C_R   0.309100 0.178288 0.135896 0.122547
C40   C     C_R   0.457826 0.135548 0.131565 -0.164706
C41   C     C_R   0.588952 0.139494 0.174766 0.127460
C42   C     C_R   0.575564 0.186775 0.222026 0.044732
C43   C     C_R   0.417312 0.226927 0.227096 -0.106842
C44   C     C_R   0.280139 0.222002 0.184623 0.066234
C45   C     C_R   0.713817 0.195381 0.265050 0.177963
C46   C     C_R   0.692066 0.241778 0.311387 0.168013
C47   C     C_R   0.534074 0.280292 0.316652 0.057803
C48   C     C_R   0.395636 0.272553 0.275056 0.021581
C49   C     C_R   0.234741 0.310846 0.281728 0.058316
C50   C     C_R   0.097208 0.303963 0.241139 -0.167850
C51   C     C_R   0.117029 0.261093 0.193101 0.211136
C52   C     C_R   0.512555 0.326912 0.363092 -0.172306
C53   C     C_R   0.352575 0.364850 0.369622 -0.101086
C54   C     C_R   0.212299 0.355880 0.329051 -0.203329
C55   C     C_R   0.302052 0.096038 0.858764 0.149032
C56   C     C_R   0.296821 0.133103 0.823140 0.214830
C57   C     C_R   0.440037 0.177139 0.825717 -0.016027
C58   C     C_R   0.591025 0.183344 0.863946 0.165384
C59   C     C_R   0.596964 0.146008 0.898829 -0.173093
C60   C     C_R   0.453196 0.102653 0.897472 -0.186583
C61   C     C_R   0.563046 0.212659 0.747958 -0.157998
C62   C     C_R   0.546419 0.248475 0.712054 -0.220855
H4    H     H_    0.651936 0.243765 0.680548 0.128492
C63   C     C_R   0.393393 0.289008 0.715873 0.083678
C64   C     C_R   0.257588 0.293526 0.757346 0.194873
C65   C     C_R   0.275698 0.257324 0.793247 -0.166389
C66   C     C_R   0.427990 0.216840 0.788832 0.111329
C67   C     C_R   0.202851 0.332313 0.651097 -0.085570
H5    H     H_    0.073990 0.309357 0.659045 0.122417
C68   C     C_R   0.191117 0.367428 0.614386 -0.181202
C69   C     C_R   0.356374 0.396562 0.601653 -0.050100
C70   C     C_R   0.533422 0.389695 0.626658 -0.150460
H6    H     H_    0.663681 0.411575 0.618056 0.122497
C71   C     C_R   0.544608 0.355072 0.663682 -0.160597
C72   C     C_R   0.379364 0.326219 0.676628 0.125544
O11   O     O_R   0.308350 0.060850 0.061810 -0.539475
O12   O     O_R   0.633860 0.053770 0.953650 -0.540812
O13   O     O_R   0.798960 0.939210 0.938150 -0.536782
C73   C     C_R   0.464472 0.064887 0.936252 0.720010
O14   O     O_R   0.638360 0.067800 0.062400 -0.543383
O15   O     O_R   0.803500 0.953330 0.047670 -0.537721
C74   C     C_R   0.469684 0.085072 0.082333 0.717736
O16   O     O_R   0.303810 0.046730 0.952290 -0.538952
O17   O     O_3   0.468430 0.962490 0.995010 -0.366756
V3    V     V_3+5 0.745300 0.006960 0.000930 1.387174
O18   O     O_R   0.132880 0.946160 0.046390 -0.541542
C75   C     C_R   0.964266 0.934123 0.062887 0.690733
O19   O     O_R   0.128380 0.932130 0.937650 -0.547206
C76   C     C_R   0.958765 0.914304 0.918366 0.716533
V4    V     V_3+5 0.244670 0.992930 0.999140 1.378228
O20   O     O_3   0.971670 0.037510 0.005000 -0.372132
H7    H     H_    0.680763 0.930136 0.135043 0.115946
N1    N     N_3   0.540597 0.651234 0.430411 -0.656742
H8    H     H_    0.533881 0.695016 0.453474 0.222005
H9    H     H_    0.414867 0.641594 0.407115 0.229242
H10   H     H_    0.134611 0.572935 0.369097 0.142253
H11   H     H_    0.158008 0.634664 0.305742 0.132246
N2    N     N_3   0.162048 0.582822 0.662345 -0.688601
H12   H     H_    0.251687 0.586449 0.630957 0.247265
H13   H     H_    0.091472 0.541574 0.653432 0.233319
N3    N     N_3   0.433505 0.766055 0.673914 -0.670110
H14   H     H_    0.483417 0.768953 0.636601 0.229424
H15   H     H_    0.354599 0.726589 0.669205 0.234596
H16   H     H_    0.507544 0.844412 0.763491 0.141158
H17   H     H_    0.682558 0.893439 0.842948 0.130630
N4    N     N_3   0.239985 0.817588 0.899176 -0.698356
H18   H     H_    0.181595 0.822904 0.937245 0.232389
H19   H     H_    0.337281 0.851957 0.898545 0.250796
N5    N     N_3   0.376823 0.717344 0.833892 -0.659488
H20   H     H_    0.466256 0.754512 0.837489 0.265284
H21   H     H_    0.331553 0.712849 0.871136 0.268735
H22   H     H_    0.299587 0.642416 0.746409 0.190034
N6    N     N_3   0.194136 0.179371 0.089674 -0.690684
H23   H     H_    0.284024 0.177535 0.056966 0.231189
H24   H     H_    0.097291 0.143543 0.081421 0.252258
N7    N     N_3   0.730646 0.093870 0.171436 -0.697394
H25   H     H_    0.832649 0.096550 0.142513 0.241761
H26   H     H_    0.662793 0.052194 0.161823 0.225844
N8    N     N_3   0.881866 0.159002 0.263425 -0.672004
H27   H     H_    0.840137 0.115780 0.263486 0.269576
H28   H     H_    0.965766 0.160210 0.230294 0.259297
N9    N     N_3   0.830978 0.249158 0.354222 -0.676919
H29   H     H_    0.967933 0.255243 0.339518 0.263758
H30   H     H_    0.832774 0.210241 0.367489 0.252765
H31   H     H_    0.619954 0.333872 0.394828 0.165769
H32   H     H_    0.088594 0.385145 0.333620 0.123885
H33   H     H_    0.971622 0.332562 0.246602 0.146267
N10   N     N_3   0.961931 0.257668 0.155319 -0.664555
H34   H     H_    0.012218 0.269895 0.121585 0.272992
H35   H     H_    0.902377 0.214876 0.145570 0.249606
N11   N     N_3   0.154943 0.051040 0.853462 -0.676267
H36   H     H_    0.220462 0.009899 0.850203 0.226600
H37   H     H_    0.066623 0.061297 0.887078 0.251789
N12   N     N_3   0.146113 0.125729 0.783485 -0.663607
H38   H     H_    0.012779 0.130737 0.802858 0.247148
H39   H     H_    0.152850 0.082482 0.759208 0.253669
N13   N     N_3   0.736675 0.228658 0.869473 -0.668453
H40   H     H_    0.668278 0.269795 0.876041 0.238191
H41   H     H_    0.813348 0.221608 0.833840 0.225235
H42   H     H_    0.713238 0.151913 0.928089 0.158379
H43   H     H_    0.679924 0.181007 0.743372 0.128777
N14   N     N_3   0.104159 0.335819 0.764083 -0.684771
H44   H     H_    0.116914 0.364134 0.802356 0.238484
H45   H     H_    0.972796 0.312740 0.761990 0.225132
H46   H     H_    0.170784 0.260930 0.824802 0.127611
H47   H     H_    0.052726 0.371341 0.595688 0.122214
H48   H     H_    0.225999 0.851047 0.076559 0.123767
H49   H     H_    0.682590 0.351348 0.682691 0.118640
N15   N     N_3   0.209617 0.836222 0.263190 -0.655179
H50   H     H_    0.303364 0.826687 0.230747 0.225960
H51   H     H_    0.145537 0.877349 0.265354 0.239137
H52   H     H_    0.149794 0.762330 0.323622 0.148523
H53   H     H_    0.652644 0.672509 0.239227 0.142982
N16   N     N_3   0.642394 0.728796 0.162930 -0.669341
H54   H     H_    0.719004 0.720387 0.127154 0.241169
H55   H     H_    0.557936 0.766482 0.165721 0.222549
N17   N     N_3   0.568294 0.722133 0.354063 -0.672028
H56   H     H_    0.438489 0.698622 0.344077 0.218957
H57   H     H_    0.552753 0.752587 0.391046 0.235081

loop_
_geom_bond_atom_site_label_1
_geom_bond_atom_site_label_2
_ccdc_geom_bond_type
C70   H6    S    
C27   C28   A    
N14   H44   S    
O15   C75   A    
C68   H47   S    
C58   C59   A    
O11   V4    S    
C21   C22   A    
C1    O6    A    
N6    H23   S    
C4    C19   S    
C65   C66   A    
C42   C43   A    
C7    C16   S    
C62   H4    S    
N3    H14   S    
N9    H30   S    
C12   C13   A    
C23   C24   A    
O16   V4    S    
C47   C52   A    
C36   H17   S    
N5    H21   S    
C14   C15   A    
C25   H3    S    
C20   C21   A    
N12   H39   S    
C44   C51   A    
O5    C3    A    
C24   C25   A    
C40   C41   A    
C2    C69   S    
C23   N2    S    
C17   N17   S    
C73   O16   A    
C11   N15   S    
C54   H32   S    
V2    O10   S    
C43   C48   A    
N1    H8    S    
C6    H1    S    
N16   H54   S    
C23   C28   A    
C63   C72   S    
N2    H12   S    
O8    V2    S    
C26   C29   A    
C67   H5    S    
N1    H9    S    
C53   C54   A    
C27   C32   A    
C55   C56   A    
C55   N11   S    
O7    V1    S    
C6    C7    A    
C9    H48   S    
N14   H45   S    
C65   H46   S    
O1    C2    A    
O9    C4    A    
C3    C24   S    
C20   H10   S    
N16   H55   S    
O17   V4    S    
O13   C76   A    
N17   H57   S    
C5    C6    A    
N11   H37   S    
C39   C44   A    
C62   C63   A    
C8    C9    A    
O18   V4    S    
C35   H22   S    
C12   H52   S    
C5    C10   A    
C59   C60   A    
C48   C49   A    
C52   C53   A    
O18   C75   A    
C61   C62   A    
C61   C66   A    
C25   C26   A    
O4    C2    A    
O14   V3    S    
C57   C58   A    
C42   C45   A    
N8    H28   S    
C51   N10   S    
C30   H16   S    
C36   C37   A    
C11   C12   A    
C68   C69   A    
C39   N6    S    
C61   H43   S    
C37   C38   A    
C45   C46   A    
O2    C1    A    
C29   C30   A    
C34   N5    S    
C15   C16   A    
C29   N3    S    
C38   N4    S    
C33   C34   A    
C9    C10   A    
C40   C74   S    
C47   C48   A    
O12   C73   A    
C19   C20   A    
O19   V4    S    
C32   C33   A    
C49   C54   A    
O11   C74   A    
C52   H31   S    
O13   V3    S    
N4    H18   S    
N8    H27   S    
O3    C4    A    
O1    V2    S    
C26   C27   A    
C67   C68   A    
N13   H41   S    
O6    V2    S    
O9    V2    S    
C58   N13   S    
C41   C42   A    
N7    H25   S    
O2    V1    S    
C45   N8    S    
C13   C14   A    
N17   H56   S    
O12   V3    S    
C1    C53   S    
N11   H36   S    
V4    O20   S    
C11   C16   A    
N10   H35   S    
C67   C72   A    
C39   C40   A    
N15   H50   S    
C37   C76   S    
C69   C70   A    
C17   C18   A    
C30   C31   A    
C64   C65   A    
N7    H26   S    
N6    H24   S    
O5    V1    S    
O8    C3    A    
O14   C74   A    
C33   C38   A    
C13   C22   S    
N9    H29   S    
V3    O20   S    
O17   V3    S    
C18   C19   A    
C5    H7    S    
C43   C44   A    
C56   C57   A    
O3    V1    S    
V1    O10   S    
N12   H38   S    
C49   C50   A    
C50   H33   S    
C46   N9    S    
C64   N14   S    
C56   N12   S    
C31   C36   A    
C34   C35   A    
O15   V3    S    
N15   H51   S    
N3    H15   S    
C59   H42   S    
C10   C75   S    
O7    V2    S    
C46   C47   A    
N4    H19   S    
C41   N7    S    
C14   H53   S    
C28   C35   A    
C63   C64   A    
C31   C32   A    
O4    V1    S    
C7    C8    A    
C55   C60   A    
C50   C51   A    
C18   N1    S    
O19   C76   A    
C70   C71   A    
C17   C22   A    
N13   H40   S    
C15   N16   S    
C71   C72   A    
C8    H2    S    
C71   H49   S    
C57   C66   S    
C21   H11   S    
N10   H34   S    
C60   C73   S    
N5    H20   S    
N2    H13   S    
