data_mof_unit_45217.cif
_audit_creation_date              2012-12-10T18:16:16-0500
_audit_creation_method            fapswitch 2.2
_symmetry_space_group_name_H-M    P1
_symmetry_Int_Tables_number       1
_space_group_crystal_system       triclinic
_cell_length_a                    15.868011
_cell_length_b                    14.657398
_cell_length_c                    10.630532
_cell_angle_alpha                 90.21683
_cell_angle_beta                  89.927285
_cell_angle_gamma                 90.194954
_cell_volume                      2472.45505702

loop_
_atom_site_label
_atom_site_type_symbol
_atom_type_description
_atom_site_fract_x
_atom_site_fract_y
_atom_site_fract_z
_atom_type_partial_charge
C1    C     C_R   0.339796 0.499869 0.499330 0.817507
C2    C     C_3   0.499463 0.499245 0.121994 0.022318
C3    C     C_3   0.049913 0.600707 0.525025 0.164649
C4    C     C_3   0.049109 0.438504 0.602380 0.086001
C5    C     C_3   0.951197 0.446723 0.611791 0.269251
C6    C     C_3   0.952694 0.603680 0.504971 0.313307
C7    C     C_1   0.749755 0.500965 0.499599 -0.217591
C8    C     C_3   0.082630 0.501525 0.494743 0.002209
C9    C     C_3   0.917591 0.503903 0.499088 0.008564
C10   C     C_3   0.949807 0.458991 0.375664 -0.720332
C11   C     C_3   0.048649 0.468130 0.362170 0.908716
C12   C     C_1   0.825278 0.502453 0.499279 0.032192
C13   C     C_1   0.174967 0.500468 0.496252 0.068723
C14   C     C_R   0.499704 0.499772 0.258561 0.786243
C15   C     C_1   0.250396 0.499743 0.497636 -0.215573
C16   C     C_3   0.592424 0.053538 0.497245 -0.354239
C17   C     C_3   0.592336 0.946934 0.497858 -0.357324
C18   C     C_3   0.452122 0.052813 0.389065 -0.357419
C19   C     C_3   0.452267 0.946191 0.388900 -0.357535
C20   C     C_3   0.501342 0.091841 0.503594 0.226618
C21   C     C_3   0.501217 0.908134 0.503657 0.230115
C22   C     C_3   0.458986 0.946860 0.624433 -0.361855
C23   C     C_3   0.459306 0.053538 0.624558 -0.356982
C24   C     C_1   0.501355 0.804950 0.503291 0.054334
C25   C     C_1   0.501443 0.195045 0.503246 0.060538
C26   C     C_R   0.660164 0.500193 0.499868 0.822444
C27   C     C_R   0.499641 0.500208 0.741139 0.781886
C28   C     C_3   0.429790 0.542059 0.042281 -0.169083
C29   C     C_3   0.500103 0.413069 0.039775 -0.131658
C30   C     C_3   0.430457 0.455986 0.957722 -0.170328
C31   C     C_3   0.499364 0.500644 0.877670 0.022594
C32   C     C_3   0.498683 0.586800 0.959877 -0.135161
C33   C     C_3   0.568980 0.457801 0.957381 -0.173133
C34   C     C_3   0.568337 0.543872 0.041875 -0.169286
Cu1   Cu    Cu3+1 0.499910 0.589920 0.499840 0.954059
Cu2   Cu    Cu3+1 0.499910 0.410080 0.499840 0.961974
H1    H     H_    0.918247 0.490387 0.293143 0.175075
H2    H     H_    0.929184 0.386641 0.379333 0.190661
H3    H     H_    0.385948 0.077681 0.391442 0.158155
H4    H     H_    0.386158 0.920625 0.390696 0.153103
H5    H     H_    0.480907 0.078014 0.300184 0.153338
H6    H     H_    0.481440 0.920951 0.300174 0.155024
H7    H     H_    0.629588 0.079324 0.578727 0.156285
H8    H     H_    0.628776 0.922360 0.580295 0.153819
H9    H     H_    0.498090 0.657944 0.924425 0.136012
H10   H     H_    0.625787 0.423494 0.919083 0.131175
H11   H     H_    0.624738 0.579663 0.079536 0.128176
H12   H     H_    0.922078 0.377261 0.604657 0.114780
H13   H     H_    0.941108 0.636014 0.411409 0.116745
N1    N     N_1   0.501390 0.724970 0.502570 -0.152298
N2    N     N_1   0.501390 0.275030 0.502570 -0.150565
O1    O     O_R   0.379360 0.575970 0.499860 -0.577612
O2    O     O_R   0.379360 0.424030 0.499860 -0.564703
O3    O     O_R   0.499910 0.575920 0.316720 -0.577489
O4    O     O_R   0.499910 0.424080 0.316720 -0.581504
O5    O     O_R   0.620490 0.575900 0.499870 -0.574228
O6    O     O_R   0.620490 0.424100 0.499870 -0.569805
O7    O     O_R   0.499950 0.575950 0.683010 -0.582046
O8    O     O_R   0.499950 0.424050 0.683010 -0.578045
H14   H     H_    0.374105 0.420127 0.919996 0.123760
H15   H     H_    0.624712 0.921247 0.411900 0.158365
H16   H     H_    0.624256 0.078329 0.410471 0.156920
H17   H     H_    0.493597 0.078980 0.708990 0.155441
H18   H     H_    0.492883 0.921817 0.709042 0.153920
H19   H     H_    0.393440 0.078742 0.631650 0.161131
H20   H     H_    0.392929 0.921627 0.631093 0.160112
H21   H     H_    0.372814 0.576305 0.080250 0.127851
H22   H     H_    0.500708 0.341920 0.075204 0.136210
O9    O     O_3   0.915300 0.653671 0.605577 -0.576777
C35   C     C_3   0.853413 0.715779 0.562976 0.085212
H23   H     H_    0.807561 0.725931 0.640793 0.173324
H24   H     H_    0.816524 0.689237 0.481481 0.123753
C36   C     C_3   0.893552 0.807985 0.531001 -0.376626
H25   H     H_    0.928501 0.834192 0.614177 0.224552
H26   H     H_    0.938611 0.799506 0.451829 0.225376
C37   C     C_3   0.826997 0.877684 0.493719 -0.935982
H27   H     H_    0.790770 0.853002 0.410888 0.254399
H28   H     H_    0.858116 0.943193 0.469029 0.258967
H29   H     H_    0.783104 0.890003 0.573360 0.251605
O10   O     O_3   0.927917 0.490372 0.726238 -0.577056
C38   C     C_3   0.921786 0.427915 0.827048 0.043218
H30   H     H_    0.945152 0.463143 0.912868 0.162217
H31   H     H_    0.961546 0.366041 0.814384 0.116683
C39   C     C_3   0.829698 0.400662 0.848032 -0.331779
H32   H     H_    0.790978 0.463054 0.861207 0.227777
H33   H     H_    0.805801 0.363329 0.764108 0.207588
C40   C     C_3   0.820360 0.340086 0.963758 -0.954111
H34   H     H_    0.858016 0.276842 0.952177 0.257612
H35   H     H_    0.753153 0.320848 0.976310 0.255620
H36   H     H_    0.841916 0.377064 0.049380 0.249953
H37   H     H_    0.061615 0.615331 0.626925 0.114522
H38   H     H_    0.076016 0.464321 0.693038 0.095559
O11   O     O_3   0.071113 0.346128 0.577931 -0.595880
C41   C     C_3   0.128874 0.312873 0.667750 0.080865
H39   H     H_    0.097024 0.305744 0.760407 0.122160
H40   H     H_    0.184244 0.359302 0.677509 0.144847
C42   C     C_3   0.160459 0.219384 0.625308 -0.308024
H41   H     H_    0.105885 0.172622 0.611738 0.211895
H42   H     H_    0.194144 0.226423 0.534122 0.224753
C43   C     C_3   0.220389 0.178200 0.721631 -0.956345
H43   H     H_    0.188312 0.170649 0.813970 0.256140
H44   H     H_    0.277011 0.222241 0.733113 0.259096
H45   H     H_    0.240787 0.109716 0.688892 0.251593
O12   O     O_3   0.088628 0.667411 0.446528 -0.578806
C44   C     C_3   0.154846 0.715154 0.507774 0.100407
H46   H     H_    0.202963 0.732056 0.435436 0.173386
H47   H     H_    0.187689 0.674095 0.580674 0.115840
C45   C     C_3   0.122133 0.803952 0.565639 -0.367734
H48   H     H_    0.089268 0.844280 0.492365 0.224321
H49   H     H_    0.076632 0.787820 0.641920 0.221409
C46   C     C_3   0.194016 0.861234 0.619964 -0.940175
H50   H     H_    0.227511 0.822717 0.694415 0.256553
H51   H     H_    0.168268 0.924829 0.661866 0.259604
H52   H     H_    0.239444 0.880037 0.544705 0.249627
O13   O     O_3   0.070976 0.539783 0.277183 -0.601694
C47   C     C_3   0.063337 0.520652 0.147461 0.082423
H53   H     H_    0.039056 0.583403 0.102029 0.160267
H54   H     H_    0.016387 0.467706 0.124149 0.090308
C48   C     C_3   0.150334 0.500765 0.091051 -0.297996
H55   H     H_    0.191323 0.561861 0.102804 0.215873
H56   H     H_    0.180746 0.443376 0.141113 0.234055
C49   C     C_3   0.144137 0.477282 0.951541 -1.005814
H57   H     H_    0.105387 0.414800 0.938317 0.241361
H58   H     H_    0.208090 0.464570 0.912895 0.252862
H59   H     H_    0.115254 0.534633 0.899125 0.264664
O14   O     O_3   0.092646 0.384975 0.332525 -0.590874
C50   C     C_3   0.052771 0.321117 0.250696 0.040190
H60   H     H_    0.094870 0.310067 0.168564 0.153662
H61   H     H_    0.991173 0.341965 0.211833 0.112397
C51   C     C_3   0.041944 0.229920 0.318251 -0.298405
H62   H     H_    0.104585 0.204760 0.348732 0.220861
H63   H     H_    0.001725 0.239269 0.402875 0.238766
C52   C     C_3   0.001246 0.158517 0.232694 -0.965001
H64   H     H_    0.937629 0.181281 0.202915 0.259118
H65   H     H_    0.994700 0.093151 0.284327 0.259468
H66   H     H_    0.040934 0.146798 0.148039 0.257863

loop_
_geom_bond_atom_site_label_1
_geom_bond_atom_site_label_2
_ccdc_geom_bond_type
C3    O12   S    
C6    O9    S    
C40   H34   S    
O14   C50   S    
C32   H9    S    
Cu1   Cu2   S    
C39   C40   S    
C4    C8    S    
C3    C6    S    
C38   C39   S    
C6    C9    S    
C50   H61   S    
C42   H41   S    
C47   H53   S    
C44   H47   S    
C8    C13   S    
C7    C26   S    
C10   H1    S    
C19   C21   S    
C39   H33   S    
C1    O1    A    
C30   C31   S    
C20   C25   S    
O13   C47   S    
C29   C33   S    
C45   H48   S    
C3    H37   S    
C18   C19   S    
C36   H25   S    
C1    O2    A    
C22   H20   S    
Cu2   O2    S    
C17   H15   S    
C46   H50   S    
C45   H49   S    
C16   C17   S    
C30   H14   S    
C52   H66   S    
C37   H29   S    
C35   H23   S    
C1    C15   S    
C11   O13   S    
C9    C10   S    
C19   H6    S    
Cu2   O8    S    
C23   H17   S    
C14   O4    A    
C21   C22   S    
Cu1   O3    S    
C33   H10   S    
C36   H26   S    
C41   H39   S    
C16   H16   S    
C35   C36   S    
C43   H44   S    
O12   C44   S    
C9    C12   S    
C38   H30   S    
C19   H4    S    
C48   H56   S    
C24   N1    T    
C7    C12   T    
C5    H12   S    
C27   C31   S    
C28   C32   S    
C11   O14   S    
C37   H27   S    
Cu2   O6    S    
C42   H42   S    
C18   H5    S    
O10   C38   S    
C41   C42   S    
C43   H45   S    
C17   C21   S    
C32   C34   S    
C51   H63   S    
C18   H3    S    
C25   N2    T    
C5    C9    S    
C29   C30   S    
C29   H22   S    
C31   C32   S    
C20   C23   S    
C16   C20   S    
C28   H21   S    
Cu1   N1    S    
C31   C33   S    
C33   C34   S    
C46   H51   S    
O11   C41   S    
C44   C45   S    
C39   H32   S    
C5    O10   S    
C41   H40   S    
C16   H7    S    
Cu2   N2    S    
C14   O3    A    
C3    C8    S    
Cu1   O7    S    
C52   H64   S    
C36   C37   S    
C40   H36   S    
C51   C52   S    
C49   H58   S    
C50   H60   S    
C42   C43   S    
C48   C49   S    
Cu1   O5    S    
C37   H28   S    
C4    C5    S    
C27   O7    A    
C26   O5    A    
C38   H31   S    
C35   H24   S    
C48   H55   S    
C45   C46   S    
C44   H46   S    
C47   C48   S    
C10   H2    S    
C23   H19   S    
C49   H59   S    
C13   C15   T    
C51   H62   S    
C17   H8    S    
Cu2   O4    S    
C27   O8    A    
C2    C34   S    
C8    C11   S    
C28   C30   S    
C43   H43   S    
C47   H54   S    
C46   H52   S    
C18   C20   S    
C6    H13   S    
O9    C35   S    
C2    C14   S    
C26   O6    A    
C50   C51   S    
C10   C11   S    
C22   H18   S    
C4    O11   S    
C2    C29   S    
C21   C24   S    
Cu1   O1    S    
C52   H65   S    
C40   H35   S    
C22   C23   S    
C2    C28   S    
C34   H11   S    
C49   H57   S    
C4    H38   S    
