data_mof_unit_29426.cif
_audit_creation_date              2013-03-05T15:40:33-0500
_audit_creation_method            fapswitch 2.2
_symmetry_space_group_name_H-M    P1
_symmetry_Int_Tables_number       1
_space_group_crystal_system       triclinic
_cell_length_a                    14.96594
_cell_length_b                    8.674714
_cell_length_c                    7.516454
_cell_angle_alpha                 103.397923
_cell_angle_beta                  93.986157
_cell_angle_gamma                 92.84039
_cell_volume                      944.801137027

loop_
_atom_site_label
_atom_site_type_symbol
_atom_site_description
_atom_site_fract_x
_atom_site_fract_y
_atom_site_fract_z
_atom_type_partial_charge
O1    O     O_R   0.506510 0.286130 0.619770 -0.576998
O2    O     O_R   0.493490 0.713870 0.380230 -0.576945
O3    O     O_R   0.489600 0.256770 0.308360 -0.574599
O4    O     O_R   0.510400 0.743230 0.691640 -0.574608
C1    C     C_R   0.497264 0.199829 0.453014 0.865626
C2    C     C_R   0.502736 0.800171 0.546986 0.865662
O5    O     O_R   0.378710 0.514640 0.655720 -0.528787
O6    O     O_R   0.621290 0.485360 0.344280 -0.528781
O7    O     O_R   0.361800 0.485290 0.344300 -0.564894
O8    O     O_R   0.638200 0.514710 0.655700 -0.564903
C3    C     C_R   0.329385 0.500724 0.502632 0.851165
C4    C     C_R   0.670615 0.499276 0.497368 0.851183
Cu1   Cu    Cu3+1 0.510010 0.517380 0.684380 1.133695
Cu2   Cu    Cu3+1 0.489990 0.482620 0.315620 1.133719
C5    C     C_R   0.819496 0.628899 0.594168 -0.203302
C6    C     C_R   0.180503 0.371102 0.405832 -0.203313
C7    C     C_R   0.766799 0.497202 0.492682 -0.066563
C8    C     C_R   0.233201 0.502799 0.507317 -0.066565
C9    C     C_R   0.805113 0.365673 0.387970 0.404105
C10   C     C_R   0.194887 0.634329 0.612027 0.404113
C11   C     C_R   0.899714 0.358750 0.402707 -0.106997
C12   C     C_R   0.100286 0.641252 0.597290 -0.107000
C13   C     C_R   0.952957 0.497890 0.498128 0.007042
C14   C     C_R   0.047043 0.502112 0.501870 0.007043
C15   C     C_R   0.912107 0.633040 0.591049 0.064720
C16   C     C_R   0.087892 0.366962 0.408950 0.064722
C17   C     C_R   0.943042 0.219128 0.327105 0.301426
C18   C     C_R   0.056958 0.780874 0.672892 0.301427
C19   C     C_R   0.036284 0.227481 0.324167 -0.137376
C20   C     C_R   0.963716 0.772521 0.675831 -0.137378
H1    H     H_    0.787685 0.730855 0.669879 0.179709
H2    H     H_    0.212315 0.269145 0.330122 0.179714
H3    H     H_    0.069193 0.121592 0.263538 0.210040
H4    H     H_    0.930807 0.878409 0.736460 0.210038
C21   C     C_2   0.496018 0.031372 0.427214 -0.274991
C22   C     C_2   0.503982 0.968627 0.572786 -0.275027
H5    H     H_    0.488559 0.958749 0.287468 0.201819
H6    H     H_    0.511441 0.041250 0.712532 0.201796
N1    N     N_2   0.474890 0.456420 0.038520 0.014600
N2    N     N_2   0.525110 0.543580 0.961480 0.014604
O9    O     O_3   0.748565 0.249945 0.270583 -0.660854
H7    H     H_    0.778464 0.214271 0.155976 0.361078
O10   O     O_3   0.251435 0.750059 0.729411 -0.660841
H8    H     H_    0.221537 0.785734 0.844019 0.361086
N3    N     N_R   0.895519 0.065379 0.270454 0.131788
O11   O     O_R   0.840717 0.019283 0.377907 -0.303459
O12   O     O_R   0.919045 0.961324 0.130105 -0.343442
N4    N     N_R   0.104481 0.934623 0.729541 0.131789
O13   O     O_R   0.080955 0.038679 0.869891 -0.343438
O14   O     O_R   0.159282 0.980719 0.622087 -0.303466
N5    N     N_R   0.388431 0.418801 0.956291 0.261527
O15   O     O_R   0.363201 0.271270 0.879986 -0.325755
O16   O     O_R   0.327630 0.520892 0.995071 -0.320350
N6    N     N_R   0.611561 0.581249 0.043747 0.261526
O17   O     O_R   0.636739 0.728780 0.120204 -0.325780
O18   O     O_R   0.672401 0.479234 0.004926 -0.320351

loop_
_geom_bond_atom_site_label_1
_geom_bond_atom_site_label_2
_geom_bond_distance
_ccdc_geom_bond_type
C4    C7    1.443269 S    
N1    N5    1.384290 S    
C13   C14   1.404889 A    
C3    C8    1.443269 S    
C5    H1    1.085768 S    
C9    C11   1.417767 A    
C17   C19   1.395728 A    
O9    H7    0.990872 S    
C8    C10   1.400528 A    
C21   C22   1.331166 D    
O5    Cu1   1.960217 S    
O6    C4    1.300870 A    
C17   N3    1.437592 S    
C18   C20   1.395727 A    
C11   C17   1.421433 A    
C6    C8    1.390046 A    
C12   C18   1.421434 A    
Cu1   Cu2   2.711394 S    
C22   H6    1.087536 S    
O5    C3    1.300871 A    
O7    C3    1.297094 A    
C14   C16   1.409608 A    
O2    C2    1.296692 A    
O3    Cu2   1.946970 S    
O8    C4    1.297095 A    
O1    C1    1.296692 A    
C1    C21   1.427888 S    
N4    O14   1.301597 A    
N4    O13   1.301335 A    
C7    C9    1.400528 A    
C2    C22   1.427887 S    
N2    N6    1.384325 S    
N3    O12   1.301334 A    
O10   H8    0.990872 S    
C6    C16   1.386664 A    
O2    Cu2   1.948670 S    
C12   C14   1.424865 A    
C5    C15   1.386665 A    
C6    H2    1.085769 S    
C20   H4    1.084449 S    
N5    O16   1.301688 A    
N5    O15   1.300476 A    
N1    N2    1.295748 D    
C19   H3    1.084450 S    
O4    Cu1   1.946970 S    
C10   O10   1.379866 S    
O1    Cu1   1.948670 S    
C16   C19   1.395806 A    
O4    C2    1.294793 A    
C13   C15   1.409608 A    
C15   C20   1.395806 A    
C5    C7    1.390046 A    
O7    Cu2   1.946066 S    
N6    O17   1.300525 A    
C18   N4    1.437592 S    
Cu1   N2    2.037379 S    
O6    Cu2   1.960217 S    
C21   H5    1.087536 S    
Cu2   N1    2.037379 S    
N3    O11   1.301597 A    
C11   C13   1.424865 A    
C9    O9    1.379867 S    
C10   C12   1.417769 A    
N6    O18   1.301722 A    
O3    C1    1.294793 A    
O8    Cu1   1.946066 S    
