data_mof_unit_44345.cif
_audit_creation_date              2012-12-11T14:41:02-0500
_audit_creation_method            fapswitch 2.2
_symmetry_space_group_name_H-M    P1
_symmetry_Int_Tables_number       1
_space_group_crystal_system       triclinic
_cell_length_a                    6.926186
_cell_length_b                    17.680825
_cell_length_c                    19.068866
_cell_angle_alpha                 90.000338
_cell_angle_beta                  90.001209
_cell_angle_gamma                 89.992803
_cell_volume                      2335.18632747

loop_
_atom_site_label
_atom_site_type_symbol
_atom_type_description
_atom_site_fract_x
_atom_site_fract_y
_atom_site_fract_z
_atom_type_partial_charge
O1    O     O_R   0.377350 0.828520 0.186660 -0.532354
O2    O     O_R   0.622650 0.171480 0.813340 -0.532820
O3    O     O_R   0.122650 0.171480 0.686660 -0.532359
O4    O     O_R   0.877350 0.828520 0.313340 -0.532820
O5    O     O_R   0.877350 0.671480 0.313340 -0.521719
O6    O     O_R   0.122650 0.328520 0.686660 -0.526882
O7    O     O_R   0.622650 0.328520 0.813340 -0.521698
O8    O     O_R   0.377350 0.671480 0.186660 -0.526864
O9    O     O_R   0.707090 0.671930 0.178410 -0.531763
O10   O     O_R   0.292910 0.328070 0.821590 -0.529146
O11   O     O_R   0.792910 0.328070 0.678410 -0.531738
O12   O     O_R   0.207090 0.671930 0.321590 -0.529123
O13   O     O_R   0.207090 0.828070 0.321590 -0.546022
O14   O     O_R   0.792910 0.171930 0.678410 -0.551138
O15   O     O_R   0.292910 0.171930 0.821590 -0.546017
O16   O     O_R   0.707090 0.828070 0.178410 -0.551130
C1    C     C_R   0.538429 0.646050 0.161389 0.811288
C2    C     C_R   0.461536 0.353729 0.838836 0.806451
C3    C     C_R   0.961569 0.353948 0.661388 0.811250
C4    C     C_R   0.038466 0.646270 0.338836 0.806396
C5    C     C_R   0.038236 0.855039 0.338033 0.764469
C6    C     C_R   0.961777 0.144969 0.661927 0.766967
C7    C     C_R   0.461765 0.144963 0.838035 0.764426
C8    C     C_R   0.538219 0.855032 0.161928 0.766940
O17   O     O_3   0.543850 0.750000 0.294270 -0.371116
O18   O     O_3   0.456150 0.250000 0.705730 -0.378371
O19   O     O_3   0.956150 0.250000 0.794270 -0.371116
O20   O     O_3   0.043850 0.750000 0.205730 -0.378373
V1    V     V_3+5 0.818700 0.750000 0.241790 1.521412
V2    V     V_3+5 0.181300 0.250000 0.758210 1.530035
V3    V     V_3+5 0.681300 0.250000 0.741790 1.521455
V4    V     V_3+5 0.318700 0.750000 0.258210 1.530056
C9    C     C_R   0.969098 0.417648 0.610341 -0.051614
C10   C     C_R   0.031589 0.582947 0.390292 -0.110516
C11   C     C_R   0.530895 0.582350 0.110343 -0.051610
C12   C     C_R   0.468414 0.417053 0.890292 -0.110516
C13   C     C_R   0.467687 0.079833 0.888416 -0.047107
C14   C     C_R   0.532223 0.920222 0.111525 -0.103385
C15   C     C_R   0.032312 0.920173 0.388410 -0.047102
C16   C     C_R   0.967756 0.079785 0.611519 -0.103306
C17   C     C_R   0.070907 0.448853 0.418245 -0.111035
C18   C     C_R   0.935445 0.552037 0.583041 -0.091490
C19   C     C_R   0.428982 0.551138 0.918255 -0.111037
C20   C     C_R   0.564618 0.447965 0.083038 -0.091537
C21   C     C_R   0.666986 0.039737 0.067890 -0.096448
C22   C     C_R   0.332313 0.960743 0.932104 -0.095393
C23   C     C_R   0.832849 0.960309 0.567851 -0.096303
C24   C     C_R   0.167714 0.039254 0.432109 -0.095417
C25   C     C_R   0.049552 0.507069 0.367481 -0.052906
C26   C     C_R   0.952661 0.493494 0.633498 -0.106540
C27   C     C_R   0.450385 0.492930 0.867487 -0.052822
C28   C     C_R   0.547384 0.506504 0.133499 -0.106500
C29   C     C_R   0.665734 0.980684 0.118343 -0.095444
C30   C     C_R   0.333768 0.019546 0.881750 -0.131581
C31   C     C_R   0.834193 0.019339 0.618323 -0.095512
C32   C     C_R   0.166255 0.980452 0.381754 -0.131539
C33   C     C_R   0.023912 0.598733 0.463032 0.110132
C34   C     C_R   0.977732 0.402203 0.537577 0.027619
C35   C     C_R   0.476124 0.401265 0.963032 0.110166
C36   C     C_R   0.522218 0.597795 0.037581 0.027593
C37   C     C_R   0.394902 0.923035 0.056346 0.105398
C38   C     C_R   0.605142 0.076909 0.943572 0.040560
C39   C     C_R   0.105088 0.076965 0.556346 0.105383
C40   C     C_R   0.894808 0.923114 0.443548 0.040553
C41   C     C_R   0.989519 0.538546 0.511849 0.128998
C42   C     C_R   0.012852 0.462435 0.488937 0.019511
C43   C     C_R   0.510501 0.461452 0.011850 0.129024
C44   C     C_R   0.487102 0.537561 0.988942 0.019533
C45   C     C_R   0.430674 0.970516 0.997099 0.106306
C46   C     C_R   0.569797 0.029248 0.002792 0.005189
C47   C     C_R   0.069311 0.029489 0.497094 0.106343
C48   C     C_R   0.930132 0.970776 0.502770 0.005257
C49   C     C_3   0.926402 0.322850 0.513376 -0.755211
H1    H     H_    0.792630 0.303534 0.539990 0.200689
H2    H     H_    0.892902 0.319930 0.456625 0.238557
H3    H     H_    0.044802 0.283012 0.526516 0.206077
C50   C     C_3   0.074124 0.678338 0.486889 -0.713512
H4    H     H_    0.203332 0.699085 0.458319 0.193551
H5    H     H_    0.952181 0.717376 0.476197 0.201229
H6    H     H_    0.115510 0.680929 0.542948 0.215969
C51   C     C_3   0.573514 0.677148 0.013377 -0.755221
H7    H     H_    0.707321 0.696461 0.039972 0.200712
H8    H     H_    0.606927 0.680073 0.956620 0.238539
H9    H     H_    0.455133 0.716986 0.026540 0.206050
C52   C     C_3   0.425961 0.321654 0.986888 -0.713597
H10   H     H_    0.296750 0.300900 0.958322 0.193531
H11   H     H_    0.547919 0.282627 0.976187 0.201214
H12   H     H_    0.384609 0.319059 0.042949 0.215972
C53   C     C_3   0.798070 0.116526 0.934388 -0.726372
H13   H     H_    0.859520 0.102583 0.882238 0.231022
H14   H     H_    0.780921 0.178704 0.939396 0.199652
H15   H     H_    0.909177 0.096311 0.971781 0.198370
C54   C     C_3   0.201842 0.883567 0.065634 -0.669488
H16   H     H_    0.218603 0.821364 0.060797 0.209583
H17   H     H_    0.140785 0.897564 0.117811 0.209047
H18   H     H_    0.090595 0.903824 0.028341 0.174026
C55   C     C_3   0.701861 0.883516 0.434340 -0.726143
H19   H     H_    0.640505 0.897427 0.382167 0.230991
H20   H     H_    0.718947 0.821340 0.439397 0.199669
H21   H     H_    0.590699 0.903783 0.471684 0.198500
C56   C     C_3   0.298164 0.116417 0.565648 -0.669392
H22   H     H_    0.281437 0.178621 0.560809 0.209557
H23   H     H_    0.359194 0.102418 0.617830 0.209074
H24   H     H_    0.409417 0.096149 0.528364 0.174033
C57   C     C_2   0.946735 0.512983 0.709814 0.381095
H25   H     H_    0.991689 0.568623 0.727196 0.078024
O21   O     O_2   0.893460 0.467896 0.754237 -0.526421
C58   C     C_2   0.045643 0.487326 0.291363 0.471695
H26   H     H_    0.990047 0.432723 0.275049 0.094201
O22   O     O_2   0.103412 0.530740 0.246240 -0.536928
C59   C     C_2   0.553341 0.487013 0.209815 0.381063
H27   H     H_    0.508483 0.431361 0.227193 0.077927
O23   O     O_2   0.606523 0.532113 0.254242 -0.526465
C60   C     C_2   0.454292 0.512687 0.791371 0.471681
H28   H     H_    0.509686 0.567327 0.775074 0.094161
O24   O     O_2   0.396750 0.469247 0.746231 -0.536931
C61   C     C_2   0.206491 0.013125 0.819095 0.387914
H29   H     H_    0.060781 0.991652 0.824776 0.079809
O25   O     O_2   0.264755 0.029356 0.760605 -0.527757
C62   C     C_2   0.794030 0.985585 0.180671 0.464360
H30   H     H_    0.943540 0.002240 0.174300 0.127001
O26   O     O_2   0.733088 0.972675 0.239520 -0.537761
C63   C     C_2   0.293538 0.986869 0.319102 0.387934
H31   H     H_    0.439255 0.008334 0.324787 0.079777
O27   O     O_2   0.235268 0.970645 0.260610 -0.527749
C64   C     C_2   0.705990 0.014420 0.680673 0.463897
H32   H     H_    0.556448 0.997803 0.674327 0.127251
O28   O     O_2   0.767038 0.027291 0.739517 -0.537805
C65   C     C_2   0.191719 0.380654 0.402065 0.402346
H33   H     H_    0.251128 0.347226 0.444551 0.099406
O29   O     O_2   0.234450 0.362440 0.342331 -0.530321
C66   C     C_2   0.826401 0.621561 0.602973 0.388483
H34   H     H_    0.842365 0.647005 0.654292 0.049123
O30   O     O_2   0.709761 0.649465 0.562496 -0.512831
C67   C     C_2   0.308054 0.619311 0.902091 0.402234
H35   H     H_    0.248823 0.652777 0.944581 0.099451
O31   O     O_2   0.264976 0.637446 0.842368 -0.530421
C68   C     C_2   0.673727 0.378452 0.102960 0.388511
H36   H     H_    0.657818 0.353005 0.154280 0.049220
O32   O     O_2   0.790355 0.350562 0.062474 -0.512829
C69   C     C_2   0.735624 0.117328 0.087221 0.398529
H37   H     H_    0.669525 0.166232 0.062579 0.085762
O33   O     O_2   0.864992 0.128160 0.129456 -0.520854
C70   C     C_2   0.255127 0.885284 0.911045 0.413856
H38   H     H_    0.126899 0.880412 0.878823 0.051178
O34   O     O_2   0.339719 0.827396 0.927648 -0.522703
C71   C     C_2   0.763964 0.882749 0.587150 0.398436
H39   H     H_    0.830396 0.833816 0.562675 0.085786
O35   O     O_2   0.633914 0.871988 0.629123 -0.520980
C72   C     C_2   0.244945 0.114708 0.411058 0.413939
H40   H     H_    0.373199 0.119570 0.378851 0.051201
O36   O     O_2   0.160365 0.172600 0.427652 -0.522656

loop_
_geom_bond_atom_site_label_1
_geom_bond_atom_site_label_2
_ccdc_geom_bond_type
C50   H4    S    
C56   H22   S    
C24   C72   S    
C49   H1    S    
O13   V4    S    
C71   H39   S    
O14   V3    S    
C39   C56   S    
C12   C35   A    
C51   H9    S    
C13   C38   A    
C29   C62   S    
C63   H31   S    
O5    C4    A    
C52   H10   S    
O6    C3    A    
C57   O21   D    
O11   C3    A    
C9    C34   A    
C16   C39   A    
O20   V1    S    
C71   O35   D    
C69   O33   D    
C37   C54   S    
C63   O27   D    
C38   C53   S    
C58   H26   S    
C38   C46   A    
C67   O31   D    
C22   C45   A    
C35   C43   A    
C34   C42   A    
C59   H27   S    
C19   C44   A    
C10   C33   A    
C8    C14   S    
C31   C64   S    
C53   H14   S    
O4    V1    S    
O9    V1    S    
C14   C37   A    
C4    C10   S    
C20   C28   A    
O17   V4    S    
O15   C7    A    
O11   V3    S    
O18   V3    S    
O16   C8    A    
O12   V4    S    
O19   V2    S    
C21   C69   S    
C49   H2    S    
O12   C4    A    
C17   C25   A    
C51   H8    S    
C62   O26   D    
C55   H19   S    
C25   C58   S    
O5    V1    S    
C52   H11   S    
O17   V1    S    
C23   C71   S    
C27   C60   S    
O7    V3    S    
O19   V3    S    
C43   C44   A    
O8    V4    S    
C32   C63   S    
C33   C50   S    
C67   H35   S    
C70   O34   D    
C55   H20   S    
C66   H34   S    
C22   C70   S    
C28   C59   S    
O16   V1    S    
C7    C13   S    
O1    V4    S    
C51   H7    S    
O2    V3    S    
O3    V2    S    
C35   C52   S    
C15   C40   A    
C18   C41   A    
C36   C51   S    
O10   V2    S    
C15   C32   A    
C5    C15   S    
C26   C57   S    
O20   V4    S    
O7    C2    A    
C6    C16   S    
C22   C30   A    
C50   H5    S    
O13   C5    A    
C59   O23   D    
C54   H16   S    
C53   H15   S    
C19   C67   S    
C12   C27   A    
C68   O32   D    
C18   C26   A    
C66   O30   D    
C13   C30   A    
O9    C1    A    
C40   C55   S    
O6    V2    S    
C39   C47   A    
O18   V2    S    
C54   H18   S    
C3    C9    S    
C49   H3    S    
C72   O36   D    
C24   C47   A    
O2    C7    A    
C55   H21   S    
C62   H30   S    
O15   V2    S    
C23   C31   A    
C65   H33   S    
C52   H12   S    
C37   C45   A    
C24   C32   A    
C10   C25   A    
C64   O28   D    
C21   C46   A    
C33   C41   A    
C70   H38   S    
C20   C43   A    
C16   C31   A    
C60   O24   D    
C60   H28   S    
C17   C42   A    
C56   H24   S    
C57   H25   S    
O8    C1    A    
O14   C6    A    
C61   O25   D    
C9    C26   A    
C47   C48   A    
C61   H29   S    
C17   C65   S    
O4    C5    A    
C50   H6    S    
C19   C27   A    
C54   H17   S    
C14   C29   A    
O10   C2    A    
C64   H32   S    
C20   C68   S    
C58   O22   D    
C40   C48   A    
C45   C46   A    
C23   C48   A    
C68   H36   S    
C21   C29   A    
C36   C44   A    
O1    C8    A    
C56   H23   S    
C41   C42   A    
C30   C61   S    
C11   C28   A    
C72   H40   S    
C11   C36   A    
O3    C6    A    
C18   C66   S    
C1    C11   S    
C53   H13   S    
C69   H37   S    
C2    C12   S    
C34   C49   S    
C65   O29   D    
