data_mof_unit_40602.cif
_audit_creation_date              2012-12-10T18:16:23-0500
_audit_creation_method            fapswitch 2.2
_symmetry_space_group_name_H-M    P1
_symmetry_Int_Tables_number       1
_space_group_crystal_system       triclinic
_cell_length_a                    12.61605
_cell_length_b                    13.091029
_cell_length_c                    27.657148
_cell_angle_alpha                 91.280391
_cell_angle_beta                  102.210844
_cell_angle_gamma                 82.679401
_cell_volume                      4427.99093309

loop_
_atom_site_label
_atom_site_type_symbol
_atom_type_description
_atom_site_fract_x
_atom_site_fract_y
_atom_site_fract_z
_atom_type_partial_charge
C1    C     C_R   0.439399 0.690637 0.490446 0.841518
C2    C     C_R   0.547603 0.557721 0.729780 -0.307935
C3    C     C_R   0.504840 0.475304 0.747007 0.168190
C4    C     C_R   0.465710 0.478911 0.894449 -0.136474
C5    C     C_R   0.414286 0.561218 0.862248 -0.088019
C6    C     C_R   0.352978 0.645815 0.880283 0.503838
C7    C     C_R   0.528692 0.395165 0.876874 -0.008578
C8    C     C_R   0.504579 0.492623 0.646514 -0.180862
C9    C     C_R   0.493012 0.504119 0.353126 -0.131943
C10   C     C_R   0.408927 0.577194 0.015189 0.007354
C11   C     C_R   0.483450 0.394031 0.024296 0.058997
C12   C     C_R   0.500788 0.499918 0.593708 0.920460
C13   C     C_R   0.445235 0.488041 0.045042 0.072687
C14   C     C_R   0.382255 0.671484 0.038139 -0.319690
C15   C     C_R   0.387007 0.677779 0.088965 0.509919
C16   C     C_R   0.420699 0.588562 0.118701 -0.141256
C17   C     C_R   0.445848 0.493158 0.096252 -0.119957
C18   C     C_R   0.473566 0.402723 0.125169 0.011248
C19   C     C_R   0.475367 0.408725 0.175780 0.507064
C20   C     C_R   0.432492 0.591621 0.170495 0.537849
C21   C     C_R   0.386665 0.553581 0.271719 -0.104545
C22   C     C_R   0.398062 0.554001 0.322775 -0.300783
C23   C     C_R   0.560878 0.307858 0.506226 0.903399
C24   C     C_R   0.576443 0.452100 0.331982 0.474269
C25   C     C_R   0.568357 0.459808 0.280933 -0.204729
C26   C     C_R   0.472025 0.506961 0.250518 0.236179
C27   C     C_R   0.404024 0.570028 0.963606 0.030306
C28   C     C_R   0.455725 0.480644 0.944446 0.076206
C29   C     C_R   0.499084 0.393456 0.975147 0.060987
C30   C     C_R   0.349452 0.649596 0.930614 -0.335688
C31   C     C_R   0.575888 0.311687 0.908088 -0.141239
C32   C     C_R   0.506048 0.304025 0.053702 -0.224670
C33   C     C_R   0.499796 0.308292 0.103178 -0.138213
C34   C     C_R   0.498870 0.500232 0.406242 0.880639
C35   C     C_R   0.559979 0.309929 0.956155 -0.216565
C36   C     C_R   0.718248 0.054838 0.480585 -0.370341
C37   C     C_R   0.596637 0.196582 0.504247 -0.298684
C38   C     C_R   0.291842 0.837243 0.477835 -0.229542
C39   C     C_R   0.255323 0.940677 0.468052 -0.329189
C40   C     C_R   0.329582 0.009035 0.463150 0.527120
C41   C     C_R   0.442283 0.971469 0.469394 0.069788
C42   C     C_R   0.471683 0.864849 0.466223 -0.012771
C43   C     C_R   0.527914 0.034344 0.479270 -0.023377
C44   C     C_R   0.632182 0.994932 0.470854 0.036260
C45   C     C_R   0.425691 0.555598 0.812666 0.565268
C46   C     C_R   0.650344 0.894243 0.454097 -0.208552
C47   C     C_R   0.571555 0.828906 0.452677 -0.177467
C48   C     C_R   0.516193 0.130747 0.501922 0.403701
C49   C     C_R   0.702325 0.157465 0.497373 0.454330
C50   C     C_R   0.400399 0.798379 0.477156 -0.123818
C51   C     C_R   0.079364 0.374878 0.417998 0.380831
C52   C     C_R   0.802542 0.626502 0.561273 0.633008
C53   C     C_R   0.911167 0.645055 0.577063 -0.335869
C54   C     C_R   0.991075 0.595909 0.554242 -0.260640
C55   C     C_R   0.964194 0.525657 0.515663 0.055715
C56   C     C_R   0.544655 0.397521 0.828466 0.569665
C57   C     C_R   0.854076 0.505374 0.502134 0.105338
C58   C     C_R   0.041878 0.476034 0.489639 -0.045140
C59   C     C_R   0.006113 0.414999 0.447638 0.011402
C60   C     C_R   0.897873 0.394974 0.435964 -0.226377
C61   C     C_R   0.824947 0.434993 0.464540 -0.086416
C62   C     C_R   0.153504 0.487416 0.502552 -0.092973
C63   C     C_R   0.188283 0.391224 0.432520 -0.040239
C64   C     C_R   0.467466 0.397411 0.714422 0.549448
C65   C     C_R   0.466329 0.407949 0.663996 -0.444065
C66   C     C_R   0.543860 0.569210 0.679319 0.491217
H1    H     H_    0.624974 0.246745 0.895392 0.182543
H2    H     H_    0.526517 0.228746 0.039025 0.145201
H3    H     H_    0.518765 0.237382 0.124467 0.188055
H4    H     H_    0.634775 0.424554 0.264558 0.160390
H5    H     H_    0.600811 0.244144 0.978455 0.143228
H6    H     H_    0.728029 0.863933 0.445285 0.147366
H7    H     H_    0.796517 0.019492 0.474625 0.161084
H8    H     H_    0.578526 0.616047 0.755453 0.173179
H9    H     H_    0.234428 0.787381 0.484817 0.183761
H10   H     H_    0.169376 0.967623 0.464667 0.143092
H11   H     H_    0.589704 0.750585 0.440798 0.179618
H12   H     H_    0.245654 0.364376 0.409559 0.164929
H13   H     H_    0.869991 0.344931 0.405738 0.194204
H14   H     H_    0.188362 0.530717 0.534144 0.147859
H15   H     H_    0.072517 0.615710 0.567302 0.163882
H16   H     H_    0.934694 0.696556 0.607292 0.165362
H17   H     H_    0.746293 0.409154 0.456600 0.249104
H18   H     H_    0.331806 0.591689 0.338620 0.182526
H19   H     H_    0.311146 0.588859 0.248629 0.163245
H20   H     H_    0.362339 0.743280 0.017889 0.162994
H21   H     H_    0.300379 0.714454 0.942961 0.137760
H22   H     H_    0.434555 0.350964 0.638066 0.168350
N1    N     N_R   0.491689 0.475797 0.797231 -0.333893
N2    N     N_R   0.459068 0.502476 0.197740 -0.343361
N3    N     N_R   0.222180 0.444690 0.474320 -0.129646
N4    N     N_R   0.776980 0.554780 0.525420 -0.173636
O1    O     O_R   0.366730 0.627160 0.487740 -0.615662
O2    O     O_2   0.419911 0.682705 0.193714 -0.522175
O3    O     O_2   0.613568 0.322894 0.812854 -0.586457
O4    O     O_2   0.493825 0.321412 0.203000 -0.588595
O5    O     O_R   0.544830 0.662520 0.504140 -0.610254
O6    O     O_R   0.410970 0.482310 0.563040 -0.638334
O7    O     O_R   0.589070 0.517670 0.579450 -0.531692
O8    O     O_R   0.455170 0.337480 0.495860 -0.550234
O9    O     O_R   0.633270 0.372840 0.512260 -0.593299
O10   O     O_R   0.410930 0.482330 0.420550 -0.633486
O11   O     O_R   0.589030 0.517690 0.436960 -0.626069
O12   O     O_2   0.371444 0.628923 0.779862 -0.499571
Zn1   Zn    Zn3+2 0.381080 0.476390 0.489050 0.954475
Zn2   Zn    Zn3+2 0.618920 0.523610 0.510950 0.993787
O13   O     O_3   0.578416 0.654952 0.661980 -0.611587
C67   C     C_3   0.502815 0.743442 0.665402 0.063798
H23   H     H_    0.548089 0.811437 0.669429 0.171710
H24   H     H_    0.465385 0.743768 0.698511 0.160891
C68   C     C_3   0.413169 0.756629 0.618291 -0.336095
H25   H     H_    0.451732 0.754866 0.585789 0.227521
H26   H     H_    0.362459 0.692396 0.615155 0.212116
C69   C     C_3   0.339695 0.858488 0.618259 -0.979595
H27   H     H_    0.300100 0.862623 0.650620 0.283312
H28   H     H_    0.275121 0.865440 0.583907 0.271714
H29   H     H_    0.388715 0.923429 0.619633 0.248521
O14   O     O_3   0.423081 0.317552 0.731938 -0.628147
C70   C     C_3   0.475652 0.221372 0.719694 0.107050
H30   H     H_    0.566353 0.219658 0.728052 0.172770
H31   H     H_    0.447386 0.204902 0.679935 0.114920
C71   C     C_3   0.446425 0.136359 0.749592 -0.283108
H32   H     H_    0.474634 0.150805 0.789741 0.243700
H33   H     H_    0.356187 0.137090 0.741595 0.227474
C72   C     C_3   0.499344 0.030530 0.736773 -0.986774
H34   H     H_    0.471673 0.014264 0.696831 0.251444
H35   H     H_    0.475688 0.970272 0.758588 0.281666
H36   H     H_    0.589818 0.027086 0.745642 0.274572
O15   O     O_3   0.662941 0.391087 0.361289 -0.667049
C73   C     C_3   0.658553 0.285650 0.348798 0.041221
H37   H     H_    0.736180 0.241507 0.368418 0.149331
H38   H     H_    0.654567 0.271305 0.308683 0.169061
C74   C     C_3   0.563817 0.243146 0.365434 -0.357831
H39   H     H_    0.570132 0.257449 0.405509 0.217159
H40   H     H_    0.484182 0.282884 0.345257 0.222645
C75   C     C_3   0.565735 0.127907 0.355521 -0.881129
H41   H     H_    0.553491 0.113003 0.315150 0.273242
H42   H     H_    0.498930 0.098849 0.369588 0.276397
H43   H     H_    0.645026 0.085549 0.374444 0.260031
O16   O     O_3   0.784044 0.222793 0.507783 -0.627710
C76   C     C_3   0.890887 0.177034 0.505773 0.089527
H44   H     H_    0.942403 0.240041 0.506874 0.157275
H45   H     H_    0.893966 0.138758 0.469718 0.115383
C77   C     C_3   0.942647 0.108205 0.551160 -0.340078
H46   H     H_    0.969040 0.157799 0.583509 0.222016
H47   H     H_    0.883188 0.060785 0.560893 0.228865
C78   C     C_3   0.041155 0.036512 0.541730 -1.005796
H48   H     H_    0.013994 0.977854 0.513763 0.261566
H49   H     H_    0.085176 0.996526 0.576566 0.279539
H50   H     H_    0.097645 0.081152 0.527848 0.263230
O17   O     O_3   0.423116 0.164057 0.519705 -0.544182
C79   C     C_3   0.437151 0.134082 0.569481 0.102659
H51   H     H_    0.482539 0.189724 0.593890 0.113439
H52   H     H_    0.482483 0.055407 0.576767 0.075912
C80   C     C_3   0.324687 0.131967 0.581876 -0.374138
H53   H     H_    0.286153 0.067689 0.561460 0.219688
H54   H     H_    0.334625 0.116227 0.621930 0.173799
C81   C     C_3   0.248433 0.232357 0.568314 -0.720785
H55   H     H_    0.287169 0.299327 0.585479 0.252179
H56   H     H_    0.171926 0.229356 0.581722 0.222541
H57   H     H_    0.226670 0.243353 0.527567 0.275001
O18   O     O_3   0.292433 0.109147 0.447809 -0.748657
H58   H     H_    0.215552 0.125116 0.451205 0.313090
O19   O     O_3   0.042156 0.338114 0.370916 -0.634721
C82   C     C_3   0.034695 0.231348 0.372033 0.055226
H59   H     H_    0.949936 0.219282 0.353739 0.154981
H60   H     H_    0.049560 0.197712 0.409952 0.089709
C83   C     C_3   0.113005 0.174376 0.342262 -0.305326
H61   H     H_    0.095335 0.207794 0.304374 0.232363
H62   H     H_    0.198490 0.184663 0.360038 0.248925
C84   C     C_3   0.101279 0.059740 0.338314 -0.928813
H63   H     H_    0.116387 0.024505 0.375623 0.265649
H64   H     H_    0.161578 0.020318 0.317890 0.274019
H65   H     H_    0.017789 0.048242 0.318013 0.257866
O20   O     O_3   0.722562 0.672951 0.584881 -0.582020
C85   C     C_3   0.709415 0.781784 0.579557 0.118954
H66   H     H_    0.620414 0.807389 0.567964 0.184488
H67   H     H_    0.747669 0.809606 0.550242 0.101744
C86   C     C_3   0.752780 0.833300 0.628963 -0.347036
H68   H     H_    0.734364 0.791148 0.659980 0.266631
H69   H     H_    0.842663 0.831645 0.635153 0.202671
C87   C     C_3   0.702519 0.945534 0.629820 -0.997310
H70   H     H_    0.714156 0.988192 0.597417 0.266533
H71   H     H_    0.742125 0.982828 0.664203 0.276017
H72   H     H_    0.614032 0.949443 0.629383 0.251263
O21   O     O_3   0.298755 0.725108 0.848734 -0.704320
H73   H     H_    0.260713 0.778230 0.867371 0.323511
O22   O     O_3   0.364313 0.773257 0.109502 -0.592463
C88   C     C_3   0.249807 0.797320 0.102925 0.103152
H74   H     H_    0.213900 0.735431 0.118725 0.139732
H75   H     H_    0.211398 0.807495 0.062887 0.120277
C89   C     C_3   0.224597 0.897915 0.129726 -0.279977
H76   H     H_    0.263186 0.888960 0.169691 0.251727
H77   H     H_    0.259512 0.960538 0.114279 0.225571
C90   C     C_3   0.101698 0.927871 0.124201 -0.970935
H78   H     H_    0.061593 0.938956 0.084537 0.266924
H79   H     H_    0.086289 0.001136 0.144045 0.273037
H80   H     H_    0.065393 0.867143 0.140274 0.269415

loop_
_geom_bond_atom_site_label_1
_geom_bond_atom_site_label_2
_ccdc_geom_bond_type
C10   C27   A    
C58   C62   A    
C56   O3    S    
C84   H63   S    
C60   H13   S    
C8    C66   A    
C82   H59   S    
C57   N4    A    
C80   H54   S    
C41   C42   A    
N3    Zn1   S    
C78   H48   S    
C66   O13   S    
C21   C26   A    
C69   H27   S    
C23   O9    A    
C3    C64   A    
C31   H1    S    
C84   H64   S    
O8    Zn1   S    
C34   O10   A    
O6    Zn1   S    
C60   C61   A    
C62   H14   S    
C28   C29   A    
C78   H49   S    
O15   C73   S    
C77   C78   S    
C56   N1    A    
C5    C6    A    
C9    C22   A    
C6    O21   S    
C15   C16   A    
C64   O14   S    
C67   H23   S    
O10   Zn1   S    
C18   C19   A    
C88   H75   S    
O14   C70   S    
C12   O7    A    
C81   H57   S    
O1    Zn1   S    
C87   H70   S    
C24   O15   S    
C85   C86   S    
C68   H25   S    
C16   C17   A    
C72   H36   S    
O17   C79   S    
C85   H66   S    
C89   H76   S    
C68   C69   S    
C45   N1    A    
C43   C48   A    
C12   O6    A    
C2    H8    S    
C33   H3    S    
C32   H2    S    
C86   C87   S    
C85   H67   S    
C23   O8    A    
O21   H73   S    
C35   H5    S    
C59   C60   A    
C82   H60   S    
C21   C22   A    
C86   H69   S    
C80   C81   S    
C81   H56   S    
C41   C43   A    
C63   N3    A    
C7    C56   A    
C30   H21   S    
C75   H43   S    
C4    C28   A    
C44   C46   A    
C38   H9    S    
C70   H31   S    
C38   C39   A    
C84   H65   S    
C21   H19   S    
C7    C31   A    
C89   C90   S    
C78   H50   S    
C51   C63   A    
O16   C76   S    
C14   H20   S    
C77   H47   S    
C61   H17   S    
C76   C77   S    
C1    O5    A    
C39   C40   A    
C77   H46   S    
C4    C7    A    
C58   C59   A    
C53   C54   A    
C5    C45   A    
C86   H68   S    
C53   H16   S    
C87   H72   S    
C89   H77   S    
C81   H55   S    
C49   O16   S    
C88   C89   S    
C73   H38   S    
C43   C44   A    
C36   C49   A    
C40   O18   S    
C45   O12   S    
C74   C75   S    
C37   C49   A    
C8    C65   A    
O20   C85   S    
C79   C80   S    
C8    C12   S    
C62   N3    A    
C17   C18   A    
C51   O19   S    
C68   H26   S    
C16   C20   A    
C39   H10   S    
C24   C25   A    
C37   C48   A    
C52   O20   S    
C42   C50   A    
O5    Zn2   S    
N4    Zn2   S    
C83   H61   S    
C6    C30   A    
C79   H52   S    
C11   C32   A    
C82   C83   S    
C55   C57   A    
C10   C14   A    
C72   H34   S    
C31   C35   A    
C52   N4    A    
C73   C74   S    
C51   C59   A    
C47   H11   S    
O13   C67   S    
C71   H33   S    
C27   C28   A    
C52   C53   A    
C65   H22   S    
C74   H40   S    
O18   H58   S    
C1    C50   S    
C70   C71   S    
O9    Zn2   S    
O7    Zn2   S    
C20   O2    S    
C46   C47   A    
O19   C82   S    
C46   H6    S    
C75   H41   S    
C2    C66   A    
C10   C13   A    
C54   C55   A    
C69   H28   S    
C70   H30   S    
C9    C24   A    
C57   C61   A    
C38   C50   A    
C26   N2    S    
C15   O22   S    
C29   C35   A    
C34   O11   A    
C67   C68   S    
C13   C17   A    
C3    N1    S    
C32   C33   A    
C90   H80   S    
C71   C72   S    
C76   H45   S    
C2    C3    A    
C25   C26   A    
C19   N2    A    
C23   C37   S    
C76   H44   S    
C64   C65   A    
C11   C13   A    
C74   H39   S    
C20   N2    A    
C83   H62   S    
C67   H24   S    
C9    C34   S    
C73   H37   S    
O11   Zn2   S    
C42   C47   A    
C88   H74   S    
C18   C33   A    
C87   H71   S    
C69   H29   S    
C36   C44   A    
C36   H7    S    
C48   O17   S    
C90   H78   S    
C4    C5    A    
C79   H51   S    
C11   C29   A    
C1    O1    A    
C55   C58   A    
C75   H42   S    
C80   H53   S    
C72   H35   S    
C14   C15   A    
O22   C88   S    
C40   C41   A    
C25   H4    S    
C83   C84   S    
C90   H79   S    
C71   H32   S    
C54   H15   S    
C19   O4    S    
C22   H18   S    
C27   C30   A    
C63   H12   S    
