data_mof_unit_32929.cif
_audit_creation_date              2012-12-11T14:06:34-0500
_audit_creation_method            fapswitch 2.2
_symmetry_space_group_name_H-M    P1
_symmetry_Int_Tables_number       1
_space_group_crystal_system       triclinic
_cell_length_a                    6.940352
_cell_length_b                    17.331825
_cell_length_c                    24.167826
_cell_angle_alpha                 104.505775
_cell_angle_beta                  90.457134
_cell_angle_gamma                 89.776085
_cell_volume                      2814.35565254

loop_
_atom_site_label
_atom_site_type_symbol
_atom_type_description
_atom_site_fract_x
_atom_site_fract_y
_atom_site_fract_z
_atom_type_partial_charge
O1    O     O_R   0.494290 0.391990 0.999150 -0.519528
O2    O     O_R   0.827170 0.534410 0.082350 -0.525368
O3    O     O_R   0.994360 0.608010 0.000850 -0.493281
C1    C     C_R   0.658729 0.551388 0.106237 0.743815
O4    O     O_R   0.824210 0.388010 0.004470 -0.549909
O5    O     O_R   0.991370 0.460560 0.922410 -0.545205
C2    C     C_R   0.654238 0.354552 0.000576 0.760315
O6    O     O_R   0.497270 0.539440 0.077590 -0.525946
O7    O     O_3   0.659770 0.523970 0.973170 -0.366669
V1    V     V_3+5 0.935840 0.495550 0.004980 1.519530
O8    O     O_R   0.320910 0.465590 0.917650 -0.538236
C3    C     C_R   0.151252 0.451798 0.893718 0.711956
O9    O     O_R   0.323870 0.611990 0.995530 -0.559150
C4    C     C_R   0.153766 0.645023 0.998543 0.794879
V2    V     V_3+5 0.435470 0.504450 0.995020 1.488805
O10   O     O_3   0.161670 0.476030 0.026830 -0.358457
C5    C     C_2   0.138964 0.730328 0.998731 -0.361709
H1    H     H_    0.272874 0.762203 0.997792 0.106109
C6    C     C_2   0.967402 0.768911 0.000600 0.183297
C7    C     C_R   0.968830 0.257061 0.626390 0.625951
N1    N     N_R   0.071189 0.325839 0.647961 -0.540299
C8    C     C_R   0.151255 0.365223 0.611306 0.666815
C9    C     C_R   0.163471 0.328658 0.552276 -0.120893
C10   C     C_R   0.049482 0.261038 0.529055 -0.141429
C11   C     C_R   0.943579 0.226185 0.566250 -0.099084
C12   C     C_R   0.288073 0.358074 0.516521 0.269359
C13   C     C_R   0.282503 0.326574 0.456960 0.212906
C14   C     C_R   0.151045 0.264189 0.432236 -0.107468
C15   C     C_R   0.038177 0.230014 0.468866 -0.116695
C16   C     C_R   0.911045 0.166150 0.445306 -0.091812
C17   C     C_R   0.800057 0.132168 0.482509 0.224868
C18   C     C_R   0.815581 0.162501 0.542650 0.214574
C19   C     C_R   0.130632 0.233464 0.372285 0.593121
N2    N     N_R   0.006794 0.172322 0.350338 -0.551898
C20   C     C_R   0.894185 0.140219 0.384854 0.606007
O11   O     O_2   0.894292 0.218211 0.662992 -0.502762
O12   O     O_2   0.214623 0.440598 0.631748 -0.513411
O13   O     O_2   0.229541 0.265001 0.335540 -0.523339
O14   O     O_2   0.764527 0.084257 0.360181 -0.511514
C21   C     C_R   0.145829 0.098160 0.258644 -0.078740
H2    H     H_    0.272722 0.085449 0.281225 0.151854
C22   C     C_R   0.135311 0.070355 0.199174 -0.206979
H3    H     H_    0.254190 0.035463 0.177053 0.166147
C23   C     C_R   0.972541 0.086232 0.168643 -0.164481
C24   C     C_R   0.820359 0.133102 0.199495 0.322113
C25   C     C_R   0.830850 0.158406 0.259250 -0.084044
H4    H     H_    0.714672 0.193779 0.282539 0.148062
C26   C     C_R   0.993238 0.141839 0.289064 0.291340
C27   C     C_R   0.278095 0.383740 0.733665 0.401143
C28   C     C_R   0.297172 0.419759 0.793094 0.205870
C29   C     C_R   0.136799 0.422865 0.829902 -0.183695
C30   C     C_R   0.958071 0.395099 0.805127 -0.238195
H5    H     H_    0.831984 0.396434 0.831420 0.199991
C31   C     C_R   0.937639 0.364511 0.746272 -0.176078
H6    H     H_    0.796996 0.345028 0.729348 0.201997
C32   C     C_R   0.095970 0.357427 0.709628 0.256968
C33   C     C_R   0.390949 0.850020 0.615474 0.587886
N3    N     N_R   0.507531 0.819467 0.650746 -0.548295
C34   C     C_R   0.637870 0.760415 0.629020 0.671589
C35   C     C_R   0.648954 0.725749 0.569244 -0.104584
C36   C     C_R   0.534700 0.759119 0.532347 -0.130454
C37   C     C_R   0.407258 0.823219 0.555311 -0.054907
C38   C     C_R   0.775821 0.661365 0.545225 0.230692
C39   C     C_R   0.782144 0.629432 0.485160 0.223527
C40   C     C_R   0.662794 0.661614 0.448623 -0.125874
C41   C     C_R   0.549583 0.729291 0.472233 -0.074937
C42   C     C_R   0.454340 0.768486 0.435431 -0.045318
C43   C     C_R   0.330675 0.832311 0.458320 -0.237533
C44   C     C_R   0.301358 0.858314 0.517299 0.296227
C45   C     C_R   0.656219 0.629564 0.388470 0.698039
N4    N     N_R   0.579997 0.672959 0.352956 -0.531374
C46   C     C_R   0.487295 0.743678 0.376184 0.534613
O15   O     O_2   0.260559 0.906361 0.638947 -0.495979
O16   O     O_2   0.757743 0.736595 0.665554 -0.522010
O17   O     O_2   0.723671 0.555463 0.365695 -0.493957
O18   O     O_2   0.429053 0.790757 0.342428 -0.538362
H7    H     H_    0.253191 0.861920 0.430353 0.169327
C47   C     C_R   0.451887 0.645522 0.253746 -0.168286
H8    H     H_    0.315268 0.668117 0.270451 0.190640
C48   C     C_R   0.472240 0.621826 0.194597 0.323193
C49   C     C_R   0.646500 0.585749 0.170067 -0.300120
C50   C     C_R   0.805360 0.584841 0.207928 0.241371
C51   C     C_R   0.788526 0.621442 0.267258 0.314375
C52   C     C_R   0.606506 0.645938 0.291096 0.189062
C53   C     C_R   0.423298 0.805083 0.747355 0.227223
C54   C     C_R   0.410207 0.837128 0.807316 0.132476
C55   C     C_R   0.468057 0.916422 0.831793 -0.213434
C56   C     C_R   0.546209 0.962379 0.796965 0.153983
C57   C     C_R   0.563147 0.930274 0.737596 0.315358
C58   C     C_R   0.496916 0.851984 0.712232 0.182803
C59   C     C_2   0.636564 0.270017 0.002922 -0.409099
H9    H     H_    0.754119 0.245621 0.023201 0.112190
C60   C     C_2   0.475397 0.225409 0.984762 0.135188
O19   O     O_R   0.618210 0.960470 0.922400 -0.545238
O20   O     O_R   0.291310 0.111960 0.995450 -0.544223
O21   O     O_R   0.124210 0.039530 0.077580 -0.531009
C61   C     C_R   0.460995 0.143730 0.994652 0.729965
O22   O     O_R   0.288310 0.965490 0.917650 -0.539823
O23   O     O_R   0.121180 0.892010 0.999220 -0.538215
C62   C     C_R   0.456916 0.949847 0.894413 0.835702
O24   O     O_R   0.621230 0.107990 0.000760 -0.553079
O25   O     O_3   0.455770 0.976060 0.026840 -0.367540
V3    V     V_3+5 0.179680 0.004440 0.995020 1.420158
O26   O     O_R   0.791670 0.888040 0.004570 -0.553325
C63   C     C_R   0.960414 0.854815 0.001151 0.671021
O27   O     O_R   0.794680 0.034510 0.082370 -0.531950
C64   C     C_R   0.963272 0.052496 0.105645 0.710067
V4    V     V_3+5 0.680070 0.995560 0.005010 1.418082
O28   O     O_3   0.953840 0.023940 0.973160 -0.381230
O29   O     O_3   0.435436 0.373610 0.697987 -0.632217
H10   H     H_    0.534249 0.413675 0.715054 0.312772
O30   O     O_3   0.473807 0.450513 0.813644 -0.659334
H11   H     H_    0.450620 0.504395 0.838706 0.291582
N5    N     N_2   0.898004 0.628508 0.581275 -0.492068
H12   H     H_    0.038091 0.616195 0.568079 0.254169
C65   C     C_3   0.811747 0.569354 0.606412 -0.421218
H13   H     H_    0.880703 0.510589 0.589151 0.172223
H14   H     H_    0.653781 0.564157 0.598267 0.200991
H15   H     H_    0.836505 0.586108 0.653285 0.224106
N6    N     N_2   0.925926 0.572043 0.461039 -0.475633
H16   H     H_    0.066373 0.589193 0.471496 0.244822
C66   C     C_3   0.885371 0.489670 0.459458 -0.427017
H17   H     H_    0.966287 0.471450 0.493862 0.156516
H18   H     H_    0.933641 0.451327 0.417921 0.218182
H19   H     H_    0.728926 0.479833 0.463838 0.205929
N7    N     N_2   0.168556 0.921621 0.537604 -0.472719
H20   H     H_    0.037457 0.914128 0.516554 0.239122
C67   C     C_3   0.247055 0.000974 0.545265 -0.496504
H21   H     H_    0.184607 0.030044 0.513113 0.164112
H22   H     H_    0.405991 0.999562 0.540937 0.185308
H23   H     H_    0.211777 0.037385 0.588629 0.233006
O31   O     O_3   0.797630 0.727130 0.001523 -0.630137
H24   H     H_    0.684377 0.761754 0.001075 0.286777
O32   O     O_3   0.318498 0.636593 0.162351 -0.596195
H25   H     H_    0.370808 0.660997 0.132667 0.290135
O33   O     O_3   0.978483 0.549611 0.188587 -0.605731
H26   H     H_    0.949186 0.496582 0.163124 0.303905
N8    N     N_2   0.953398 0.631503 0.303750 -0.474072
H27   H     H_    0.069002 0.594825 0.289223 0.296242
C68   C     C_3   0.004187 0.713435 0.330768 -0.504686
H28   H     H_    0.116896 0.713796 0.363318 0.202411
H29   H     H_    0.881586 0.747927 0.353437 0.198537
H30   H     H_    0.054755 0.744169 0.298429 0.220178
N9    N     N_2   0.374430 0.724055 0.722191 -0.509398
H31   H     H_    0.407801 0.684836 0.746606 0.267547
C69   C     C_3   0.183517 0.711953 0.697473 -0.438913
H32   H     H_    0.073156 0.730786 0.731238 0.203391
H33   H     H_    0.163479 0.647741 0.676621 0.215259
H34   H     H_    0.163869 0.746056 0.664609 0.235852
N10   N     N_2   0.337468 0.790237 0.843295 -0.517959
H35   H     H_    0.226889 0.752254 0.825673 0.261734
C70   C     C_3   0.484018 0.751970 0.870179 -0.542973
H36   H     H_    0.569944 0.709686 0.837393 0.191719
H37   H     H_    0.414613 0.718309 0.898084 0.186990
H38   H     H_    0.581854 0.796883 0.896991 0.201614
N11   N     N_2   0.605494 0.042185 0.821921 -0.518447
H39   H     H_    0.552990 0.082467 0.800503 0.292125
C71   C     C_3   0.810309 0.051676 0.833127 -0.453597
H40   H     H_    0.891155 0.040701 0.792394 0.224598
H41   H     H_    0.862546 0.009821 0.857994 0.206118
H42   H     H_    0.839499 0.113463 0.858332 0.171571
O34   O     O_3   0.649986 0.976531 0.706031 -0.633177
H43   H     H_    0.690607 0.942269 0.668744 0.298935
N12   N     N_2   0.333727 0.254609 0.951014 -0.498609
H44   H     H_    0.391187 0.276895 0.918932 0.257838
C72   C     C_3   0.151294 0.214748 0.935391 -0.479788
H45   H     H_    0.062266 0.249412 0.911703 0.171109
H46   H     H_    0.070315 0.212022 0.974241 0.206936
H47   H     H_    0.174578 0.154263 0.907082 0.183529
N13   N     N_2   0.432536 0.414941 0.541030 -0.473407
H48   H     H_    0.465953 0.456673 0.518859 0.261909
C73   C     C_3   0.596668 0.383644 0.566050 -0.458761
H49   H     H_    0.727351 0.385028 0.540182 0.150937
H50   H     H_    0.573164 0.321236 0.568760 0.201851
H51   H     H_    0.622331 0.420898 0.609929 0.223133
N14   N     N_2   0.415917 0.357603 0.423584 -0.516297
H52   H     H_    0.357690 0.383184 0.393080 0.304356
C74   C     C_3   0.588789 0.310619 0.407424 -0.457923
H53   H     H_    0.683571 0.340265 0.382279 0.196274
H54   H     H_    0.553189 0.250057 0.381197 0.223589
H55   H     H_    0.668748 0.305011 0.446088 0.185160
N15   N     N_2   0.668764 0.068640 0.459545 -0.478403
H56   H     H_    0.532038 0.072832 0.476205 0.246422
C75   C     C_3   0.747591 0.988560 0.442020 -0.422063
H57   H     H_    0.689892 0.950967 0.469015 0.151025
H58   H     H_    0.907617 0.988627 0.444236 0.172636
H59   H     H_    0.702282 0.960586 0.397409 0.248492
N16   N     N_2   0.687363 0.134901 0.579224 -0.479442
H60   H     H_    0.543872 0.134950 0.568017 0.241108
C76   C     C_3   0.747888 0.064495 0.596605 -0.396971
H61   H     H_    0.756026 0.012211 0.559654 0.156210
H62   H     H_    0.641475 0.052122 0.627154 0.225124
H63   H     H_    0.890875 0.073421 0.617913 0.239499
O35   O     O_3   0.662400 0.157553 0.173293 -0.633566
H64   H     H_    0.702228 0.164440 0.135593 0.285489

loop_
_geom_bond_atom_site_label_1
_geom_bond_atom_site_label_2
_ccdc_geom_bond_type
C71   H41   S    
C55   C56   A    
C76   H61   S    
C31   H6    S    
O23   V3    S    
C68   H30   S    
C1    O6    A    
C67   H21   S    
N5    H12   S    
C33   C37   A    
C53   C54   A    
C65   H13   S    
C27   O29   S    
O19   V4    S    
C12   C13   A    
N7    H20   S    
N13   C73   S    
C16   C20   A    
C35   C38   A    
C56   N11   S    
N12   H44   S    
C68   H29   S    
C42   C46   A    
C54   N10   S    
O5    C3    A    
C16   C17   A    
C47   C48   A    
O27   C64   A    
V2    O10   S    
C6    O31   S    
C48   O32   S    
V4    O28   S    
N16   C76   S    
N2    C20   A    
C9    C12   A    
C33   O15   S    
O29   H10   S    
O30   H11   S    
C76   H63   S    
C5    C6    D    
N15   H56   S    
C38   N5    S    
O8    V2    S    
C36   C41   A    
C1    C49   S    
C17   C18   A    
N6    C66   S    
O31   H24   S    
O20   V3    S    
O22   V3    S    
C76   H62   S    
C9    C10   A    
N13   H48   S    
O25   V4    S    
C45   N4    A    
O1    V2    S    
O7    V1    S    
C71   H42   S    
C73   H51   S    
C46   O18   S    
C56   C57   A    
C11   C18   A    
C21   C22   A    
C41   C42   A    
C34   C35   A    
O1    C2    A    
O9    C4    A    
C72   H46   S    
C4    C5    S    
C36   C37   A    
C22   C23   A    
C53   N9    S    
O4    V1    S    
O26   C63   A    
C30   C31   A    
C49   C50   A    
C69   H33   S    
C8    C9    A    
O23   C63   A    
C31   C32   A    
C18   N16   S    
C42   C43   A    
C74   H53   S    
C19   N2    A    
C68   H28   S    
N9    C69   S    
C59   H9    S    
O4    C2    A    
C47   H8    S    
C43   C44   A    
C60   N12   S    
C28   C29   A    
N3    C34   A    
C24   C25   A    
C8    O12   S    
C50   C51   A    
C29   C30   A    
C37   C44   A    
C35   C36   A    
N11   H39   S    
N4    C52   S    
O2    C1    A    
N16   H60   S    
O5    V1    S    
C15   C16   A    
C59   C60   D    
C69   H34   S    
N5    C65   S    
C51   C52   A    
C70   H38   S    
O19   C62   A    
C53   C58   A    
C2    C59   S    
C28   O30   S    
C5    H1    S    
C30   H5    S    
C10   C11   A    
N3    C58   S    
C34   O16   S    
O3    C4    A    
N8    C68   S    
C65   H14   S    
C75   H59   S    
C6    C63   S    
C21   H2    S    
O21   C64   A    
C70   H37   S    
C44   N7    S    
C40   C41   A    
O6    V2    S    
O22   C62   A    
O9    V2    S    
C17   N15   S    
C71   H40   S    
N10   C70   S    
N2    C26   S    
C22   H3    S    
C43   H7    S    
C66   H18   S    
C73   H49   S    
O2    V1    S    
C67   H23   S    
C60   C61   S    
C57   O34   S    
O26   V4    S    
C3    C29   S    
N6    H16   S    
C55   C62   S    
C23   C64   S    
C24   O35   S    
C21   C26   A    
C25   H4    S    
C14   C15   A    
N7    C67   S    
C54   C55   A    
C23   C24   A    
C48   C49   A    
C67   H22   S    
C13   N14   S    
C14   C19   A    
N1    C32   S    
C74   H54   S    
O8    C3    A    
O20   C61   A    
O32   H25   S    
O34   H43   S    
C27   C32   A    
C19   O13   S    
C39   N6    S    
C65   H15   S    
V3    O28   S    
N9    H31   S    
C39   C40   A    
C66   H19   S    
N11   C71   S    
O7    V2    S    
N4    C46   A    
O3    V1    S    
V1    O10   S    
C33   N3    A    
C72   H45   S    
O27   V4    S    
O24   V4    S    
C20   O14   S    
N12   C72   S    
C73   H50   S    
C75   H58   S    
O35   H64   S    
C69   H32   S    
C50   O33   S    
O25   V3    S    
N15   C75   S    
C74   H55   S    
N8    H27   S    
N14   H52   S    
C38   C39   A    
C7    O11   S    
C25   C26   A    
C47   C52   A    
C10   C15   A    
C7    N1    A    
C12   N13   S    
C72   H47   S    
C27   C28   A    
C7    C11   A    
O21   V3    S    
C45   O17   S    
C66   H17   S    
N10   H35   S    
O33   H26   S    
C75   H57   S    
C70   H36   S    
C57   C58   A    
N1    C8    A    
C51   N8    S    
C61   O24   A    
C40   C45   A    
N14   C74   S    
C13   C14   A    
