data_mof_unit_47378.cif
_audit_creation_date              2012-12-10T17:24:45-0500
_audit_creation_method            fapswitch 2.2
_symmetry_space_group_name_H-M    P1
_symmetry_Int_Tables_number       1
_space_group_crystal_system       triclinic
_cell_length_a                    23.513953
_cell_length_b                    10.861702
_cell_length_c                    9.579083
_cell_angle_alpha                 91.141252
_cell_angle_beta                  89.937144
_cell_angle_gamma                 92.857461
_cell_volume                      2442.98604201

loop_
_atom_site_label
_atom_site_type_symbol
_atom_type_description
_atom_site_fract_x
_atom_site_fract_y
_atom_site_fract_z
_atom_type_partial_charge
C1    C     C_R   0.504465 0.263281 0.499199 0.800433
C2    C     C_R   0.965244 0.287026 0.526284 -0.158485
C3    C     C_R   0.024456 0.286629 0.522896 -0.147439
C4    C     C_R   0.057284 0.396565 0.503274 -0.000504
C5    C     C_R   0.030115 0.508047 0.484949 -0.062184
C6    C     C_R   0.062807 0.619162 0.464126 -0.127979
C7    C     C_R   0.034152 0.729255 0.440681 0.411319
C8    C     C_R   0.974845 0.728321 0.449001 -0.155786
C9    C     C_R   0.116845 0.397840 0.502797 0.542893
C10   C     C_R   0.122747 0.615925 0.471832 0.547169
C11   C     C_R   0.238494 0.550893 0.611074 -0.165002
C12   C     C_R   0.391022 0.501583 0.500207 0.822834
C13   C     C_R   0.298105 0.552652 0.615566 0.214998
C14   C     C_R   0.328398 0.505388 0.499901 -0.071345
C15   C     C_R   0.298113 0.460438 0.381485 -0.266960
C16   C     C_R   0.238914 0.460399 0.378071 -0.108170
C17   C     C_R   0.208995 0.505454 0.492716 0.324029
C18   C     C_R   0.761310 0.498117 0.624573 -0.096616
C19   C     C_R   0.701957 0.496350 0.625458 -0.215578
C20   C     C_R   0.671690 0.503818 0.499614 -0.038589
C21   C     C_R   0.701882 0.514351 0.373273 -0.223799
C22   C     C_R   0.761193 0.516733 0.372835 -0.107454
C23   C     C_R   0.497638 0.737900 0.502536 0.768988
C24   C     C_R   0.791026 0.508167 0.498289 0.357749
C25   C     C_R   0.550456 0.130840 0.738889 -0.197473
C26   C     C_R   0.550240 0.077818 0.869716 -0.259515
C27   C     C_R   0.523039 0.961873 0.888237 0.461935
C28   C     C_R   0.501930 0.895171 0.771651 -0.190753
C29   C     C_R   0.507047 0.943156 0.635204 0.015202
C30   C     C_R   0.523166 0.069142 0.623944 0.098815
C31   C     C_R   0.510049 0.129899 0.499420 -0.098035
C32   C     C_R   0.494066 0.061150 0.379710 -0.215499
C33   C     C_R   0.489434 0.933930 0.383600 -0.194989
C34   C     C_R   0.609038 0.501142 0.499926 0.770690
C35   C     C_R   0.496034 0.872913 0.509564 -0.103414
C36   C     C_R   0.578191 0.659176 0.146956 -0.188737
C37   C     C_R   0.618084 0.733165 0.076586 -0.206191
C38   C     C_R   0.618107 0.735346 0.931328 0.296440
C39   C     C_R   0.577843 0.659701 0.859039 -0.228038
C40   C     C_R   0.538331 0.578534 0.926879 0.170675
C41   C     C_R   0.538376 0.578410 0.076288 0.230577
C42   C     C_R   0.463623 0.425016 0.072358 -0.068503
C43   C     C_R   0.463642 0.425043 0.924308 -0.035564
C44   C     C_R   0.882725 0.616825 0.476477 0.558600
C45   C     C_R   0.877986 0.399810 0.513781 0.534013
C46   C     C_R   0.937567 0.397330 0.509869 -0.000192
C47   C     C_R   0.970034 0.508085 0.488577 -0.019018
C48   C     C_R   0.942444 0.618797 0.471911 -0.103584
Cu1   Cu    Cu3+1 0.500000 0.499990 0.640660 0.935623
Cu2   Cu    Cu3+1 0.500000 0.500010 0.359340 0.939160
H1    H     H_    0.941277 0.200689 0.542258 0.195625
H2    H     H_    0.679853 0.488578 0.724391 0.161072
H3    H     H_    0.679773 0.520800 0.274776 0.160609
H4    H     H_    0.784049 0.524449 0.274946 0.138745
H5    H     H_    0.484576 0.105688 0.282843 0.165958
H6    H     H_    0.572196 0.220348 0.728960 0.175660
H7    H     H_    0.569498 0.129003 0.957159 0.131813
H8    H     H_    0.479166 0.809167 0.792865 0.190252
H9    H     H_    0.479082 0.883095 0.287872 0.202622
H10   H     H_    0.433864 0.363544 0.126441 0.134710
H11   H     H_    0.044412 0.199940 0.536681 0.205501
H12   H     H_    0.580607 0.670000 0.257075 0.205890
H13   H     H_    0.648055 0.790433 0.137714 0.153775
H14   H     H_    0.578653 0.669693 0.749359 0.196791
H15   H     H_    0.433893 0.363584 0.867581 0.146192
H16   H     H_    0.954155 0.813885 0.433127 0.206939
H17   H     H_    0.214944 0.586684 0.698956 0.144113
H18   H     H_    0.320231 0.423936 0.291689 0.167399
H19   H     H_    0.216184 0.425399 0.286167 0.148951
H20   H     H_    0.784269 0.491690 0.721874 0.139389
N1    N     N_R   0.851948 0.508425 0.496981 -0.469046
N2    N     N_R   0.148078 0.506340 0.488416 -0.463707
N3    N     N_R   0.500540 0.501210 0.147910 -0.194341
N4    N     N_R   0.500560 0.501290 0.852040 -0.195550
O1    O     O_R   0.500000 0.319640 0.618810 -0.585283
O2    O     O_2   0.846261 0.294555 0.533218 -0.533924
O3    O     O_2   0.143493 0.291813 0.518895 -0.521096
O4    O     O_2   0.155712 0.720893 0.465776 -0.509041
O5    O     O_R   0.500000 0.319660 0.381240 -0.581804
O6    O     O_R   0.417880 0.499950 0.618810 -0.541266
O7    O     O_R   0.417880 0.499980 0.381240 -0.583217
O8    O     O_R   0.500000 0.680340 0.618760 -0.612479
O9    O     O_R   0.500000 0.680360 0.381190 -0.586130
O10   O     O_R   0.582120 0.500020 0.618760 -0.606978
O11   O     O_R   0.582120 0.500050 0.381190 -0.600393
O12   O     O_2   0.855571 0.722246 0.460797 -0.532874
O13   O     O_3   0.517163 0.910372 0.018114 -0.753428
H21   H     H_    0.536292 0.966797 0.088023 0.311925
N5    N     N_2   0.658039 0.811451 0.854377 -0.427535
H22   H     H_    0.647781 0.824813 0.751241 0.247424
C49   C     C_3   0.686410 0.917457 0.923008 -0.635294
H23   H     H_    0.711795 0.971439 0.845439 0.235235
H24   H     H_    0.716275 0.887235 0.003649 0.232817
H25   H     H_    0.654702 0.977838 0.970900 0.220749
O14   O     O_3   0.062133 0.838948 0.406937 -0.679619
H26   H     H_    0.089085 0.820490 0.330643 0.356503
N6    N     N_2   0.326982 0.603838 0.735414 -0.416045
H27   H     H_    0.304671 0.591286 0.827272 0.248615
C50   C     C_3   0.347887 0.730430 0.720290 -0.615245
H28   H     H_    0.311696 0.791227 0.707214 0.229061
H29   H     H_    0.376730 0.739440 0.628789 0.219694
H30   H     H_    0.372153 0.761024 0.815188 0.223523

loop_
_geom_bond_atom_site_label_1
_geom_bond_atom_site_label_2
_ccdc_geom_bond_type
C18   H20   S    
O13   H21   S    
C8    H16   S    
C23   O8    A    
C45   N1    A    
O14   H26   S    
C25   H6    S    
Cu2   O5    S    
N6    H27   S    
C10   O4    S    
C7    C8    A    
C22   H4    S    
C45   C46   A    
C2    C46   A    
C39   H14   S    
C5    C47   A    
C38   N5    S    
C26   C27   A    
C29   C30   A    
C23   O9    A    
C45   O2    S    
C18   C24   A    
Cu1   O10   S    
C36   C37   A    
C30   C31   A    
C44   O12   S    
C15   C16   A    
C1    C31   S    
C44   N1    A    
C18   C19   A    
Cu2   O11   S    
N6    C50   S    
C19   H2    S    
C11   C17   A    
C47   C48   A    
C16   C17   A    
C9    N2    A    
N5    C49   S    
C32   H5    S    
C20   C34   S    
C43   N4    A    
C33   H9    S    
C21   C22   A    
C36   C41   A    
C34   O10   A    
C36   H12   S    
C37   H13   S    
C11   H17   S    
Cu2   O9    S    
C3    H11   S    
C38   C39   A    
C1    O1    A    
Cu2   N3    S    
C42   H10   S    
C49   H23   S    
C25   C26   A    
C34   O11   A    
Cu1   O8    S    
C8    C48   A    
C37   C38   A    
C49   H24   S    
C50   H28   S    
C43   H15   S    
Cu1   O1    S    
C9    O3    S    
C27   O13   S    
C40   C41   A    
C50   H29   S    
C12   C14   S    
C23   C35   S    
C1    O5    A    
C22   C24   A    
C42   C43   A    
C3    C4    A    
C39   C40   A    
C25   C30   A    
C46   C47   A    
C28   C29   A    
C42   N3    A    
C14   C15   A    
C31   C32   A    
C16   H19   S    
C4    C5    A    
C6    C10   A    
C6    C7    A    
C28   H8    S    
C7    O14   S    
C29   C35   A    
Cu1   O6    S    
C32   C33   A    
C19   C20   A    
C2    C3    A    
C4    C9    A    
C49   H25   S    
C21   H3    S    
C11   C13   A    
C5    C6    A    
C15   H18   S    
C12   O6    A    
C33   C35   A    
C40   N4    A    
C12   O7    A    
C13   N6    S    
C26   H7    S    
C2    H1    S    
C41   N3    A    
C50   H30   S    
C20   C21   A    
C24   N1    S    
C17   N2    S    
Cu1   Cu2   S    
C27   C28   A    
Cu1   N4    S    
N5    H22   S    
C13   C14   A    
C44   C48   A    
Cu2   O7    S    
C10   N2    A    
