data_mof_unit_22346.cif
_audit_creation_date              2012-12-10T18:52:57-0500
_audit_creation_method            fapswitch 2.2
_symmetry_space_group_name_H-M    P1
_symmetry_Int_Tables_number       1
_space_group_crystal_system       triclinic
_cell_length_a                    9.853714
_cell_length_b                    10.617519
_cell_length_c                    16.594351
_cell_angle_alpha                 90.251248
_cell_angle_beta                  82.999607
_cell_angle_gamma                 89.313501
_cell_volume                      1723.03821103

loop_
_atom_site_label
_atom_site_type_symbol
_atom_type_description
_atom_site_fract_x
_atom_site_fract_y
_atom_site_fract_z
_atom_type_partial_charge
C1    C     C_R   0.499439 0.739709 0.498973 0.911087
C2    C     C_R   0.500650 0.260294 0.500646 0.911125
C3    C     C_R   0.558260 0.932987 0.559661 -0.311545
C4    C     C_R   0.442126 0.067083 0.439634 -0.315926
C5    C     C_R   0.562010 0.062633 0.560624 0.209936
C6    C     C_R   0.439136 0.937397 0.438358 0.217520
C7    C     C_R   0.502539 0.128017 0.500446 -0.082963
C8    C     C_R   0.497743 0.872018 0.498904 -0.074822
C9    C     C_R   0.939040 0.416041 0.452848 0.266654
C10   C     C_R   0.061513 0.586426 0.545870 0.265558
C11   C     C_R   0.082872 0.415123 0.454132 -0.183612
C12   C     C_R   0.916761 0.584656 0.546093 -0.161342
C13   C     C_R   0.478446 0.497013 0.653661 0.868140
C14   C     C_R   0.521514 0.497894 0.346642 0.871083
C15   C     C_R   0.459580 0.471286 0.739977 -0.047014
C16   C     C_R   0.540197 0.457162 0.263435 -0.024235
C17   C     C_R   0.556129 0.511925 0.788783 -0.206752
C18   C     C_R   0.540812 0.543941 0.200989 -0.229209
C19   C     C_R   0.544064 0.477172 0.869573 -0.239636
C20   C     C_R   0.548748 0.500565 0.121686 -0.216489
C21   C     C_R   0.438536 0.397272 0.901697 0.120597
C22   C     C_R   0.551918 0.370481 0.105118 0.127257
C23   C     C_R   0.340512 0.356071 0.852892 0.245964
C24   C     C_R   0.557821 0.282960 0.167812 0.228252
C25   C     C_R   0.350652 0.395439 0.772245 -0.294277
C26   C     C_R   0.553172 0.327704 0.247252 -0.284888
C27   C     C_2   0.426626 0.368724 0.988782 0.102984
C28   C     C_2   0.539570 0.330464 0.021779 0.106652
H1    H     H_    0.554479 0.261512 0.296725 0.130649
H2    H     H_    0.276987 0.362077 0.733861 0.153847
H3    H     H_    0.547411 0.568183 0.073078 0.143755
H4    H     H_    0.617080 0.513157 0.907413 0.150062
N1    N     N_R   0.142790 0.500030 0.500020 -0.113813
N2    N     N_R   0.857210 0.499970 0.499980 -0.103990
O1    O     O_R   0.385380 0.683250 0.500010 -0.580200
O2    O     O_R   0.614620 0.316750 0.499990 -0.583655
O3    O     O_R   0.614710 0.683220 0.500000 -0.631729
O4    O     O_R   0.385290 0.316780 0.500000 -0.631093
O5    O     O_R   0.371780 0.500040 0.615800 -0.636433
O6    O     O_R   0.628220 0.499960 0.384200 -0.596314
O7    O     O_R   0.601110 0.500010 0.615800 -0.610158
O8    O     O_R   0.398890 0.499990 0.384200 -0.603146
Zn1   Zn    Zn3+2 0.346870 0.500020 0.500000 0.948960
Zn2   Zn    Zn3+2 0.653130 0.499980 0.500000 0.960431
H5    H     H_    0.640270 0.570826 0.764487 0.147074
H6    H     H_    0.532578 0.644109 0.213741 0.136409
N3    N     N_2   0.651109 0.265588 0.974739 -0.295520
H7    H     H_    0.637980 0.240029 0.916198 0.227908
C29   C     C_3   0.788348 0.303552 0.985727 -0.757379
H8    H     H_    0.863797 0.245651 0.945883 0.233015
H9    H     H_    0.807947 0.288633 0.049494 0.253007
H10   H     H_    0.803173 0.404240 0.969525 0.225346
N4    N     N_2   0.300527 0.397211 0.038888 -0.284962
H11   H     H_    0.292329 0.366832 0.098207 0.230344
C30   C     C_3   0.239323 0.519993 0.029029 -0.757594
H12   H     H_    0.142383 0.528990 0.070554 0.232168
H13   H     H_    0.214748 0.532412 0.966029 0.247126
H14   H     H_    0.309465 0.595341 0.043928 0.228171
N5    N     N_2   0.232160 0.275887 0.884404 -0.290297
H15   H     H_    0.145315 0.285050 0.855784 0.216855
C31   C     C_3   0.272467 0.145463 0.892213 -0.798029
H16   H     H_    0.183485 0.091067 0.920158 0.240448
H17   H     H_    0.355186 0.136747 0.931767 0.247744
H18   H     H_    0.308294 0.104532 0.831448 0.229421
N6    N     N_2   0.564950 0.151134 0.151803 -0.292190
H19   H     H_    0.622416 0.102387 0.189625 0.218361
C32   C     C_3   0.433540 0.093471 0.148207 -0.813735
H20   H     H_    0.448542 0.991623 0.133883 0.238844
H21   H     H_    0.380408 0.137150 0.099889 0.251811
H22   H     H_    0.368690 0.103590 0.207653 0.230030
H23   H     H_    0.601801 0.879842 0.606194 0.147504
H24   H     H_    0.398547 0.120216 0.393116 0.146888
N7    N     N_2   0.617514 0.127063 0.624277 -0.303968
H25   H     H_    0.579055 0.095604 0.681150 0.216823
C33   C     C_3   0.765290 0.131285 0.614488 -0.749379
H26   H     H_    0.809342 0.034952 0.618501 0.222771
H27   H     H_    0.799365 0.190708 0.663269 0.234285
H28   H     H_    0.804232 0.173009 0.555061 0.253746
N8    N     N_2   0.386388 0.873077 0.373687 -0.315463
H29   H     H_    0.425130 0.906343 0.317312 0.214316
C34   C     C_3   0.238852 0.866198 0.382292 -0.746688
H30   H     H_    0.192857 0.961983 0.379647 0.218838
H31   H     H_    0.199891 0.821430 0.440675 0.279066
H32   H     H_    0.207089 0.808151 0.332182 0.232667
N9    N     N_2   0.879309 0.328882 0.403027 -0.265718
H33   H     H_    0.905158 0.236846 0.414509 0.196384
C35   C     C_3   0.902800 0.356529 0.317191 -0.762482
H34   H     H_    0.842383 0.291346 0.283559 0.234349
H35   H     H_    0.012827 0.343784 0.294070 0.212432
H36   H     H_    0.870570 0.454709 0.305499 0.261929
N10   N     N_2   0.123976 0.674574 0.594385 -0.267067
H37   H     H_    0.165249 0.634603 0.642435 0.243312
C36   C     C_3   0.056971 0.795077 0.613303 -0.870728
H38   H     H_    0.131229 0.861086 0.635136 0.256395
H39   H     H_    0.970168 0.784304 0.662059 0.228098
H40   H     H_    0.019959 0.836250 0.558408 0.248277
H41   H     H_    0.146519 0.347335 0.417612 0.152404
H42   H     H_    0.851254 0.650021 0.583288 0.159357

loop_
_geom_bond_atom_site_label_1
_geom_bond_atom_site_label_2
_ccdc_geom_bond_type
C30   H12   S    
C28   N3    S    
C36   H38   S    
C1    C8    S    
N7    H25   S    
C2    C7    S    
C35   H34   S    
C13   O7    A    
C34   H30   S    
N3    C29   S    
N9    H33   S    
C23   N5    S    
C19   C21   A    
C24   C26   A    
C15   C25   A    
C18   C20   A    
C31   H17   S    
C9    N9    S    
C29   H9    S    
O1    Zn1   S    
C12   H42   S    
C1    O3    A    
C14   O8    A    
N9    C35   S    
C21   C27   S    
N5    H15   S    
C36   H39   S    
C22   C28   S    
N7    C33   S    
C4    C7    A    
C19   H4    S    
C18   H6    S    
C34   H31   S    
N4    C30   S    
C21   C23   A    
C16   C26   A    
N5    C31   S    
C32   H20   S    
N1    Zn1   S    
C11   N1    A    
N2    Zn2   S    
C4    C6    A    
C3    C8    A    
N10   H37   S    
N8    C34   S    
C6    C8    A    
N6    C32   S    
N4    H11   S    
C32   H21   S    
C31   H18   S    
C3    H23   S    
C33   H26   S    
N10   C36   S    
C33   H27   S    
C2    O4    A    
N3    H7    S    
C29   H10   S    
C9    C11   A    
C10   C12   A    
C24   N6    S    
C20   C22   A    
C10   N10   S    
C29   H8    S    
C36   H40   S    
C13   C15   S    
C9    N2    A    
O7    Zn2   S    
C14   C16   S    
O2    Zn2   S    
O8    Zn1   S    
C12   N2    A    
C4    H24   S    
C34   H32   S    
C1    O1    A    
C5    C7    A    
C2    O2    A    
C25   H2    S    
C15   C17   A    
C17   H5    S    
C3    C5    A    
O5    Zn1   S    
C27   N4    S    
C11   H41   S    
C32   H22   S    
O3    Zn2   S    
C30   H13   S    
O4    Zn1   S    
C6    N8    S    
C30   H14   S    
C17   C19   A    
C10   N1    A    
C22   C24   A    
C23   C25   A    
C5    N7    S    
C31   H16   S    
C33   H28   S    
C13   O5    A    
C14   O6    A    
N8    H29   S    
O6    Zn2   S    
C26   H1    S    
C16   C18   A    
N6    H19   S    
C35   H36   S    
C27   C28   D    
C35   H35   S    
C20   H3    S    
