data_mof_unit_7580.cif
_audit_creation_date              2012-12-10T21:09:54-0500
_audit_creation_method            fapswitch 2.2
_symmetry_space_group_name_H-M    P1
_symmetry_Int_Tables_number       1
_space_group_crystal_system       triclinic
_cell_length_a                    12.860135
_cell_length_b                    17.310011
_cell_length_c                    16.875923
_cell_angle_alpha                 87.69347
_cell_angle_beta                  97.976587
_cell_angle_gamma                 92.821811
_cell_volume                      3713.75477937

loop_
_atom_site_label
_atom_site_type_symbol
_atom_type_description
_atom_site_fract_x
_atom_site_fract_y
_atom_site_fract_z
_atom_type_partial_charge
C1    C     C_R   0.507972 0.352716 0.502151 0.863966
C2    C     C_R   0.497320 0.646970 0.498189 0.867110
C3    C     C_R   0.479827 0.729737 0.492260 -0.139503
C4    C     C_R   0.514720 0.267690 0.502723 -0.175085
C5    C     C_R   0.381408 0.754657 0.453013 0.052412
C6    C     C_R   0.488488 0.219794 0.567667 0.084355
C7    C     C_R   0.364908 0.833916 0.446474 -0.224364
C8    C     C_R   0.446859 0.145311 0.551791 -0.255655
C9    C     C_R   0.443367 0.886915 0.476102 0.060429
C10   C     C_R   0.438150 0.116759 0.475121 0.071029
C11   C     C_1   0.422398 0.966934 0.469134 -0.037856
C12   C     C_1   0.420047 0.035580 0.468872 -0.027278
C13   C     C_R   0.450653 0.439008 0.831642 -0.007699
C14   C     C_R   0.545539 0.560287 0.166718 -0.012365
C15   C     C_R   0.440432 0.444880 0.745889 0.180996
C16   C     C_R   0.548925 0.560032 0.252260 0.177848
C17   C     C_R   0.559493 0.554379 0.751561 -0.060271
C18   C     C_R   0.452803 0.438964 0.250831 -0.079381
C19   C     C_R   0.560394 0.557077 0.835597 0.117213
C20   C     C_R   0.454031 0.434269 0.167236 0.115922
C21   C     C_R   0.507764 0.497643 0.876798 0.072140
C22   C     C_R   0.499618 0.495853 0.124179 0.078629
C23   C     C_R   0.297636 0.497085 0.483434 0.872866
C24   C     C_R   0.702709 0.500344 0.516651 0.864688
C25   C     C_1   0.507141 0.496859 0.964588 -0.042554
C26   C     C_1   0.502667 0.494054 0.036764 -0.036675
C27   C     C_R   0.816307 0.500733 0.528601 -0.105425
C28   C     C_R   0.184535 0.493543 0.470893 -0.103428
C29   C     C_R   0.014513 0.450856 0.403964 -0.220497
C30   C     C_R   0.987462 0.540317 0.595586 -0.218282
C31   C     C_R   0.123924 0.454509 0.406260 0.082775
C32   C     C_R   0.879590 0.529308 0.598309 0.082725
C33   C     C_R   0.137253 0.527017 0.529415 -0.311496
C34   C     C_R   0.862009 0.474085 0.465080 -0.302498
C35   C     C_R   0.031066 0.516875 0.530018 0.147800
C36   C     C_R   0.969055 0.480412 0.466133 0.142784
C37   C     C_R   0.542339 0.863687 0.513318 0.214915
C38   C     C_R   0.478613 0.159755 0.413031 0.206661
C39   C     C_R   0.560278 0.783628 0.524104 0.054050
C40   C     C_R   0.528697 0.232836 0.430119 0.069036
H1    H     H_    0.813823 0.448322 0.414112 0.160142
H2    H     H_    0.184159 0.559252 0.576541 0.156097
H3    H     H_    0.604624 0.597190 0.720978 0.141836
H4    H     H_    0.415791 0.392352 0.282977 0.155040
H5    H     H_    0.963790 0.423407 0.355680 0.130760
H6    H     H_    0.039474 0.565312 0.644694 0.130307
H7    H     H_    0.291030 0.855961 0.418426 0.144898
H8    H     H_    0.427758 0.107259 0.600952 0.151198
N1    N     N_R   0.500030 0.500030 0.707230 -0.128988
N2    N     N_R   0.499970 0.499970 0.292770 -0.128318
O1    O     O_R   0.500000 0.389130 0.566570 -0.644063
O2    O     O_R   0.500000 0.610870 0.433430 -0.631609
O3    O     O_R   0.499990 0.389100 0.433480 -0.624326
O4    O     O_R   0.500010 0.610900 0.566520 -0.608101
O5    O     O_R   0.346360 0.500000 0.555540 -0.622927
O6    O     O_R   0.653640 0.500000 0.444460 -0.639647
O7    O     O_R   0.346350 0.499970 0.422460 -0.629180
O8    O     O_R   0.653650 0.500030 0.577540 -0.630119
Zn1   Zn    Zn3+2 0.500000 0.500020 0.588860 0.909814
Zn2   Zn    Zn3+2 0.500000 0.499980 0.411140 0.902116
C41   C     C_3   0.615441 0.624220 0.880007 -0.957511
H9    H     H_    0.648097 0.667790 0.839028 0.233927
H10   H     H_    0.558049 0.653570 0.910203 0.260533
H11   H     H_    0.680036 0.603534 0.925241 0.252325
C42   C     C_3   0.408339 0.362872 0.125135 -0.960769
H12   H     H_    0.378736 0.318931 0.167293 0.239750
H13   H     H_    0.342296 0.378352 0.078503 0.248015
H14   H     H_    0.470084 0.336398 0.096643 0.258670
C43   C     C_3   0.832994 0.546728 0.673800 -0.382748
C44   C     C_3   0.912670 0.569094 0.746958 -0.395263
C45   C     C_3   0.857977 0.581626 0.819583 -0.885847
H15   H     H_    0.807318 0.631809 0.807352 0.271048
H16   H     H_    0.809636 0.529286 0.833893 0.270087
H17   H     H_    0.917605 0.594099 0.872177 0.250404
H18   H     H_    0.968711 0.522128 0.762452 0.228609
H19   H     H_    0.956959 0.623710 0.733556 0.222076
H20   H     H_    0.777145 0.593796 0.659403 0.208274
H21   H     H_    0.789036 0.493593 0.692121 0.226756
C46   C     C_3   0.176317 0.416500 0.342834 -0.379967
C47   C     C_3   0.103748 0.366053 0.283563 -0.380129
C48   C     C_3   0.166138 0.328204 0.226222 -0.896507
H22   H     H_    0.204848 0.373333 0.190296 0.270560
H23   H     H_    0.226712 0.291344 0.259953 0.261052
H24   H     H_    0.112256 0.291390 0.184806 0.254128
H25   H     H_    0.062904 0.319801 0.316847 0.229965
H26   H     H_    0.044459 0.402314 0.247354 0.223631
H27   H     H_    0.214364 0.462757 0.307702 0.219806
H28   H     H_    0.238068 0.378971 0.374074 0.206651
C49   C     C_3   0.626361 0.926137 0.539414 -0.938600
H29   H     H_    0.640078 0.964156 0.486926 0.241672
H30   H     H_    0.599222 0.961762 0.585206 0.237812
H31   H     H_    0.703602 0.904729 0.565223 0.249939
C50   C     C_3   0.468946 0.125816 0.330771 -0.947814
H32   H     H_    0.385756 0.107102 0.311438 0.243549
H33   H     H_    0.491681 0.167542 0.284134 0.242598
H34   H     H_    0.518299 0.074705 0.332928 0.240840
C51   C     C_3   0.665197 0.756564 0.567135 -0.415759
C52   C     C_3   0.676616 0.770841 0.657451 -0.314927
C53   C     C_3   0.791748 0.775210 0.694708 -0.924631
H35   H     H_    0.832423 0.723768 0.680119 0.270804
H36   H     H_    0.832115 0.827904 0.671674 0.262558
H37   H     H_    0.797006 0.778059 0.760762 0.251879
H38   H     H_    0.640756 0.825426 0.669640 0.236282
H39   H     H_    0.634254 0.723411 0.687445 0.211183
H40   H     H_    0.675942 0.694245 0.559654 0.173780
H41   H     H_    0.730204 0.786051 0.539018 0.204546
C54   C     C_3   0.606193 0.269663 0.376940 -0.376583
C55   C     C_3   0.700254 0.218741 0.374231 -0.354384
C56   C     C_3   0.780974 0.259055 0.326370 -0.909085
H42   H     H_    0.744445 0.272314 0.264033 0.266599
H43   H     H_    0.812698 0.313612 0.354819 0.253634
H44   H     H_    0.847197 0.220636 0.324576 0.252017
H45   H     H_    0.738824 0.206232 0.436258 0.222379
H46   H     H_    0.674663 0.162842 0.346418 0.238223
H47   H     H_    0.565529 0.282848 0.315819 0.201694
H48   H     H_    0.641404 0.325134 0.400945 0.221958
C57   C     C_3   0.294452 0.695672 0.421388 -0.382559
C58   C     C_3   0.192622 0.729047 0.377434 -0.385369
C59   C     C_3   0.113093 0.665019 0.346728 -0.862810
H49   H     H_    0.148501 0.625416 0.308779 0.260773
H50   H     H_    0.085323 0.631585 0.397726 0.276311
H51   H     H_    0.044118 0.691057 0.310353 0.243940
H52   H     H_    0.155836 0.764312 0.418713 0.225263
H53   H     H_    0.211002 0.765994 0.325306 0.223056
H54   H     H_    0.325300 0.658473 0.378766 0.221418
H55   H     H_    0.274302 0.658835 0.472938 0.196157
C60   C     C_3   0.524092 0.237496 0.654903 -0.422305
C61   C     C_3   0.624273 0.194423 0.685637 -0.329495
C62   C     C_3   0.661946 0.209090 0.773655 -0.913652
H56   H     H_    0.678281 0.271965 0.782718 0.258215
H57   H     H_    0.601679 0.186761 0.810976 0.266804
H58   H     H_    0.735512 0.178461 0.793050 0.254285
H59   H     H_    0.609606 0.131059 0.678704 0.223178
H60   H     H_    0.687681 0.214070 0.649891 0.224694
H61   H     H_    0.541887 0.299398 0.665455 0.233698
H62   H     H_    0.460715 0.218573 0.690929 0.190759
C63   C     C_3   0.404051 0.369593 0.876403 -0.425018
C64   C     C_3   0.490120 0.313851 0.908952 -0.335091
C65   C     C_3   0.443810 0.238044 0.941285 -0.909334
H63   H     H_    0.394480 0.249313 0.988233 0.271410
H64   H     H_    0.395024 0.206778 0.892083 0.259426
H65   H     H_    0.508399 0.200711 0.967665 0.252338
H66   H     H_    0.535378 0.300772 0.860143 0.226490
H67   H     H_    0.545234 0.341035 0.957551 0.228585
H68   H     H_    0.365033 0.389437 0.926209 0.203343
H69   H     H_    0.341091 0.336407 0.839593 0.211934
C66   C     C_3   0.591173 0.628130 0.119145 -0.414646
C67   C     C_3   0.503233 0.677504 0.075076 -0.334228
C68   C     C_3   0.546728 0.755969 0.046754 -0.912986
H70   H     H_    0.579049 0.791027 0.098953 0.261451
H71   H     H_    0.610004 0.748432 0.009547 0.268967
H72   H     H_    0.482744 0.787801 0.010503 0.253364
H73   H     H_    0.462041 0.646817 0.022501 0.226543
H74   H     H_    0.443430 0.687270 0.114799 0.215081
H75   H     H_    0.638308 0.606186 0.075117 0.199994
H76   H     H_    0.648676 0.665698 0.156120 0.209357
C69   C     C_3   0.358138 0.392257 0.698953 -0.385931
C70   C     C_3   0.246241 0.416577 0.705641 -0.370395
C71   C     C_3   0.163475 0.363487 0.658828 -0.866783
H77   H     H_    0.174577 0.364160 0.594701 0.268192
H78   H     H_    0.169038 0.303286 0.683904 0.253589
H79   H     H_    0.083844 0.383573 0.663202 0.256910
H80   H     H_    0.231144 0.415930 0.768762 0.209960
H81   H     H_    0.237005 0.476868 0.682219 0.235467
H82   H     H_    0.365361 0.392133 0.635846 0.267073
H83   H     H_    0.368836 0.330991 0.718581 0.164173
C72   C     C_3   0.615765 0.622928 0.298119 -0.359112
C73   C     C_3   0.564161 0.701910 0.292486 -0.352624
C74   C     C_3   0.637528 0.763041 0.336264 -0.890748
H84   H     H_    0.666014 0.742206 0.398033 0.260376
H85   H     H_    0.706387 0.776051 0.304087 0.254778
H86   H     H_    0.595181 0.817060 0.338960 0.259165
H87   H     H_    0.544711 0.723186 0.230092 0.227381
H88   H     H_    0.488935 0.697305 0.317570 0.241940
H89   H     H_    0.636887 0.606063 0.360925 0.256388
H90   H     H_    0.694131 0.628602 0.277458 0.156199

loop_
_geom_bond_atom_site_label_1
_geom_bond_atom_site_label_2
_ccdc_geom_bond_type
C38   C40   A    
C69   C70   S    
O5    Zn1   S    
C74   H84   S    
C43   H20   S    
C66   C67   S    
C24   C27   S    
C61   C62   S    
C46   H27   S    
C48   H22   S    
C68   H70   S    
C73   H88   S    
C29   C36   A    
C50   H32   S    
C30   C35   A    
C33   H2    S    
C63   H68   S    
C19   C21   A    
C16   N2    A    
C6    C60   S    
C15   C69   S    
C18   H4    S    
C64   H66   S    
C68   H71   S    
C65   H65   S    
C39   C51   S    
C16   C72   S    
C52   H38   S    
C55   C56   S    
C23   O7    A    
C55   H46   S    
C41   H10   S    
C1    O3    A    
C58   C59   S    
C47   H26   S    
O2    Zn2   S    
C17   C19   A    
C4    C40   A    
C42   H13   S    
C54   C55   S    
C71   H78   S    
C44   C45   S    
C49   H30   S    
C66   H75   S    
C57   H55   S    
C18   C20   A    
C70   H81   S    
C62   H58   S    
C51   H40   S    
C3    C39   A    
C50   H33   S    
C29   C31   A    
C74   H85   S    
C43   H21   S    
C41   H9    S    
C34   H1    S    
C67   H74   S    
C10   C12   S    
C46   H28   S    
C48   H23   S    
O3    Zn2   S    
C51   C52   S    
O4    Zn1   S    
C59   H50   S    
C27   C34   A    
C73   H87   S    
C65   H63   S    
C63   H69   S    
C60   H62   S    
C4    C6    A    
C2    O4    A    
C68   H72   S    
C69   H82   S    
C72   C73   S    
C5    C7    A    
O7    Zn2   S    
C6    C8    A    
O8    Zn1   S    
C14   C66   S    
O6    Zn2   S    
C5    C57   S    
C35   C36   A    
C13   C63   S    
C55   H45   S    
C41   H11   S    
C8    H8    S    
C47   H25   S    
C61   H60   S    
C9    C11   S    
C20   C42   S    
C71   H77   S    
C59   H49   S    
C42   H14   S    
C9    C37   A    
C71   H79   S    
C13   C21   A    
C58   H53   S    
C23   C28   S    
C67   C68   S    
C49   H31   S    
C23   O5    A    
C66   H76   S    
C1    O1    A    
C54   H47   S    
C2    O2    A    
C70   H80   S    
C40   C54   S    
C51   H41   S    
C24   O8    A    
C73   C74   S    
C53   H36   S    
C20   C22   A    
C28   C33   A    
C52   C53   S    
C50   H34   S    
C13   C15   A    
C44   H19   S    
C70   C71   S    
C74   H86   S    
C14   C16   A    
C56   H44   S    
O1    Zn1   S    
C67   H73   S    
C17   N1    A    
C60   C61   S    
C44   H18   S    
C48   H24   S    
C18   N2    A    
C72   H89   S    
C62   H56   S    
C59   H51   S    
C7    C9    A    
C21   C25   S    
C27   C32   A    
C30   H6    S    
C28   C31   A    
C60   H61   S    
C47   C48   S    
C3    C5    A    
C69   H83   S    
C45   H17   S    
C11   C12   T    
C31   C46   S    
C32   C43   S    
C24   O6    A    
C63   C64   S    
C57   C58   S    
N1    Zn1   S    
C53   H35   S    
C37   C49   S    
C10   C38   A    
C1    C4    S    
N2    Zn2   S    
C14   C22   A    
C56   H43   S    
C2    C3    S    
C25   C26   T    
C45   H15   S    
C37   C39   A    
C64   H67   S    
C56   H42   S    
C30   C32   A    
C65   H64   S    
C19   C41   S    
C52   H39   S    
C38   C50   S    
C33   C35   A    
C34   C36   A    
C58   H52   S    
C15   N1    A    
C43   C44   S    
C54   H48   S    
C64   C65   S    
C46   C47   S    
C53   H37   S    
C8    C10   A    
C42   H12   S    
C22   C26   S    
C45   H16   S    
C17   H3    S    
C49   H29   S    
C61   H59   S    
C57   H54   S    
C29   H5    S    
C7    H7    S    
C72   H90   S    
C62   H57   S    
