data_mof_unit_57639.cif
_audit_creation_date              2012-12-11T14:50:48-0500
_audit_creation_method            fapswitch 2.2
_symmetry_space_group_name_H-M    P1
_symmetry_Int_Tables_number       1
_space_group_crystal_system       triclinic
_cell_length_a                    10.862903
_cell_length_b                    10.909979
_cell_length_c                    18.770554
_cell_angle_alpha                 89.969477
_cell_angle_beta                  89.643481
_cell_angle_gamma                 60.12491
_cell_volume                      1928.91233034

loop_
_atom_site_label
_atom_site_type_symbol
_atom_type_description
_atom_site_fract_x
_atom_site_fract_y
_atom_site_fract_z
_atom_type_partial_charge
C1    C     C_R   0.234025 0.647316 0.609082 0.548272
C2    C     C_R   0.550914 0.240408 0.798144 -0.152459
C3    C     C_R   0.534482 0.251285 0.725359 -0.142369
C4    C     C_R   0.655908 0.624305 0.599684 0.542321
C5    C     C_R   0.652875 0.199661 0.679975 0.019613
C6    C     C_R   0.184771 0.555810 0.720614 -0.157918
C7    C     C_R   0.176699 0.561113 0.794747 -0.154851
C8    C     C_R   0.164792 0.679128 0.831037 0.027472
C9    C     C_R   0.163244 0.789408 0.792537 -0.157573
C10   C     C_R   0.169777 0.785030 0.719414 -0.153484
C11   C     C_R   0.185203 0.666371 0.682745 0.024151
C12   C     C_3   0.644025 0.572170 0.799633 -0.255229
C13   C     C_R   0.684960 0.524062 0.268870 -0.125922
C14   C     C_R   0.684297 0.538580 0.194967 -0.008819
C15   C     C_R   0.644977 0.672834 0.166950 0.040243
C16   C     C_R   0.625828 0.232722 0.604577 0.541457
C17   C     C_R   0.587348 0.791297 0.212166 -0.156847
C18   C     C_R   0.588730 0.775760 0.285599 -0.164812
C19   C     C_R   0.644281 0.640894 0.314214 0.008651
C20   C     C_R   0.544776 0.157494 0.289319 -0.149044
C21   C     C_R   0.558920 0.121334 0.219170 -0.168035
C22   C     C_R   0.689432 0.070982 0.185821 0.007795
C23   C     C_3   0.696825 0.677721 0.811261 0.053255
C24   C     C_R   0.807343 0.055346 0.223618 -0.123675
C25   C     C_R   0.792476 0.105504 0.293527 -0.031817
C26   C     C_R   0.657515 0.156254 0.326621 0.031595
C27   C     C_R   0.301094 0.691794 0.271010 -0.167527
C28   C     C_R   0.290406 0.618969 0.393006 0.570475
C29   C     C_R   0.260428 0.705821 0.200534 -0.188399
C30   C     C_R   0.173938 0.652166 0.177517 0.044335
C31   C     C_R   0.143570 0.567785 0.223284 0.117290
C32   C     C_R   0.186156 0.553678 0.293656 -0.116536
C33   C     C_R   0.257958 0.622205 0.318300 0.006245
C34   C     C_3   0.672774 0.650055 0.674830 0.049024
C35   C     C_R   0.701203 0.105380 0.897071 0.538951
C36   C     C_R   0.722574 0.688613 0.887898 0.530658
C37   C     C_R   0.116002 0.707736 0.904674 0.538834
C38   C     C_R   0.702451 0.039629 0.110692 0.567682
C39   C     C_R   0.692222 0.688882 0.096342 0.543463
C40   C     C_R   0.640105 0.619599 0.390422 0.539486
C41   C     C_R   0.096746 0.706465 0.111711 0.552369
C42   C     C_R   0.619302 0.226257 0.395474 0.535504
C43   C     C_3   0.588429 0.825639 0.776926 -0.091288
C44   C     C_3   0.589362 0.809079 0.694642 -0.231139
C45   C     C_3   0.830330 0.594020 0.692763 -0.252086
C46   C     C_3   0.842351 0.621501 0.771629 -0.235646
C47   C     C_3   0.432979 0.892550 0.805546 -0.252488
C48   C     C_3   0.352991 0.054242 0.797065 -0.312586
C49   C     C_3   0.193989 0.119758 0.810886 -0.463734
C50   C     C_3   0.721755 0.412060 0.147475 -0.244947
C51   C     C_3   0.595537 0.435986 0.100292 -0.279706
C52   C     C_3   0.637491 0.405322 0.021729 -0.420595
C53   C     C_3   0.915418 0.109412 0.331062 -0.248955
C54   C     C_3   0.050299 0.062991 0.286189 -0.322047
C55   C     C_3   0.164408 0.074196 0.328047 -0.449833
C56   C     C_3   0.616303 0.567277 0.719854 -0.210213
C57   C     C_3   0.140279 0.364973 0.175657 -0.279304
C58   C     C_R   0.789212 0.141346 0.708953 -0.153282
C59   C     C_R   0.806284 0.123750 0.782628 -0.145163
C60   C     C_R   0.686777 0.167772 0.827008 0.016748
Cr1   Cr    Cr6+3 0.392930 0.397900 0.502230 1.001647
Cr2   Cr    Cr6+3 0.398240 0.708600 0.501260 0.992500
Cr3   Cr    Cr6+3 0.708800 0.393470 0.496460 0.991417
Cr4   Cr    Cr6+3 0.937620 0.938540 0.007640 0.978699
Cr5   Cr    Cr6+3 0.625150 0.937450 0.994520 0.982927
Cr6   Cr    Cr6+3 0.937990 0.625080 0.001190 1.000360
H1    H     H_    0.628087 0.900088 0.788683 0.158466
H2    H     H_    0.173982 0.476194 0.823299 0.116045
H3    H     H_    0.151086 0.882748 0.818871 0.129105
H4    H     H_    0.169032 0.872798 0.691989 0.128505
H5    H     H_    0.713955 0.421972 0.291247 0.125264
H6    H     H_    0.549031 0.895108 0.190508 0.131998
H7    H     H_    0.548371 0.867912 0.319819 0.125211
H8    H     H_    0.440081 0.196590 0.312435 0.138632
H9    H     H_    0.466278 0.134809 0.191012 0.122924
H10   H     H_    0.908060 0.011530 0.196174 0.146794
H11   H     H_    0.357878 0.743139 0.289643 0.144570
H12   H     H_    0.668721 0.454742 0.702748 0.146775
H13   H     H_    0.479724 0.859928 0.673106 0.143806
H14   H     H_    0.286861 0.768511 0.165530 0.131547
H15   H     H_    0.156439 0.494670 0.329465 0.132978
H16   H     H_    0.640616 0.864745 0.669199 0.105033
H17   H     H_    0.878310 0.700478 0.776529 0.134614
H18   H     H_    0.875089 0.646804 0.659204 0.119028
H19   H     H_    0.725395 0.465087 0.818052 0.129873
H20   H     H_    0.545324 0.603284 0.830830 0.108276
H21   H     H_    0.500331 0.612936 0.711170 0.134436
H22   H     H_    0.145098 0.086642 0.768844 0.139690
H23   H     H_    0.925708 0.520717 0.795275 0.138866
H24   H     H_    0.174131 0.087941 0.864034 0.156161
H25   H     H_    0.143124 0.236803 0.809547 0.136071
H26   H     H_    0.395946 0.099623 0.835813 0.188838
H27   H     H_    0.368860 0.083835 0.742512 0.159457
H28   H     H_    0.376824 0.847301 0.776147 0.147517
H29   H     H_    0.428314 0.867456 0.862341 0.169252
H30   H     H_    0.666578 0.482513 0.000374 0.160207
H31   H     H_    0.729038 0.297031 0.014880 0.188210
H32   H     H_    0.546684 0.414338 0.990648 0.136912
H33   H     H_    0.554553 0.366037 0.118647 0.179639
H34   H     H_    0.894275 0.478293 0.682253 0.142249
H35   H     H_    0.505773 0.546244 0.104620 0.156074
H36   H     H_    0.817737 0.385711 0.115288 0.167003
H37   H     H_    0.752801 0.316822 0.180429 0.134014
H38   H     H_    0.125813 0.185632 0.343972 0.146765
H39   H     H_    0.193644 0.007030 0.376402 0.182942
H40   H     H_    0.260677 0.037764 0.294174 0.132634
H41   H     H_    0.093044 0.952187 0.269533 0.187261
H42   H     H_    0.024610 0.130731 0.238051 0.149089
H43   H     H_    0.881167 0.219474 0.346954 0.180763
H44   H     H_    0.942920 0.042861 0.379689 0.168976
H45   H     H_    0.881515 0.106445 0.674805 0.117842
H46   H     H_    0.983602 0.520140 0.238600 0.249818
H47   H     H_    0.067109 0.330025 0.155088 0.134490
H48   H     H_    0.203408 0.293488 0.219697 0.110842
H49   H     H_    0.212568 0.357704 0.131644 0.161884
H50   H     H_    0.912167 0.068625 0.804350 0.126875
H51   H     H_    0.457321 0.278956 0.831694 0.117000
H52   H     H_    0.428218 0.301151 0.704521 0.136230
H53   H     H_    0.193103 0.464777 0.693123 0.115745
N1    N     N_2   0.058825 0.508821 0.201317 -0.476558
O1    O     O_R   0.507430 0.255570 0.581420 -0.525892
O2    O     O_R   0.837200 0.593290 0.915250 -0.534244
O3    O     O_R   0.065330 0.635370 0.931590 -0.508714
O4    O     O_R   0.280190 0.527390 0.578910 -0.502946
O5    O     O_R   0.068300 0.828790 0.091860 -0.551134
O6    O     O_R   0.798730 0.057480 0.079370 -0.521009
O7    O     O_R   0.584680 0.080480 0.076790 -0.533255
O8    O     O_R   0.626790 0.809640 0.067050 -0.527782
O9    O     O_R   0.816010 0.596460 0.076500 -0.507041
O10   O     O_R   0.045680 0.638310 0.081070 -0.465424
O11   O     O_3   0.833590 0.833690 0.001120 -0.254829
O12   O     O_R   0.524460 0.695920 0.424060 -0.521059
O13   O     O_R   0.260310 0.739740 0.584580 -0.525764
O14   O     O_R   0.532250 0.695150 0.573830 -0.507579
O15   O     O_R   0.744930 0.503430 0.576380 -0.522503
O16   O     O_R   0.699250 0.276390 0.571950 -0.501896
O17   O     O_R   0.499020 0.256400 0.419850 -0.532629
O18   O     O_R   0.272400 0.528160 0.429140 -0.509282
O19   O     O_R   0.251910 0.740570 0.423020 -0.522626
O20   O     O_R   0.736530 0.504260 0.414810 -0.527190
O21   O     O_R   0.691460 0.277160 0.422180 -0.526010
O22   O     O_3   0.499990 0.499990 0.499980 -0.262147
O23   O     O_R   0.089490 0.825610 0.930610 -0.530480
O24   O     O_R   0.818370 0.054540 0.929880 -0.507815
O25   O     O_R   0.605870 0.077310 0.915530 -0.530167
O26   O     O_R   0.646440 0.806700 0.917570 -0.512326

loop_
_geom_bond_atom_site_label_1
_geom_bond_atom_site_label_2
_ccdc_geom_bond_type
C53   H44   S    
C34   C56   S    
C27   C29   A    
Cr3   O20   S    
C1    C11   S    
C49   H24   S    
C43   C44   S    
C38   O7    A    
C56   H12   S    
C7    C8    A    
C57   H49   S    
C46   H23   S    
C14   C50   S    
C45   C46   S    
C27   C33   A    
C32   H15   S    
C29   H14   S    
C12   C23   S    
C54   H41   S    
C55   H39   S    
Cr1   O4    S    
Cr5   O7    S    
Cr2   O13   S    
Cr2   O22   S    
C44   H16   S    
C41   O10   A    
C2    C60   A    
Cr1   O18   S    
C22   C38   S    
C52   H31   S    
C59   H50   S    
C23   C43   S    
Cr1   O1    S    
C18   C19   A    
C35   O25   A    
C5    C16   S    
C38   O6    A    
C7    H2    S    
C37   O3    A    
C47   H28   S    
C47   C48   S    
C8    C9    A    
Cr6   O2    S    
C30   C41   S    
Cr2   O19   S    
C9    C10   A    
C35   O24   A    
Cr6   O9    S    
C40   O12   A    
C50   H37   S    
C23   C46   S    
C13   C14   A    
C25   C53   S    
C42   O17   A    
C49   H22   S    
C5    C58   A    
C28   O19   A    
C49   H25   S    
C1    O13   A    
Cr5   O11   S    
C2    H51   S    
C50   C51   S    
C51   H33   S    
C4    C34   S    
C48   H27   S    
C13   C19   A    
C55   H40   S    
C51   C52   S    
Cr5   O8    S    
Cr2   O12   S    
C28   O18   A    
C24   C25   A    
C10   C11   A    
C6    C11   A    
H46   N1    S    
C24   H10   S    
C56   H21   S    
C57   H47   S    
C13   H5    S    
C3    C5    A    
C58   C59   A    
C53   C54   S    
Cr4   O24   S    
C55   H38   S    
C58   H45   S    
C35   C60   S    
Cr3   O15   S    
C36   O2    A    
C16   O1    A    
C29   C30   A    
C3    H52   S    
C41   O5    A    
C31   C32   A    
Cr4   O11   S    
C42   O21   A    
C17   C18   A    
Cr3   O21   S    
C20   H8    S    
C34   C45   S    
C15   C39   S    
C12   C56   S    
C57   N1    S    
C23   C36   S    
C12   H19   S    
C36   O26   A    
C48   C49   S    
C28   C33   S    
C50   H36   S    
C18   H7    S    
Cr4   O6    S    
C4    O15   A    
C22   C24   A    
C45   H18   S    
C8    C37   S    
Cr5   O25   S    
C16   O16   A    
C10   H4    S    
C6    H53   S    
C26   C42   S    
C4    O14   A    
Cr6   O11   S    
C53   H43   S    
C15   C17   A    
C34   C44   S    
C54   C55   S    
C39   O8    A    
C37   O23   A    
Cr6   O3    S    
C44   H13   S    
C9    H3    S    
C27   H11   S    
C45   H34   S    
C6    C7    A    
Cr4   O23   S    
C54   H42   S    
C51   H35   S    
C39   O9    A    
C21   H9    S    
C12   H20   S    
C32   C33   A    
Cr2   O14   S    
C2    C3    A    
C25   C26   A    
C1    O4    A    
Cr3   O16   S    
Cr1   O17   S    
C30   C31   A    
C57   H48   S    
C20   C26   A    
C40   O20   A    
C52   H32   S    
Cr3   O22   S    
C52   H30   S    
C31   N1    S    
C19   C40   S    
C46   H17   S    
Cr1   O22   S    
C59   C60   A    
C20   C21   A    
C17   H6    S    
C43   H1    S    
Cr4   O5    S    
C48   H26   S    
C47   H29   S    
C14   C15   A    
Cr5   O26   S    
C21   C22   A    
C43   C47   S    
Cr6   O10   S    
