data_mof_unit_43448.cif
_audit_creation_date              2012-12-11T15:16:45-0500
_audit_creation_method            fapswitch 2.2
_symmetry_space_group_name_H-M    P1
_symmetry_Int_Tables_number       1
_space_group_crystal_system       triclinic
_cell_length_a                    25.100338
_cell_length_b                    7.233267
_cell_length_c                    21.938991
_cell_angle_alpha                 90.283468
_cell_angle_beta                  110.227094
_cell_angle_gamma                 89.992549
_cell_volume                      3737.49152747

loop_
_atom_site_label
_atom_site_type_symbol
_atom_type_description
_atom_site_fract_x
_atom_site_fract_y
_atom_site_fract_z
_atom_type_partial_charge
O1    O     O_R   0.554350 0.505270 0.581390 -0.530681
O2    O     O_R   0.445650 0.005270 0.418610 -0.530521
O3    O     O_R   0.553380 0.177580 0.454800 -0.542565
O4    O     O_R   0.446620 0.677580 0.545200 -0.540101
C1    C     C_R   0.566222 0.344323 0.438875 0.692674
C2    C     C_R   0.434450 0.844758 0.561826 0.690550
O5    O     O_R   0.560970 0.175640 0.583140 -0.536143
O6    O     O_R   0.439030 0.675640 0.416860 -0.534580
O7    O     O_R   0.453290 0.004120 0.547860 -0.535248
O8    O     O_R   0.546710 0.504120 0.452140 -0.536713
C3    C     C_R   0.576174 0.345021 0.607454 0.675613
C4    C     C_R   0.423968 0.843989 0.392453 0.678222
O9    O     O_3   0.464660 0.338800 0.488280 -0.371197
O10   O     O_3   0.535340 0.838800 0.511720 -0.374957
V1    V     V_3+5 0.506560 0.064420 0.502170 1.409207
V2    V     V_3+5 0.493440 0.564420 0.497830 1.413825
C5    C     C_R   0.144285 0.864032 0.287048 0.303163
C6    C     C_R   0.856040 0.304485 0.716972 0.300149
H1    H     H_    0.059272 0.872892 0.218000 0.134775
H2    H     H_    0.940573 0.314860 0.786987 0.133371
H3    H     H_    0.230669 0.843426 0.401074 0.167506
H4    H     H_    0.770023 0.256490 0.603588 0.166100
C7    C     C_R   0.120357 0.935857 0.172659 -0.157766
C8    C     C_R   0.880379 0.429018 0.826519 -0.154655
C9    C     C_R   0.398097 0.849811 0.273660 -0.156030
C10   C     C_R   0.601971 0.390242 0.725294 -0.157751
C11   C     C_R   0.359032 0.855842 0.210806 -0.148265
C12   C     C_R   0.640956 0.414163 0.787654 -0.149291
C13   C     C_R   0.301136 0.871439 0.199931 -0.141998
C14   C     C_R   0.699043 0.415426 0.798591 -0.136660
C15   C     C_R   0.280503 0.886239 0.252156 0.097461
C16   C     C_R   0.719968 0.395644 0.746777 0.097816
C17   C     C_R   0.320766 0.868064 0.316646 0.073496
C18   C     C_R   0.679671 0.357743 0.683442 0.071788
C19   C     C_R   0.220998 0.905738 0.242362 -0.083585
C20   C     C_R   0.779698 0.399918 0.756578 -0.083936
C21   C     C_R   0.202869 0.875243 0.296312 0.049105
C22   C     C_R   0.797676 0.333536 0.705638 0.047435
C23   C     C_R   0.243411 0.857785 0.358947 -0.157832
C24   C     C_R   0.757191 0.297843 0.643968 -0.160958
C25   C     C_R   0.301155 0.859517 0.369108 -0.213855
C26   C     C_R   0.699435 0.315414 0.632590 -0.219962
C27   C     C_R   0.178525 0.955187 0.181517 0.367551
C28   C     C_R   0.822518 0.467334 0.814735 0.368886
C29   C     C_R   0.103984 0.889034 0.225143 -0.323782
C30   C     C_R   0.896262 0.346944 0.777697 -0.323582
C31   C     C_R   0.379852 0.853418 0.327023 -0.081002
C32   C     C_R   0.620367 0.359623 0.672800 -0.081086
H5    H     H_    0.442900 0.838490 0.280747 0.108685
H6    H     H_    0.557007 0.393324 0.717992 0.105184
H7    H     H_    0.273413 0.862084 0.150075 0.175673
H8    H     H_    0.726643 0.423223 0.848574 0.171725
H9    H     H_    0.373706 0.845951 0.169942 0.129956
H10   H     H_    0.626017 0.431113 0.828103 0.127846
H11   H     H_    0.330369 0.846214 0.418508 0.108631
H12   H     H_    0.670224 0.287060 0.584019 0.114266
C33   C     C_R   0.097595 0.798891 0.853573 -0.243799
C34   C     C_R   0.891391 0.274032 0.132628 -0.229076
H13   H     H_    0.063106 0.700489 0.844072 0.127891
H14   H     H_    0.915943 0.154085 0.129091 0.144373
C35   C     C_R   0.133639 0.786205 0.817151 -0.145916
C36   C     C_R   0.856784 0.261106 0.170711 -0.151111
H15   H     H_    0.126103 0.677844 0.780909 0.146030
H16   H     H_    0.855115 0.131261 0.194346 0.140977
C37   C     C_R   0.178884 0.910970 0.827613 -0.012433
C38   C     C_R   0.825478 0.414145 0.178916 -0.004626
C39   C     C_R   0.187082 0.048659 0.875489 -0.202027
C40   C     C_R   0.829464 0.579931 0.147755 -0.202601
H17   H     H_    0.221792 0.146150 0.884902 0.145383
H18   H     H_    0.805494 0.699839 0.152965 0.145701
C41   C     C_R   0.150510 0.064756 0.911509 0.284082
C42   C     C_R   0.863282 0.594030 0.108491 0.279965
C43   C     C_R   0.105222 0.937833 0.900981 -0.070460
C44   C     C_R   0.895361 0.439352 0.100671 -0.075086
N1    N     N_R   0.264100 0.009027 0.803783 -0.291839
N2    N     N_R   0.763087 0.556769 0.232082 -0.284609
N3    N     N_R   0.298064 0.002430 0.768691 -0.234390
N4    N     N_R   0.730194 0.548264 0.268391 -0.232403
C45   C     C_R   0.286852 0.887267 0.716628 0.525977
C46   C     C_R   0.721513 0.385565 0.294191 0.519598
N5    N     N_R   0.240214 0.776498 0.701972 -0.302972
N6    N     N_R   0.746869 0.231094 0.281470 -0.285880
N7    N     N_R   0.206220 0.782544 0.737210 -0.291364
N8    N     N_R   0.779914 0.239645 0.245189 -0.284986
C47   C     C_R   0.217286 0.899720 0.788807 0.525007
C48   C     C_R   0.788814 0.402915 0.219710 0.515002
C49   C     C_R   0.316709 0.742527 0.628940 -0.211800
C50   C     C_R   0.655618 0.210100 0.336368 -0.203995
H19   H     H_    0.282986 0.641784 0.620433 0.153742
H20   H     H_    0.661490 0.089460 0.309999 0.160919
C51   C     C_R   0.352479 0.728543 0.592185 -0.181990
C52   C     C_R   0.617995 0.198549 0.370783 -0.171728
H21   H     H_    0.345170 0.619084 0.556333 0.128621
H22   H     H_    0.596527 0.068630 0.370715 0.127188
C53   C     C_R   0.396601 0.855969 0.600889 -0.069162
C54   C     C_R   0.607083 0.353859 0.403319 -0.074736
C55   C     C_R   0.404504 0.996730 0.647392 -0.216319
C56   C     C_R   0.635871 0.519555 0.401979 -0.228821
H23   H     H_    0.438419 0.096485 0.654782 0.119324
H24   H     H_    0.629178 0.639956 0.428009 0.127116
C57   C     C_R   0.369433 0.011000 0.685233 0.299817
C58   C     C_R   0.674853 0.531539 0.368968 0.303174
C59   C     C_R   0.324748 0.881631 0.676602 -0.014059
C60   C     C_R   0.684102 0.376110 0.334229 -0.006399
O11   O     O_R   0.953220 0.285790 0.047790 -0.542693
O12   O     O_R   0.046780 0.785790 0.952210 -0.548584
O13   O     O_R   0.939020 0.617570 0.916840 -0.531884
O14   O     O_R   0.060980 0.117570 0.083160 -0.532590
C61   C     C_R   0.924177 0.447507 0.892147 0.743479
C62   C     C_R   0.075960 0.948540 0.107596 0.771903
O15   O     O_R   0.946600 0.615450 0.045180 -0.510432
O16   O     O_R   0.053400 0.115450 0.954820 -0.518643
O17   O     O_R   0.054370 0.786770 0.081410 -0.539174
O18   O     O_R   0.945630 0.286770 0.918590 -0.542712
C63   C     C_R   0.934127 0.447563 0.061705 0.702741
C64   C     C_R   0.065966 0.946997 0.938747 0.721790
O19   O     O_3   0.035300 0.454160 0.011680 -0.378396
O20   O     O_3   0.964700 0.954160 0.988320 -0.373408
V3    V     V_3+5 0.993450 0.728620 0.997830 1.429103
V4    V     V_3+5 0.006550 0.228620 0.002170 1.425254
N9    N     N_2   0.161474 0.203300 0.960511 -0.510752
H25   H     H_    0.203305 0.204703 0.990957 0.250713
C65   C     C_3   0.142425 0.386018 0.936013 -0.478606
H26   H     H_    0.167449 0.438038 0.906595 0.179265
H27   H     H_    0.148270 0.482323 0.977407 0.195642
H28   H     H_    0.096664 0.383790 0.905630 0.199459
N10   N     N_2   0.864448 0.765210 0.077404 -0.515634
H29   H     H_    0.860801 0.878519 0.104343 0.243741
C66   C     C_3   0.825147 0.774807 0.011420 -0.476757
H30   H     H_    0.780682 0.768942 0.010703 0.177178
H31   H     H_    0.832524 0.658747 0.982064 0.229317
H32   H     H_    0.831593 0.906939 0.989352 0.189210
N11   N     N_2   0.379600 0.157056 0.731479 -0.502934
H33   H     H_    0.422177 0.181848 0.755941 0.251416
C67   C     C_3   0.349261 0.325096 0.705479 -0.493591
H34   H     H_    0.364413 0.381872 0.667408 0.180332
H35   H     H_    0.356894 0.429244 0.744954 0.211046
H36   H     H_    0.302862 0.298153 0.684378 0.212182
N12   N     N_2   0.705003 0.699950 0.371993 -0.502202
H37   H     H_    0.682863 0.815435 0.377226 0.249062
C68   C     C_3   0.762239 0.699259 0.418564 -0.497437
H38   H     H_    0.761402 0.684168 0.468633 0.176592
H39   H     H_    0.783524 0.831721 0.415539 0.210903
H40   H     H_    0.787294 0.584548 0.408144 0.204321
N13   N     N_2   0.125391 0.821587 0.339569 -0.525067
H41   H     H_    0.087874 0.885972 0.336524 0.260531
C69   C     C_3   0.123954 0.625770 0.352108 -0.549462
H42   H     H_    0.092204 0.555218 0.309972 0.195254
H43   H     H_    0.111871 0.604900 0.395729 0.205115
H44   H     H_    0.166361 0.562549 0.361417 0.205757
N14   N     N_2   0.874596 0.223675 0.668455 -0.524759
H45   H     H_    0.913532 0.272100 0.669362 0.259659
C70   C     C_3   0.871984 0.023743 0.666475 -0.559716
H46   H     H_    0.901803 0.965587 0.712441 0.193406
H47   H     H_    0.884130 0.972161 0.625356 0.203104
H48   H     H_    0.828246 0.974840 0.659216 0.204991
O21   O     O_3   0.192494 0.029067 0.131030 -0.570173
C71   C     C_3   0.203793 0.219311 0.143629 -0.228663
H49   H     H_    0.240569 0.242815 0.189135 0.137883
H50   H     H_    0.165760 0.293971 0.145993 0.148527
H51   H     H_    0.214942 0.279826 0.103307 0.160683
O22   O     O_3   0.809106 0.576325 0.859204 -0.579252
C72   C     C_3   0.800742 0.758994 0.835380 -0.262262
H52   H     H_    0.765618 0.767410 0.787661 0.148249
H53   H     H_    0.840508 0.817198 0.831516 0.151778
H54   H     H_    0.788533 0.846817 0.869929 0.154938

loop_
_geom_bond_atom_site_label_1
_geom_bond_atom_site_label_2
_ccdc_geom_bond_type
C34   C36   A    
C67   H36   S    
C38   C40   A    
O21   C71   S    
C7    C29   A    
C49   C51   A    
O12   V3    S    
C11   C13   A    
O14   V4    S    
C69   H42   S    
C18   C26   A    
O2    C4    A    
C2    O7    A    
N13   H41   S    
C65   H26   S    
C23   C25   A    
O5    C3    A    
C43   C64   S    
C46   C60   S    
C16   C20   A    
C72   H53   S    
C5    C29   A    
O22   C72   S    
C10   H6    S    
N4    C46   A    
C65   H27   S    
C34   H14   S    
H2    C30   S    
C41   C43   A    
C52   C54   A    
C7    C27   A    
O15   V3    S    
C33   C43   A    
C35   H15   S    
O20   V3    S    
C25   H11   S    
C36   H16   S    
C71   H51   S    
C26   H12   S    
O17   V3    S    
N1    C47   A    
C50   C52   A    
C12   C14   A    
C37   C39   A    
O1    C3    A    
N14   H45   S    
C15   C17   A    
O11   V4    S    
C70   H47   S    
C19   C27   A    
C9    C31   A    
C10   C32   A    
C66   H32   S    
O5    V1    S    
O6    V2    S    
C22   C24   A    
O19   V4    S    
C71   H50   S    
O13   C61   A    
C45   C59   S    
C3    C32   S    
C28   O22   S    
C4    C31   S    
O18   V4    S    
C6    C30   A    
O13   V3    S    
N13   C69   S    
C41   N9    S    
N3    C45   A    
C69   H43   S    
C36   C38   A    
C42   N10   S    
C67   H34   S    
C69   H44   S    
C42   C44   A    
C55   H23   S    
C68   H40   S    
C45   N5    A    
C12   H10   S    
C65   H28   S    
C27   O21   S    
C56   C58   A    
H1    C29   S    
C54   C56   A    
C40   C42   A    
C39   H17   S    
C16   C18   A    
O4    V2    S    
C5    N13   S    
N10   C66   S    
C38   C48   S    
C51   H21   S    
H3    C23   S    
O6    C4    A    
H4    C24   S    
C72   H54   S    
C52   H22   S    
O1    V2    S    
C5    C21   A    
C70   H48   S    
C58   C60   A    
O2    V1    S    
N1    N3    A    
C62   O17   A    
N9    H25   S    
C61   O18   A    
C49   C59   A    
C46   N6    A    
N7    C47   A    
C50   H20   S    
N6    N8    A    
C49   H19   S    
C71   H49   S    
C17   C31   A    
C15   C19   A    
C20   C28   A    
O4    C2    A    
C18   C32   A    
C6    N14   S    
N2    C48   A    
O16   C64   A    
C1    C54   S    
O3    V1    S    
C34   C44   A    
O16   V4    S    
C66   H30   S    
C13   H7    S    
C67   H35   S    
C7    C62   S    
C14   H8    S    
C53   C55   A    
C19   C21   A    
C13   C15   A    
C10   C12   A    
O11   C63   A    
C8    C61   S    
N2    N4    A    
O3    C1    A    
N5    N7    A    
N12   H37   S    
C11   H9    S    
C33   C35   A    
C57   N11   S    
C9    C11   A    
C56   H24   S    
C8    C30   A    
C68   H39   S    
C6    C22   A    
C17   C25   A    
C1    O8    A    
C21   C23   A    
C37   C47   S    
O8    V2    S    
C68   H38   S    
C20   C22   A    
C14   C16   A    
N12   C68   S    
N11   H33   S    
C8    C28   A    
C44   C63   S    
C24   C26   A    
O14   C62   A    
C39   C41   A    
C58   N12   S    
N14   C70   S    
O7    V1    S    
C9    H5    S    
N9    C65   S    
C72   H52   S    
C33   H13   S    
C51   C53   A    
C35   C37   A    
C57   C59   A    
C2    C53   S    
O9    V2    S    
O12   C64   A    
N11   C67   S    
C40   H18   S    
O10   V1    S    
N8    C48   A    
O15   C63   A    
C70   H46   S    
C50   C60   A    
C55   C57   A    
N10   H29   S    
C66   H31   S    
