data_mof_unit_13341.cif
_audit_creation_date              2012-10-26T19:21:56-0400
_audit_creation_method            fapswitch 2.2
_symmetry_space_group_name_H-M    P1
_symmetry_Int_Tables_number       1
_space_group_crystal_system       triclinic
_cell_length_a                    23.489632
_cell_length_b                    11.067518
_cell_length_c                    9.829229
_cell_angle_alpha                 112.131724
_cell_angle_beta                  97.671472
_cell_angle_gamma                 91.101892
_cell_volume                      2339.12579365

loop_
_atom_site_label
_atom_site_type_symbol
_atom_type_description
_atom_site_fract_x
_atom_site_fract_y
_atom_site_fract_z
_atom_type_partial_charge
C1    C     C_R   0.495928 0.253233 0.438742 0.558335
C2    C     C_R   0.710590 0.600026 0.613201 0.024197
C3    C     C_R   0.230221 0.408020 0.391562 -0.043478
C4    C     C_R   0.769782 0.591946 0.608452 -0.043479
C5    C     C_R   0.209960 0.502723 0.511675 0.208060
C6    C     C_R   0.790039 0.497271 0.488311 0.208067
C7    C     C_2   0.493782 0.111662 0.399854 0.041960
C8    C     C_2   0.506217 0.888338 0.600147 0.041949
C9    C     C_2   0.504123 0.068828 0.510969 -0.138196
C10   C     C_2   0.495869 0.931173 0.489035 -0.138192
C11   C     C_2   0.504741 0.511215 0.081716 -0.011893
C12   C     C_R   0.504071 0.746767 0.561258 0.558316
C13   C     C_2   0.495260 0.488784 0.918283 -0.011892
C14   C     C_R   0.391065 0.496749 0.500972 0.572394
C15   C     C_R   0.608935 0.503253 0.499028 0.572384
C16   C     C_R   0.879309 0.592523 0.463787 0.414955
C17   C     C_R   0.120690 0.407471 0.536196 0.414952
C18   C     C_R   0.879091 0.394822 0.508156 0.423749
C19   C     C_R   0.120908 0.605168 0.491821 0.423747
C20   C     C_R   0.939276 0.390071 0.507182 0.010221
C21   C     C_R   0.060723 0.609920 0.492795 0.010222
C22   C     C_R   0.969624 0.496804 0.494669 -0.043582
C23   C     C_R   0.248849 0.591467 0.628369 -0.044623
C24   C     C_R   0.030375 0.503187 0.505309 -0.043581
C25   C     C_R   0.939276 0.597545 0.471503 0.013907
C26   C     C_R   0.060723 0.402448 0.528476 0.013909
C27   C     C_R   0.970710 0.286639 0.524328 0.043753
C28   C     C_R   0.029288 0.713352 0.475649 0.043754
C29   C     C_R   0.030795 0.296528 0.539171 -0.105549
C30   C     C_R   0.969204 0.703464 0.460809 -0.105549
C31   C     C_2   0.943644 0.162380 0.518459 0.640431
C32   C     C_2   0.056355 0.837611 0.481519 0.640431
C33   C     C_2   0.308001 0.290185 0.262273 0.594807
C34   C     C_R   0.751148 0.408560 0.371596 -0.044623
C35   C     C_2   0.692006 0.709755 0.737784 0.594806
C36   C     C_2   0.518809 0.977900 0.759697 0.580708
C37   C     C_2   0.481197 0.022099 0.240303 0.580711
C38   C     C_R   0.307836 0.586222 0.624679 -0.151835
C39   C     C_R   0.692162 0.413807 0.375293 -0.151830
C40   C     C_R   0.328722 0.492376 0.504027 -0.017482
C41   C     C_R   0.671278 0.507624 0.495972 -0.017486
C42   C     C_R   0.289413 0.399943 0.386821 0.024186
Cu1   Cu    Cu3+1 0.509980 0.521810 0.644910 1.029429
Cu2   Cu    Cu3+1 0.490020 0.478190 0.355090 1.029422
H1    H     H_    0.942879 0.026590 0.609246 0.353553
H2    H     H_    0.662725 0.342747 0.284945 0.149026
H3    H     H_    0.289868 0.165352 0.047963 0.365596
H4    H     H_    0.710137 0.834501 0.952129 0.365593
H5    H     H_    0.199373 0.338546 0.303551 0.177577
H6    H     H_    0.800632 0.661396 0.696479 0.177560
H7    H     H_    0.482158 0.860848 0.376917 0.187513
H8    H     H_    0.517829 0.139154 0.623088 0.187513
H9    H     H_    0.497231 0.134947 0.926537 0.355017
H10   H     H_    0.502779 0.865046 0.073478 0.355012
H11   H     H_    0.462274 0.414654 0.844396 0.168260
H12   H     H_    0.057119 0.973401 0.390732 0.353552
H13   H     H_    0.537727 0.585345 0.155604 0.168261
H14   H     H_    0.555667 0.625151 0.935657 0.233647
H15   H     H_    0.444333 0.374849 0.064343 0.233649
H16   H     H_    0.054209 0.217533 0.553318 0.192787
H17   H     H_    0.945790 0.782460 0.446662 0.192787
H18   H     H_    0.233290 0.664560 0.721794 0.159714
H19   H     H_    0.766706 0.335490 0.278151 0.159706
H20   H     H_    0.337271 0.657306 0.715009 0.149016
N1    N     N_R   0.850791 0.493526 0.484201 -0.400989
N2    N     N_R   0.149208 0.506467 0.515780 -0.400986
N3    N     N_2   0.475010 0.445410 0.137370 -0.348372
N4    N     N_2   0.524990 0.554590 0.862630 -0.348371
O1    O     O_R   0.505330 0.332340 0.577400 -0.518873
O2    O     O_2   0.150421 0.313113 0.562022 -0.460509
O3    O     O_2   0.849133 0.305499 0.538747 -0.425227
O4    O     O_2   0.150866 0.694489 0.461225 -0.425236
O5    O     O_2   0.906031 0.099613 0.415462 -0.426998
O6    O     O_R   0.963849 0.113145 0.626221 -0.662300
O7    O     O_2   0.093968 0.900377 0.584514 -0.427002
O8    O     O_R   0.036149 0.886847 0.373757 -0.662300
O9    O     O_2   0.352556 0.239615 0.281685 -0.463383
O10   O     O_R   0.273091 0.240924 0.123403 -0.670607
O11   O     O_2   0.647461 0.760361 0.718399 -0.463357
O12   O     O_R   0.494670 0.667660 0.422600 -0.518871
O13   O     O_R   0.726911 0.758944 0.876661 -0.670609
O14   O     O_2   0.557657 0.957183 0.842310 -0.448329
O15   O     O_R   0.484758 0.082385 0.816531 -0.704307
O16   O     O_2   0.442354 0.042817 0.157676 -0.448343
O17   O     O_R   0.515247 0.917609 0.183485 -0.704311
O18   O     O_R   0.488470 0.295500 0.332650 -0.445202
O19   O     O_R   0.511530 0.704500 0.667350 -0.445210
O20   O     O_R   0.426310 0.518390 0.622390 -0.506762
O21   O     O_R   0.573690 0.481610 0.377610 -0.506771
O22   O     O_R   0.409450 0.481550 0.377650 -0.461056
O23   O     O_R   0.590550 0.518450 0.622350 -0.461050
O24   O     O_2   0.849578 0.686884 0.437968 -0.460500

loop_
_geom_bond_atom_site_label_1
_geom_bond_atom_site_label_2
_ccdc_geom_bond_type
C2    C35   S    
C3    C42   A    
C17   C26   A    
H12   O8    S    
C27   C29   A    
C32   O7    D    
C3    H5    S    
C39   C41   A    
C18   N1    A    
C17   N2    A    
C33   C42   S    
C37   O17   S    
C19   C21   A    
C24   C26   A    
C33   O10   S    
C31   O5    D    
C2    C41   A    
C18   O3    S    
H4    O13   S    
C19   N2    A    
C8    C36   S    
C14   O22   A    
H15   N3    S    
C6    N1    S    
C36   O14   D    
Cu1   N4    S    
C22   C25   A    
C37   O16   D    
C9    C10   S    
C40   C42   A    
C17   O2    S    
Cu1   O1    S    
C19   O4    S    
C9    H8    S    
Cu2   O18   S    
C10   H7    S    
C11   N3    D    
C38   H20   S    
C23   H18   S    
C35   O13   S    
C27   C31   S    
C34   C39   A    
C28   C32   S    
C15   C41   S    
C4    C6    A    
C31   O6    S    
C14   C40   S    
Cu1   O23   S    
C6    C34   A    
C4    H6    S    
H1    O6    S    
C2    C4    A    
Cu1   Cu2   S    
C15   O21   A    
C16   C25   A    
C5    C23   A    
C29   H16   S    
Cu2   O12   S    
C8    C12   S    
C7    C37   S    
C39   H2    S    
H14   N4    S    
C21   C28   A    
C20   C22   A    
C16   O24   S    
C22   C24   A    
C30   H17   S    
Cu1   O20   S    
Cu2   O22   S    
C25   C30   A    
C7    C9    D    
C12   O19   A    
C1    C7    S    
C5    N2    S    
C3    C5    A    
C32   O8    S    
H10   O17   S    
C20   C27   A    
C23   C38   A    
H9    O15   S    
Cu1   O19   S    
C28   C30   A    
C14   O20   A    
C38   C40   A    
C11   C13   S    
C33   O9    D    
C12   O12   A    
C35   O11   D    
C34   H19   S    
C18   C20   A    
C1    O1    A    
C15   O23   A    
C1    O18   A    
C26   C29   A    
C8    C10   D    
C21   C24   A    
Cu2   N3    S    
C16   N1    A    
C36   O15   S    
H3    O10   S    
C11   H13   S    
Cu2   O21   S    
C13   H11   S    
C13   N4    D    
