data_mof_unit_34192.cif
_audit_creation_date              2012-12-11T14:07:51-0500
_audit_creation_method            fapswitch 2.2
_symmetry_space_group_name_H-M    P1
_symmetry_Int_Tables_number       1
_space_group_crystal_system       triclinic
_cell_length_a                    19.908202
_cell_length_b                    16.991835
_cell_length_c                    15.417477
_cell_angle_alpha                 89.821209
_cell_angle_beta                  52.708195
_cell_angle_gamma                 90.037812
_cell_volume                      4149.10382986

loop_
_atom_site_label
_atom_site_type_symbol
_atom_type_description
_atom_site_fract_x
_atom_site_fract_y
_atom_site_fract_z
_atom_type_partial_charge
C1    C     C_R   0.382732 0.199495 0.987434 0.494019
C2    C     C_R   0.336107 0.830509 0.056924 0.521147
C3    C     C_R   0.882732 0.699495 0.987434 0.494019
C4    C     C_R   0.836107 0.330510 0.056925 0.521155
C5    C     C_R   0.665627 0.914393 0.056664 -0.154082
C6    C     C_R   0.639923 0.102747 0.096203 -0.161913
C7    C     C_R   0.165627 0.414392 0.056664 -0.154086
C8    C     C_R   0.139927 0.602746 0.096198 -0.161913
C9    C     C_R   0.661213 0.179859 0.057846 0.140809
C10   C     C_R   0.705351 0.848988 0.990070 0.163033
C11   C     C_R   0.161220 0.679856 0.057834 0.140809
C12   C     C_R   0.205351 0.348987 0.990071 0.163033
C13   C     C_R   0.611665 0.815744 0.695855 -0.007060
C14   C     C_R   0.692373 0.138010 0.676879 -0.022022
C15   C     C_R   0.111660 0.315742 0.695859 -0.007058
C16   C     C_R   0.192371 0.637999 0.676868 -0.022032
C17   C     C_3   0.194970 0.126528 0.525086 -0.398875
C18   C     C_3   0.258444 0.785255 0.454652 -0.380852
C19   C     C_3   0.694970 0.626529 0.525086 -0.398877
C20   C     C_3   0.875415 0.278236 0.474873 -0.398263
C21   C     C_3   0.140755 0.176492 0.629072 -0.404069
C22   C     C_3   0.201079 0.737216 0.558404 -0.404701
C23   C     C_3   0.640759 0.676494 0.629071 -0.404068
C24   C     C_3   0.817008 0.230001 0.580509 -0.404848
C25   C     C_3   0.304917 0.235377 0.434915 -0.386079
C26   C     C_3   0.375574 0.778040 0.474714 -0.398289
C27   C     C_3   0.804919 0.735377 0.434911 -0.386077
C28   C     C_3   0.864101 0.173815 0.369306 -0.419128
C29   C     C_3   0.685544 0.732202 0.418939 -0.410123
C30   C     C_3   0.758432 0.285094 0.454480 -0.380806
C31   C     C_3   0.185544 0.232202 0.418939 -0.410125
C32   C     C_3   0.363897 0.673826 0.369265 -0.419270
C33   C     C_3   0.248109 0.181081 0.423229 0.405350
C34   C     C_3   0.352070 0.762929 0.396629 0.411988
C35   C     C_3   0.748109 0.681080 0.423228 0.405348
C36   C     C_3   0.852082 0.262935 0.396635 0.412008
C37   C     C_3   0.657006 0.765338 0.598954 0.400790
C38   C     C_3   0.753844 0.181064 0.574726 0.399052
C39   C     C_3   0.157003 0.265336 0.598956 0.400795
C40   C     C_3   0.253837 0.681049 0.574710 0.399089
C41   C     C_3   0.751633 0.783956 0.538294 -0.400874
C42   C     C_3   0.806394 0.125240 0.474804 -0.392870
C43   C     C_3   0.251630 0.283954 0.538299 -0.400872
C44   C     C_3   0.317087 0.729889 0.580420 -0.404842
C45   C     C_R   0.408818 0.799311 0.204778 -0.005339
C46   C     C_R   0.348552 0.169809 0.218953 -0.127661
C47   C     C_R   0.908819 0.299311 0.204783 -0.005349
C48   C     C_R   0.848551 0.669809 0.218953 -0.127660
C49   C     C_3   0.632409 0.782913 0.522312 -0.402362
C50   C     C_3   0.701079 0.237142 0.558323 -0.404722
C51   C     C_3   0.132407 0.282913 0.522312 -0.402371
C52   C     C_3   0.306285 0.625239 0.474763 -0.392898
C53   C     C_2   0.212573 0.731658 0.067858 -0.229393
C54   C     C_2   0.274250 0.308387 0.976276 -0.234504
C55   C     C_2   0.712564 0.231662 0.067873 -0.229396
C56   C     C_2   0.774250 0.808387 0.976274 -0.234502
C57   C     C_2   0.714927 0.309633 0.051016 -0.203981
C58   C     C_2   0.812832 0.748851 0.906025 -0.207131
C59   C     C_2   0.214931 0.809631 0.051010 -0.203987
C60   C     C_2   0.312831 0.248851 0.906026 -0.207131
C61   C     C_R   0.329491 0.913842 0.952636 -0.223440
C62   C     C_R   0.368595 0.112642 0.893868 -0.231691
C63   C     C_R   0.829490 0.413842 0.952637 -0.223443
C64   C     C_R   0.868595 0.612642 0.893868 -0.231691
C65   C     C_R   0.357072 0.077181 0.314962 -0.134398
C66   C     C_R   0.411709 0.891952 0.301527 -0.150323
C67   C     C_R   0.857071 0.577180 0.314961 -0.134408
C68   C     C_R   0.911717 0.391955 0.301521 -0.150342
C69   C     C_R   0.354467 0.190141 0.925914 0.001397
C70   C     C_R   0.285319 0.854648 0.029538 -0.005762
C71   C     C_R   0.854467 0.690142 0.925914 0.001396
C72   C     C_R   0.785319 0.354648 0.029539 -0.005762
C73   C     C_R   0.401146 0.812785 0.298422 -0.079511
C74   C     C_R   0.306132 0.136391 0.322169 -0.039983
C75   C     C_R   0.901161 0.312786 0.298420 -0.079521
C76   C     C_R   0.806132 0.636390 0.322169 -0.039981
C77   C     C_R   0.629265 0.198385 0.003025 -0.108790
C78   C     C_R   0.657739 0.819184 0.959443 -0.131149
C79   C     C_R   0.129271 0.698383 0.003016 -0.108788
C80   C     C_R   0.157739 0.319183 0.959443 -0.131143
C81   C     C_R   0.603190 0.801304 0.790238 -0.147773
C82   C     C_R   0.650300 0.171515 0.779725 -0.117055
C83   C     C_R   0.103188 0.301303 0.790240 -0.147775
C84   C     C_R   0.150308 0.671507 0.779713 -0.117099
C85   C     C_R   0.641871 0.077994 0.684244 -0.137516
C86   C     C_R   0.593588 0.893868 0.695685 -0.143163
C87   C     C_R   0.141862 0.577987 0.684245 -0.137481
C88   C     C_R   0.093583 0.393865 0.695688 -0.143168
H1    H     H_    0.153772 0.087406 0.517822 0.154850
H2    H     H_    0.240436 0.774604 0.399893 0.166913
H3    H     H_    0.653772 0.587408 0.517825 0.154848
H4    H     H_    0.868061 0.341361 0.497406 0.144544
H5    H     H_    0.572716 0.662444 0.672843 0.157331
H6    H     H_    0.783389 0.271655 0.649980 0.147219
H7    H     H_    0.072712 0.162442 0.672841 0.157331
H8    H     H_    0.155806 0.703120 0.553229 0.157443
H9    H     H_    0.157581 0.160425 0.683625 0.145552
H10   H     H_    0.163271 0.777913 0.628957 0.158340
H11   H     H_    0.657587 0.660427 0.683622 0.145553
H12   H     H_    0.855244 0.190299 0.592453 0.155616
H13   H     H_    0.350591 0.199860 0.437706 0.154620
H14   H     H_    0.368477 0.841156 0.497156 0.144513
H15   H     H_    0.850592 0.699860 0.437703 0.154620
H16   H     H_    0.931214 0.157013 0.327127 0.154423
H17   H     H_    0.770679 0.770720 0.591457 0.155512
H18   H     H_    0.845053 0.084918 0.485259 0.154997
H19   H     H_    0.270675 0.270717 0.591463 0.155512
H20   H     H_    0.283529 0.771585 0.649845 0.147269
H21   H     H_    0.719418 0.772309 0.347247 0.149789
H22   H     H_    0.740525 0.274208 0.399648 0.166945
H23   H     H_    0.219418 0.272309 0.347247 0.149788
H24   H     H_    0.431002 0.656916 0.326852 0.154378
H25   H     H_    0.643556 0.693898 0.412191 0.154810
H26   H     H_    0.748208 0.348848 0.475372 0.154076
H27   H     H_    0.143556 0.193898 0.412190 0.154811
H28   H     H_    0.346995 0.659584 0.314335 0.158359
H29   H     H_    0.564035 0.770918 0.565476 0.153919
H30   H     H_    0.663277 0.277898 0.628808 0.158386
H31   H     H_    0.064034 0.270919 0.565474 0.153912
H32   H     H_    0.264834 0.588319 0.465815 0.145967
H33   H     H_    0.644348 0.845630 0.496357 0.146696
H34   H     H_    0.655800 0.202989 0.553216 0.157397
H35   H     H_    0.144348 0.345629 0.496357 0.146699
H36   H     H_    0.345001 0.584904 0.485095 0.155051
H37   H     H_    0.342446 0.275767 0.363414 0.161334
H38   H     H_    0.442571 0.761681 0.434167 0.153721
H39   H     H_    0.842449 0.775766 0.363409 0.161334
H40   H     H_    0.847421 0.159434 0.314173 0.158172
H41   H     H_    0.415013 0.742209 0.169989 0.130809
H42   H     H_    0.330040 0.220292 0.195627 0.142705
H43   H     H_    0.914998 0.242208 0.170007 0.130812
H44   H     H_    0.830040 0.720291 0.195627 0.142705
H45   H     H_    0.764329 0.847650 0.516622 0.156429
H46   H     H_    0.764996 0.088305 0.465768 0.146007
H47   H     H_    0.264326 0.347648 0.516630 0.156430
H48   H     H_    0.355257 0.690133 0.592413 0.155577
H49   H     H_    0.257720 0.701548 0.073265 0.179124
H50   H     H_    0.282432 0.319902 0.038462 0.158963
H51   H     H_    0.757706 0.201550 0.073287 0.179124
H52   H     H_    0.782433 0.819902 0.038461 0.158963
H53   H     H_    0.672253 0.338155 0.039263 0.139910
H54   H     H_    0.802107 0.736157 0.846341 0.138465
H55   H     H_    0.172253 0.838152 0.039264 0.139913
H56   H     H_    0.302107 0.236157 0.846342 0.138466
H57   H     H_    0.310531 0.946330 0.910316 0.129946
H58   H     H_    0.362951 0.086159 0.834824 0.121861
H59   H     H_    0.810531 0.446331 0.910318 0.129948
H60   H     H_    0.862951 0.586160 0.834824 0.121862
H61   H     H_    0.347324 0.041583 0.379716 0.089997
H62   H     H_    0.416852 0.923211 0.358152 0.089924
H63   H     H_    0.847323 0.541581 0.379715 0.090001
H64   H     H_    0.916892 0.423217 0.358117 0.089951
H65   H     H_    0.627318 0.255015 0.972594 0.093339
H66   H     H_    0.667801 0.766439 0.914096 0.090016
H67   H     H_    0.127328 0.755012 0.972579 0.093341
H68   H     H_    0.167801 0.266439 0.914096 0.090016
H69   H     H_    0.606929 0.745354 0.820459 0.087848
H70   H     H_    0.668122 0.223061 0.801995 0.091235
H71   H     H_    0.106928 0.245354 0.820461 0.087848
H72   H     H_    0.168145 0.723054 0.801963 0.091242
H73   H     H_    0.651571 0.043119 0.619313 0.090313
H74   H     H_    0.586994 0.923620 0.639262 0.084152
H75   H     H_    0.151550 0.543103 0.619332 0.090309
H76   H     H_    0.086984 0.423615 0.639269 0.084151
H77   H     H_    0.684437 0.946306 0.099270 0.097427
H78   H     H_    0.647675 0.075392 0.153016 0.095837
H79   H     H_    0.184437 0.446305 0.099271 0.097426
H80   H     H_    0.147680 0.575392 0.153010 0.095838
H81   H     H_    0.235962 0.088334 0.533456 0.144202
H82   H     H_    0.248349 0.848975 0.475689 0.154071
H83   H     H_    0.735963 0.588334 0.533454 0.144203
H84   H     H_    0.942462 0.262095 0.434417 0.153642
N1    N     N_R   0.408680 0.130160 0.995800 -0.071020
N2    N     N_R   0.408680 0.869840 0.995800 -0.077188
N3    N     N_R   0.908680 0.630160 0.995800 -0.071019
N4    N     N_R   0.908680 0.369840 0.995800 -0.077188
N5    N     N_R   0.421680 0.867580 0.153120 -0.030674
N6    N     N_R   0.421680 0.132420 0.153120 -0.027607
N7    N     N_R   0.921680 0.367580 0.153120 -0.030666
N8    N     N_R   0.921680 0.632420 0.153120 -0.027606
N9    N     N_R   0.403730 0.921770 0.935950 -0.064558
N10   N     N_R   0.403730 0.078230 0.935950 -0.063403
N11   N     N_R   0.903730 0.421770 0.935950 -0.064558
N12   N     N_R   0.903730 0.578230 0.935950 -0.063402
N13   N     N_R   0.426630 0.075970 0.212960 -0.040211
N14   N     N_R   0.426630 0.924030 0.212960 -0.040722
N15   N     N_R   0.926630 0.575970 0.212960 -0.040212
N16   N     N_R   0.926630 0.424030 0.212960 -0.040724
N17   N     N_R   0.591320 0.134600 0.004200 -0.043103
N18   N     N_R   0.591320 0.865400 0.004200 -0.051072
N19   N     N_R   0.091320 0.634600 0.004200 -0.043101
N20   N     N_R   0.091320 0.365400 0.004200 -0.051070
N21   N     N_R   0.578320 0.867660 0.846880 -0.036519
N22   N     N_R   0.578320 0.132340 0.846880 -0.031551
N23   N     N_R   0.078320 0.367660 0.846880 -0.036518
N24   N     N_R   0.078320 0.632340 0.846880 -0.031545
N25   N     N_R   0.573370 0.074390 0.787040 -0.038018
N26   N     N_R   0.573370 0.925610 0.787040 -0.031744
N27   N     N_R   0.073370 0.574390 0.787040 -0.038020
N28   N     N_R   0.073370 0.425610 0.787040 -0.031747
N29   N     N_R   0.596270 0.927870 0.064040 -0.041521
N30   N     N_R   0.596270 0.072130 0.064040 -0.042152
N31   N     N_R   0.096270 0.427870 0.064040 -0.041521
N32   N     N_R   0.096270 0.572130 0.064040 -0.042153
Ni1   Ni    Ni4+2 0.500000 0.131190 0.000000 0.254621
Ni2   Ni    Ni4+2 0.500000 0.868810 0.000000 0.221353
Ni3   Ni    Ni4+2 0.000000 0.631190 0.000000 0.254624
Ni4   Ni    Ni4+2 0.000000 0.368810 0.000000 0.221358
Ni5   Ni    Ni4+2 0.488650 1.000000 0.862740 0.195613
Ni6   Ni    Ni4+2 0.988650 0.500000 0.862740 0.195612
Ni7   Ni    Ni4+2 0.511350 0.000000 0.137260 0.200589
Ni8   Ni    Ni4+2 0.011350 0.500000 0.137260 0.200584
O1    O     O_3   0.412320 0.268221 0.000803 -0.805040
H85   H     H_    0.422013 0.306979 0.946067 0.311684
O2    O     O_3   0.315313 0.778138 0.137571 -0.823900
H86   H     H_    0.253202 0.780019 0.194067 0.306883
O3    O     O_3   0.912320 0.768221 0.000803 -0.805040
H87   H     H_    0.922013 0.806979 0.946066 0.311683
O4    O     O_3   0.815311 0.278142 0.137575 -0.823906
H88   H     H_    0.753200 0.280026 0.194073 0.306874

loop_
_geom_bond_atom_site_label_1
_geom_bond_atom_site_label_2
_ccdc_geom_bond_type
C61   C70   A    
C44   H48   S    
N4    N11   A    
C87   H75   S    
N12   Ni6   S    
C6    H78   S    
N25   Ni5   S    
C45   H41   S    
C22   H10   S    
C51   H35   S    
C65   C74   A    
C48   C76   A    
C39   C51   S    
C78   N18   A    
C87   N27   A    
N30   Ni7   S    
C45   C73   A    
C25   H13   S    
C25   C43   S    
C6    C9    A    
C41   H45   S    
C84   H72   S    
C26   C44   S    
C54   C60   D    
O1    H85   S    
C68   C75   A    
C20   H4    S    
C1    N1    A    
C34   C73   S    
C41   H17   S    
C46   N6    A    
C30   H22   S    
C37   C41   S    
C53   H49   S    
C29   H21   S    
N8    N15   A    
C19   H83   S    
C38   C42   S    
C5    N29   A    
C82   H70   S    
C17   H81   S    
C58   C71   S    
N22   N25   A    
C62   N10   A    
N21   N26   A    
N6    Ni1   S    
C13   C81   A    
C16   C84   A    
C55   H51   S    
N5    Ni2   S    
C79   N19   A    
N9    Ni5   S    
C26   H38   S    
C64   C71   A    
C27   H15   S    
C19   C35   S    
N26   Ni5   S    
C25   H37   S    
C85   H73   S    
C32   C52   S    
C47   N7    A    
C21   H9    S    
C8    H80   S    
C77   H65   S    
N6    N13   A    
C27   H39   S    
N18   Ni2   S    
C49   H29   S    
N23   Ni4   S    
C20   C24   S    
N17   Ni1   S    
C27   C41   S    
C50   H34   S    
C13   C86   A    
C16   C87   A    
C51   H31   S    
C31   C33   S    
C15   C88   A    
C86   H74   S    
N3    Ni3   S    
N8    Ni3   S    
C10   C56   S    
C13   C37   S    
C11   C53   S    
C45   N5    A    
C52   H36   S    
C44   H20   S    
C30   C50   S    
C59   H55   S    
C2    O2    S    
C50   H30   S    
N14   Ni7   S    
C64   H60   S    
C83   N23   A    
C80   N20   A    
C17   C33   S    
N24   N27   A    
N2    N9    A    
C63   H59   S    
C61   H57   S    
C67   N15   A    
C80   H68   S    
C31   H27   S    
C18   H82   S    
C10   C78   A    
C7    C12   A    
C65   N13   A    
C35   C76   S    
C48   N8    A    
C63   N11   A    
C67   H63   S    
C18   H2    S    
C8    N32   A    
C81   H69   S    
C26   H14   S    
O4    H88   S    
C19   C23   S    
C78   H66   S    
C20   C36   S    
C29   C49   S    
N7    N16   A    
C21   H7    S    
C27   C35   S    
O3    H87   S    
C40   C52   S    
C66   C73   A    
C81   N21   A    
N10   Ni5   S    
C1    C69   A    
N5    N14   A    
C23   H5    S    
C62   C69   A    
C47   H43   S    
N11   Ni6   S    
C32   C34   S    
C3    C71   A    
O2    H86   S    
C68   H64   S    
C36   C75   S    
C24   H6    S    
C14   C38   S    
C18   C34   S    
C23   H11   S    
C28   H16   S    
C24   C38   S    
C21   C39   S    
C88   H76   S    
C3    O3    S    
C4    O4    S    
C22   C40   S    
N32   Ni8   S    
N13   Ni7   S    
C4    N4    A    
C17   H1    S    
C43   H19   S    
C32   H28   S    
C43   H47   S    
C42   H18   S    
C46   C74   A    
C15   C39   S    
C37   C49   S    
C11   C79   A    
C86   N26   A    
C9    C55   S    
C52   H32   S    
C85   N25   A    
C20   H84   S    
C16   C40   S    
N1    N10   A    
N20   Ni4   S    
C5    H77   S    
C66   N14   A    
C1    O1    S    
N17   N30   A    
C68   N16   A    
N31   Ni8   S    
C7    N31   A    
C14   C82   A    
C4    C72   A    
N23   N28   A    
C30   H26   S    
C3    N3    A    
N22   Ni1   S    
C7    H79   S    
N7    Ni4   S    
C58   H54   S    
C32   H24   S    
C66   H62   S    
C26   C34   S    
C18   C22   S    
C22   H8    S    
C14   C85   A    
C31   C51   S    
N15   Ni8   S    
C46   H42   S    
C15   C83   A    
C24   H12   S    
N18   N29   A    
C6    N30   A    
C38   C50   S    
C30   C36   S    
N19   Ni3   S    
C53   C59   D    
C29   C35   S    
C61   N9    A    
C57   H53   S    
C42   H46   S    
N27   Ni6   S    
C77   N17   A    
C88   N28   A    
N24   Ni3   S    
C55   C57   D    
C9    C77   A    
C47   C75   A    
C5    C10   A    
C23   C37   S    
C60   H56   S    
N16   Ni8   S    
N4    Ni4   S    
C54   H50   S    
C60   C69   S    
C84   N24   A    
C8    C11   A    
C56   H52   S    
C12   C80   A    
C28   C42   S    
N20   N31   A    
C56   C58   D    
C49   H33   S    
C57   C72   S    
C65   H61   S    
N28   Ni6   S    
C82   N22   A    
C19   H3    S    
N19   N32   A    
C2    N2    A    
C59   C70   S    
C79   H67   S    
C64   N12   A    
C28   H40   S    
C33   C74   S    
C40   C44   S    
C83   H71   S    
C63   C72   A    
C28   C36   S    
C62   H58   S    
C39   C43   S    
C29   H25   S    
N2    Ni2   S    
C31   H23   S    
C48   H44   S    
N1    Ni1   S    
N21   Ni2   S    
C2    C70   A    
N29   Ni7   S    
C12   C54   S    
C67   C76   A    
C25   C33   S    
N3    N12   A    
C17   C21   S    
