data_mof_unit_31914.cif
_audit_creation_date              2012-12-10T17:22:50-0500
_audit_creation_method            fapswitch 2.2
_symmetry_space_group_name_H-M    P1
_symmetry_Int_Tables_number       1
_space_group_crystal_system       triclinic
_cell_length_a                    10.13778
_cell_length_b                    10.527121
_cell_length_c                    10.797137
_cell_angle_alpha                 90.078052
_cell_angle_beta                  95.419939
_cell_angle_gamma                 81.654192
_cell_volume                      1134.89914146

loop_
_atom_site_label
_atom_site_type_symbol
_atom_type_description
_atom_site_fract_x
_atom_site_fract_y
_atom_site_fract_z
_atom_type_partial_charge
C1    C     C_R   0.443808 0.505130 0.267338 0.981884
C2    C     C_3   0.498539 0.123382 0.500199 -0.360055
C3    C     C_3   0.624963 0.941514 0.481155 -0.336103
C4    C     C_3   0.375080 0.058248 0.519112 -0.335676
C5    C     C_2   0.411812 0.496695 0.135131 -0.239769
C6    C     C_2   0.587731 0.469655 0.864744 -0.223208
C7    C     C_2   0.511517 0.456670 0.066030 -0.069201
C8    C     C_2   0.487322 0.460218 0.933715 -0.083181
C9    C     C_2   0.072691 0.489370 0.489952 -0.089145
C10   C     C_2   0.927317 0.510605 0.510068 -0.085520
C11   C     C_R   0.556098 0.488033 0.732638 0.984572
C12   C     C_R   0.499287 0.257777 0.499968 1.023170
C13   C     C_R   0.500735 0.742158 0.500090 1.039871
C14   C     C_3   0.533312 0.036687 0.390747 0.392235
C15   C     C_3   0.466750 0.963021 0.609583 0.380965
C16   C     C_3   0.411821 0.970198 0.409382 0.384364
C17   C     C_3   0.588295 0.029520 0.590972 0.354483
C18   C     C_3   0.501541 0.876455 0.500063 -0.368206
H1    H     H_    0.726273 0.891703 0.465805 0.237521
H2    H     H_    0.120074 0.617964 0.614559 0.208311
H3    H     H_    0.167307 0.027840 0.137232 0.396832
H4    H     H_    0.737555 0.938147 0.866708 0.393594
H5    H     H_    0.623237 0.995884 0.071897 0.396991
H6    H     H_    0.382553 0.997902 0.931082 0.412445
H7    H     H_    0.273746 0.108042 0.534396 0.236222
H8    H     H_    0.384237 0.464431 0.893356 0.192801
H9    H     H_    0.614213 0.429140 0.106371 0.201569
H10   H     H_    0.690511 0.465574 0.905625 0.159427
H11   H     H_    0.309405 0.524147 0.094294 0.164443
H12   H     H_    0.891395 0.580456 0.577730 0.176447
H13   H     H_    0.108620 0.419507 0.422303 0.175768
H14   H     H_    0.879917 0.382050 0.385424 0.204543
N1    N     N_2   0.157310 0.552180 0.551120 -0.178565
N2    N     N_2   0.842690 0.447820 0.448880 -0.178679
O1    O     O_R   0.568940 0.489500 0.307530 -0.615282
O2    O     O_2   0.186718 0.868546 0.346286 -0.258774
O3    O     O_3   0.223224 0.059641 0.207429 -0.497107
O4    O     O_2   0.812140 0.133707 0.653376 -0.226465
O5    O     O_2   0.638265 0.164551 0.797759 -0.300056
O6    O     O_3   0.782283 0.938578 0.789087 -0.494019
O7    O     O_2   0.466679 0.183620 0.184694 -0.287535
O8    O     O_2   0.703862 0.148627 0.265692 -0.279694
O9    O     O_3   0.605704 0.959995 0.152485 -0.489035
O10   O     O_2   0.288637 0.860299 0.732676 -0.253304
O11   O     O_2   0.525841 0.805337 0.809254 -0.327922
O12   O     O_R   0.431060 0.510500 0.692470 -0.612783
O13   O     O_3   0.405023 0.034490 0.852582 -0.493924
O14   O     O_R   0.348880 0.522990 0.340350 -0.603420
O15   O     O_R   0.651120 0.477010 0.659650 -0.605476
O16   O     O_R   0.610000 0.297210 0.483560 -0.554750
O17   O     O_R   0.390000 0.702790 0.516440 -0.549792
O18   O     O_R   0.389940 0.330700 0.516390 -0.633562
O19   O     O_R   0.610060 0.669300 0.483610 -0.629156
O20   O     O_2   0.363895 0.832159 0.204638 -0.285345
S1    S     S_3+6 0.293581 0.927311 0.289204 0.089005
S2    S     S_3+6 0.707577 0.071679 0.710558 0.095415
S3    S     S_3+6 0.578471 0.087813 0.244996 0.083975
S4    S     S_3+6 0.420279 0.910348 0.754321 0.071049
Zn1   Zn    Zn3+2 0.646930 0.477640 0.478080 1.052361
Zn2   Zn    Zn3+2 0.353070 0.522360 0.521920 1.054447

loop_
_geom_bond_atom_site_label_1
_geom_bond_atom_site_label_2
_ccdc_geom_bond_type
C4    C16   S    
C15   C18   S    
C2    C4    S    
C5    C7    D    
C1    O14   A    
C3    H1    S    
C11   O15   A    
C6    H10   S    
O4    S2    D    
C8    H8    S    
C9    C10   S    
C10   H12   S    
C12   O16   A    
O5    S2    D    
O15   Zn1   S    
C2    C12   S    
C4    C15   S    
C4    H7    S    
O19   Zn1   S    
C16   S1    S    
H4    O6    S    
C7    C8    S    
C10   N2    D    
O2    S1    D    
O6    S2    S    
C2    C17   S    
C9    N1    D    
C17   S2    S    
C3    C14   S    
C13   C18   S    
C3    C18   S    
C1    C5    S    
O16   Zn1   S    
O8    S3    D    
O1    Zn1   S    
C12   O18   A    
O14   Zn2   S    
N1    Zn2   S    
C5    H11   S    
N2    Zn1   S    
C2    C14   S    
C15   S4    S    
C14   C16   S    
O11   S4    D    
C13   O19   A    
H2    N1    S    
O7    S3    D    
O3    S1    S    
O9    S3    S    
C7    H9    S    
C1    O1    A    
H3    O3    S    
C16   C18   S    
C6    C11   S    
C15   C17   S    
C14   S3    S    
C9    H13   S    
O20   S1    D    
C11   O12   A    
C6    C8    D    
O17   Zn2   S    
O18   Zn2   S    
O12   Zn2   S    
C13   O17   A    
H6    O13   S    
H5    O9    S    
C3    C17   S    
O10   S4    D    
O13   S4    S    
H14   N2    S    
