data_mof_unit_42822.cif
_audit_creation_date              2012-12-11T17:10:33-0500
_audit_creation_method            fapswitch 2.2
_symmetry_space_group_name_H-M    P1
_symmetry_Int_Tables_number       1
_space_group_crystal_system       triclinic
_cell_length_a                    14.823239
_cell_length_b                    14.858166
_cell_length_c                    14.927187
_cell_angle_alpha                 109.534833
_cell_angle_beta                  110.016306
_cell_angle_gamma                 108.952138
_cell_volume                      2527.87152203

loop_
_atom_site_label
_atom_site_type_symbol
_atom_type_description
_atom_site_fract_x
_atom_site_fract_y
_atom_site_fract_z
_atom_type_partial_charge
C1    C     C_R   0.185524 0.278785 0.253754 -0.137228
C2    C     C_R   0.405877 0.497186 0.195661 -0.145710
C3    C     C_R   0.564624 0.815367 0.591679 -0.108911
C4    C     C_R   0.523814 0.430369 0.743583 -0.142967
C5    C     C_R   0.723111 0.476742 0.409195 -0.120132
C6    C     C_R   0.549574 0.825391 0.498801 0.064960
C7    C     C_R   0.826985 0.555525 0.502072 0.056348
C8    C     C_R   0.437724 0.436445 0.133798 0.079021
C9    C     C_R   0.801312 0.803155 0.868903 0.064460
C10   C     C_R   0.068947 0.577153 0.163017 -0.104527
C11   C     C_R   0.079061 0.614210 0.267854 -0.022891
C12   C     C_R   0.450326 0.447594 0.773918 0.068325
C13   C     C_R   0.013221 0.538342 0.287647 0.008140
C14   C     C_R   0.936448 0.429395 0.201318 -0.156531
C15   C     C_R   0.927193 0.394642 0.097861 -0.104161
C16   C     C_R   0.505449 0.200855 0.408311 -0.150694
C17   C     C_R   0.993808 0.468143 0.078990 -0.155089
C18   C     C_R   0.927393 0.567235 0.400833 -0.217971
C19   C     C_R   0.930482 0.605475 0.501640 0.051274
C20   C     C_R   0.034527 0.675155 0.599567 0.031033
C21   C     C_R   0.126073 0.670809 0.595809 -0.233421
C22   C     C_R   0.115941 0.607317 0.495086 0.040153
C23   C     C_R   0.566743 0.197307 0.498967 0.089696
C24   C     C_R   0.020590 0.571420 0.396365 0.011511
C25   C     C_R   0.999123 0.821737 0.696801 -0.139451
C26   C     C_R   0.017299 0.902840 0.792978 -0.098177
C27   C     C_R   0.087676 0.921397 0.895618 -0.088291
C28   C     C_R   0.290712 0.597500 0.589220 -0.126937
C29   C     C_R   0.138374 0.857482 0.902309 -0.120074
C30   C     C_R   0.120285 0.775985 0.806285 -0.168804
C31   C     C_R   0.050774 0.757632 0.702385 0.110008
C32   C     C_R   0.465329 0.356568 0.885489 0.140223
C33   C     C_R   0.410540 0.401313 0.833530 0.055758
C34   C     C_R   0.197590 0.570128 0.496518 0.070842
C35   C     C_R   0.333680 0.421120 0.859627 -0.199083
C36   C     C_R   0.332444 0.421156 0.953054 -0.194490
C37   C     C_R   0.408576 0.402062 0.020043 0.036701
C38   C     C_R   0.467135 0.360768 0.979475 0.084783
C39   C     C_3   0.585527 0.386847 0.033788 -0.167053
C40   C     C_R   0.596126 0.290409 0.590847 -0.136512
C41   C     C_3   0.583038 0.379809 0.929597 -0.563119
C42   C     C_R   0.556014 0.927944 0.396651 0.156450
C43   C     C_R   0.596406 0.926785 0.495858 0.038257
C44   C     C_R   0.667573 0.028791 0.594443 -0.187587
C45   C     C_R   0.475254 0.721450 0.407572 -0.125982
C46   C     C_R   0.671131 0.124273 0.594924 -0.192181
C47   C     C_R   0.604275 0.117350 0.496599 0.034048
C48   C     C_R   0.560097 0.022213 0.397182 0.152548
C49   C     C_3   0.450697 0.959101 0.292925 -0.503533
C50   C     C_3   0.445922 0.856014 0.292101 -0.500277
C51   C     C_R   0.967322 0.073645 0.124282 0.167491
C52   C     C_R   0.200016 0.505091 0.407048 -0.159191
C53   C     C_R   0.067346 0.073766 0.168560 0.047244
C54   C     C_R   0.062933 0.971439 0.140240 -0.206611
C55   C     C_R   0.967570 0.875824 0.048345 -0.175649
C56   C     C_R   0.815487 0.566424 0.593253 -0.136256
C57   C     C_R   0.877020 0.883228 0.986289 0.040581
C58   C     C_R   0.872434 0.979148 0.035236 0.023537
C59   C     C_3   0.833367 0.042957 0.987739 -0.214240
C60   C     C_3   0.938136 0.145791 0.084280 -0.635994
C61   C     C_R   0.434789 0.526102 0.749822 -0.123621
C62   C     C_R   0.276021 0.184537 0.248911 -0.131176
C63   C     C_R   0.172594 0.174727 0.223783 0.063241
C64   C     C_2   0.155701 0.731900 0.354115 0.473722
C65   C     C_1   0.662691 0.499352 0.129026 0.114740
C66   C     C_2   0.731698 0.039739 0.990040 0.519241
C67   C     C_R   0.496174 0.404103 0.196880 -0.138319
C68   C     C_R   0.706669 0.798932 0.803809 -0.181230
C69   C     C_R   0.801157 0.710243 0.805466 -0.108258
H1    H     H_    0.124385 0.303122 0.251457 0.119098
H2    H     H_    0.118586 0.632785 0.145549 0.143539
H3    H     H_    0.550456 0.371426 0.745448 0.117237
H4    H     H_    0.884668 0.370919 0.214789 0.114317
H5    H     H_    0.868446 0.310430 0.032259 0.135595
H6    H     H_    0.851380 0.528701 0.324298 0.133130
H7    H     H_    0.204351 0.715858 0.671679 0.125866
H8    H     H_    0.945694 0.809734 0.617994 0.117703
H9    H     H_    0.977482 0.951937 0.787990 0.110092
H10   H     H_    0.102999 0.985502 0.969911 0.121124
H11   H     H_    0.192168 0.871487 0.982021 0.110518
H12   H     H_    0.878389 0.616650 0.679036 0.117290
H13   H     H_    0.160088 0.727116 0.813137 0.107669
H14   H     H_    0.284471 0.449101 0.816667 0.125806
H15   H     H_    0.486329 0.153748 0.324980 0.097889
H16   H     H_    0.281056 0.447558 0.978450 0.122663
H17   H     H_    0.596239 0.321707 0.048968 0.132105
H18   H     H_    0.640610 0.458764 0.941665 0.201714
H19   H     H_    0.588407 0.307769 0.882496 0.194766
H20   H     H_    0.708504 0.033585 0.672739 0.133440
H21   H     H_    0.714601 0.198735 0.673612 0.125743
H22   H     H_    0.385285 0.973111 0.304701 0.221941
H23   H     H_    0.516795 0.340717 0.168600 0.088428
H24   H     H_    0.458384 0.966253 0.223767 0.182548
H25   H     H_    0.377463 0.812270 0.302955 0.242588
H26   H     H_    0.323677 0.658019 0.673441 0.092094
H27   H     H_    0.450595 0.803707 0.222339 0.183749
H28   H     H_    0.136398 0.966398 0.178038 0.140754
H29   H     H_    0.971367 0.800814 0.018666 0.129653
H30   H     H_    0.829341 0.025963 0.907537 0.157612
H31   H     H_    0.993980 0.184787 0.058007 0.205535
H32   H     H_    0.925326 0.203432 0.142106 0.187842
H33   H     H_    0.657807 0.322842 0.674945 0.085379
H34   H     H_    0.668659 0.844334 0.830940 0.135270
H35   H     H_    0.150444 0.478591 0.321898 0.121377
H36   H     H_    0.382055 0.558840 0.762076 0.094604
H37   H     H_    0.297196 0.120145 0.237538 0.094643
H38   H     H_    0.448731 0.697197 0.322607 0.106789
H39   H     H_    0.163351 0.762654 0.434678 0.039602
H40   H     H_    0.723748 0.046978 0.061453 0.016725
H41   H     H_    0.853992 0.678608 0.834749 0.087039
H42   H     H_    0.345519 0.521393 0.166208 0.089339
H43   H     H_    0.617842 0.879533 0.677009 0.123463
H44   H     H_    0.700410 0.445709 0.323904 0.095014
H45   H     H_    0.986628 0.440826 0.998705 0.111358
N1    N     N_R   0.291070 0.347930 0.293870 -0.041225
N2    N     N_R   0.497240 0.291100 0.443210 -0.037028
N3    N     N_R   0.347890 0.554050 0.556810 -0.039136
N4    N     N_R   0.554050 0.347900 0.556830 -0.039450
N5    N     N_R   0.291070 0.497250 0.443190 -0.041081
N6    N     N_R   0.497240 0.554030 0.706140 -0.039626
N7    N     N_R   0.347890 0.291110 0.293870 -0.039215
N8    N     N_R   0.445950 0.652100 0.443170 -0.042248
N9    N     N_1   0.722884 0.587767 0.203378 -0.094595
N10   N     N_R   0.708930 0.502750 0.556810 -0.043386
N11   N     N_R   0.502760 0.445970 0.293860 -0.039787
N12   N     N_R   0.652110 0.708890 0.706130 -0.039814
N13   N     N_R   0.708930 0.652070 0.706130 -0.041739
N14   N     N_R   0.445950 0.502780 0.293850 -0.039684
N15   N     N_R   0.502760 0.708900 0.556790 -0.041745
N16   N     N_R   0.652110 0.445950 0.443190 -0.042049
N17   N     N_R   0.554050 0.497220 0.706150 -0.042183
Ni1   Ni    Ni4+2 0.369690 0.500010 0.369700 0.214009
Ni2   Ni    Ni4+2 0.630310 0.499990 0.630300 0.207687
Ni3   Ni    Ni4+2 0.500000 0.369720 0.369720 0.208602
Ni4   Ni    Ni4+2 0.500000 0.630280 0.630280 0.223892
O1    O     O_2   0.210621 0.796960 0.335784 -0.611017
O2    O     O_2   0.657804 0.029865 0.911859 -0.611840

loop_
_geom_bond_atom_site_label_1
_geom_bond_atom_site_label_2
_ccdc_geom_bond_type
N11   Ni3   S    
C25   C31   A    
C40   N4    A    
C64   O1    D    
C18   H6    S    
N1    N7    A    
C6    C45   A    
C27   C29   A    
N6    N17   A    
C59   H30   S    
C35   C36   A    
C68   H34   S    
C3    C6    A    
C56   H12   S    
C39   C41   S    
C53   C54   A    
C66   O2    D    
C21   H7    S    
C26   C27   A    
N12   N13   A    
N10   Ni2   S    
C28   H26   S    
C25   H8    S    
C56   N10   A    
C36   C37   A    
C9    C69   A    
C27   H10   S    
C28   N3    A    
C67   N11   A    
C59   C66   S    
C30   C31   A    
N2    Ni3   S    
C10   C17   A    
C23   C40   A    
C1    C63   A    
C16   H15   S    
C18   C19   A    
C46   C47   A    
C53   C63   S    
N15   Ni4   S    
C19   C20   A    
N11   N14   A    
C32   C41   S    
C54   H28   S    
C32   C38   A    
N7    Ni3   S    
C4    C12   A    
C29   C30   A    
C61   H36   S    
N8    N15   A    
C9    C57   S    
C10   H2    S    
C28   C34   A    
C59   C60   S    
C21   C22   A    
C61   N6    A    
C39   C65   S    
N16   Ni3   S    
C7    C56   A    
C49   H22   S    
C22   C34   S    
C16   N2    A    
N8    Ni1   S    
C44   C46   A    
C17   H45   S    
C64   H39   S    
C4    N17   A    
N1    Ni1   S    
C41   H18   S    
C2    H42   S    
C23   C47   S    
C14   H4    S    
C11   C64   S    
C5    C7    A    
C35   H14   S    
C50   H25   S    
C42   C48   A    
C60   H31   S    
C58   C59   S    
C13   C24   S    
C51   C53   A    
C30   H13   S    
C43   C44   A    
C37   C38   A    
C69   H41   S    
C47   C48   A    
C3    H43   S    
C62   C63   A    
N5    Ni1   S    
N10   N16   A    
C51   C58   A    
C26   H9    S    
N4    Ni2   S    
C42   C50   S    
C46   H21   S    
N14   Ni1   S    
C48   C49   S    
N12   Ni4   S    
C16   C23   A    
C7    C19   S    
C6    C43   S    
C55   C57   A    
C36   H16   S    
C18   C24   A    
C8    C37   S    
C60   H32   S    
N3    Ni4   S    
C68   N12   A    
C4    H3    S    
C15   C17   A    
C41   H19   S    
C54   C55   A    
C52   H35   S    
C5    H44   S    
C3    N15   A    
C2    C8    A    
N13   Ni2   S    
N17   Ni2   S    
C62   H37   S    
C45   N8    A    
C34   C52   A    
C1    H1    S    
N6    Ni4   S    
C32   C33   A    
N3    N5    A    
C25   C26   A    
C9    C68   A    
C12   C61   A    
C11   C13   A    
C50   H27   S    
C57   C58   A    
C38   C39   S    
C29   H11   S    
C55   H29   S    
C67   H23   S    
C33   C35   A    
N2    N4    A    
C22   C24   A    
C65   N9    T    
C66   H40   S    
C10   C11   A    
C40   H33   S    
C52   N5    A    
C5    N16   A    
C15   H5    S    
C20   C21   A    
C69   N13   A    
C8    C67   A    
C49   C50   S    
C42   C43   A    
C14   C15   A    
C51   C60   S    
C1    N1    A    
C39   H17   S    
C49   H24   S    
C12   C33   S    
C13   C14   A    
C62   N7    A    
C44   H20   S    
C45   H38   S    
C20   C31   S    
C2    N14   A    
