data_mof_unit_34607.cif
_audit_creation_date              2012-12-10T17:04:28-0500
_audit_creation_method            fapswitch 2.2
_symmetry_space_group_name_H-M    P1
_symmetry_Int_Tables_number       1
_space_group_crystal_system       triclinic
_cell_length_a                    14.942119
_cell_length_b                    10.708414
_cell_length_c                    10.045619
_cell_angle_alpha                 91.513924
_cell_angle_beta                  90.257764
_cell_angle_gamma                 90.11068
_cell_volume                      1606.7825777

loop_
_atom_site_label
_atom_site_type_symbol
_atom_type_description
_atom_site_fract_x
_atom_site_fract_y
_atom_site_fract_z
_atom_type_partial_charge
C1    C     C_R   0.499808 0.262512 0.497905 0.912770
C2    C     C_R   0.184456 0.433828 0.592056 0.394956
C3    C     C_R   0.230849 0.508647 0.502168 -0.271391
C4    C     C_R   0.326899 0.501381 0.499899 0.847149
C5    C     C_R   0.186398 0.596214 0.423110 0.376773
C6    C     C_2   0.473030 0.929883 0.391125 -0.320456
C7    C     C_2   0.467773 0.867464 0.504623 0.236304
C8    C     C_2   0.463899 0.064604 0.391510 0.508798
C9    C     C_2   0.502994 0.130004 0.491523 -0.266959
C10   C     C_2   0.525208 0.594831 0.928311 0.396783
C11   C     C_2   0.545313 0.578469 0.075828 0.480805
C12   C     C_R   0.905695 0.590902 0.421893 0.073465
C13   C     C_R   0.492537 0.737196 0.501668 0.809585
C14   C     C_R   0.673102 0.500176 0.500432 0.867396
C15   C     C_R   0.813522 0.579310 0.413304 -0.202063
C16   C     C_R   0.768720 0.505864 0.503566 -0.053054
C17   C     C_R   0.814188 0.444736 0.603895 -0.211611
C18   C     C_R   0.906608 0.456213 0.615846 -0.077138
C19   C     C_R   0.953063 0.526914 0.521036 0.072958
C20   C     C_R   0.953823 0.397072 0.718463 0.385393
C21   C     C_R   0.046852 0.396246 0.716852 0.489166
C22   C     C_R   0.093484 0.454776 0.612652 -0.139007
C23   C     C_R   0.046612 0.529585 0.521607 -0.188021
C24   C     C_R   0.092736 0.602546 0.427372 -0.010285
C25   C     C_R   0.042981 0.677950 0.339220 0.490804
C26   C     C_R   0.950571 0.666582 0.333453 -0.239960
H1    H     H_    0.776389 0.628858 0.338132 0.177278
H2    H     H_    0.857770 0.388653 0.846927 0.326940
H3    H     H_    0.142446 0.395385 0.846540 0.373265
H4    H     H_    0.275183 0.302807 0.598575 0.348910
H5    H     H_    0.288555 0.700187 0.382151 0.330929
H6    H     H_    0.118452 0.819008 0.312688 0.366873
H7    H     H_    0.913569 0.719654 0.261093 0.180565
H8    H     H_    0.489796 0.884005 0.296719 0.165506
H9    H     H_    0.504841 0.414063 0.892325 0.181860
H10   H     H_    0.776515 0.386130 0.669750 0.162294
H11   H     H_    0.428269 0.863566 0.690257 0.379811
H12   H     H_    0.395817 0.057544 0.226730 0.348052
H13   H     H_    0.540073 0.085283 0.570383 0.153837
H14   H     H_    0.540129 0.774055 0.944734 0.324177
H15   H     H_    0.647868 0.688857 0.069280 0.314484
H16   H     H_    0.399868 0.400775 0.162241 0.405210
N1    N     N_2   0.500970 0.501330 0.852150 -0.166147
N2    N     N_2   0.500990 0.501360 0.147810 0.032632
O1    O     O_R   0.499990 0.319060 0.613040 -0.624885
O2    O     O_3   0.419688 0.122953 0.289081 -0.736324
O3    O     O_3   0.534972 0.710072 0.872054 -0.737124
O4    O     O_3   0.611232 0.649149 0.138430 -0.776776
O5    O     O_3   0.427759 0.449677 0.091247 -0.719489
O6    O     O_3   0.911827 0.339908 0.822890 -0.693528
O7    O     O_3   0.089898 0.342575 0.822781 -0.634737
O8    O     O_3   0.225336 0.334921 0.654332 -0.702705
O9    O     O_3   0.233071 0.670597 0.337000 -0.704534
O10   O     O_3   0.081936 0.761585 0.255516 -0.684951
O11   O     O_R   0.500010 0.319100 0.386900 -0.569355
O12   O     O_R   0.367830 0.499950 0.613080 -0.584643
O13   O     O_R   0.367860 0.499990 0.386940 -0.593110
O14   O     O_R   0.499990 0.680900 0.613100 -0.552835
O15   O     O_R   0.500010 0.680940 0.386960 -0.600222
O16   O     O_R   0.632140 0.500010 0.613060 -0.618978
O17   O     O_R   0.632170 0.500050 0.386920 -0.580740
O18   O     O_3   0.433312 0.925004 0.618761 -0.748862
Zn1   Zn    Zn3+2 0.499980 0.499970 0.650990 1.032679
Zn2   Zn    Zn3+2 0.500020 0.500030 0.349010 1.061479

loop_
_geom_bond_atom_site_label_1
_geom_bond_atom_site_label_2
_ccdc_geom_bond_type
C4    O13   A    
N2    O5    S    
O17   Zn2   S    
C19   C23   A    
C23   C24   A    
C7    O18   S    
C2    C22   A    
C6    C7    D    
C13   O15   A    
C17   H10   S    
C8    C9    D    
H14   O3    S    
H9    N1    S    
C26   H7    S    
C15   H1    S    
C24   C25   A    
C12   C15   A    
C21   O7    S    
C6    H8    S    
O11   Zn2   S    
C20   C21   A    
C7    C13   S    
C2    C3    A    
C1    O11   A    
O12   Zn1   S    
N1    Zn1   S    
C11   N2    D    
C21   C22   A    
C4    O12   A    
C14   O17   A    
C1    O1    A    
C11   O4    S    
C5    C24   A    
C2    O8    S    
O16   Zn1   S    
C6    C8    S    
C12   C19   A    
H6    O10   S    
C25   C26   A    
H15   O4    S    
C17   C18   A    
C18   C20   A    
H5    O9    S    
C14   C16   S    
H12   O2    S    
C10   C11   S    
H16   O5    S    
C15   C16   A    
C1    C9    S    
O15   Zn2   S    
C9    H13   S    
C14   O16   A    
C25   O10   S    
O13   Zn2   S    
C18   C19   A    
H3    O7    S    
C5    O9    S    
O14   Zn1   S    
H11   O18   S    
C22   C23   A    
C16   C17   A    
C20   O6    S    
C13   O14   A    
C8    O2    S    
C10   N1    D    
C10   O3    S    
H2    O6    S    
O1    Zn1   S    
N2    Zn2   S    
C3    C4    S    
C12   C26   A    
H4    O8    S    
C3    C5    A    
