data_mof_unit_40723.cif
_audit_creation_date              2012-12-10T18:00:46-0500
_audit_creation_method            fapswitch 2.2
_symmetry_space_group_name_H-M    P1
_symmetry_Int_Tables_number       1
_space_group_crystal_system       triclinic
_cell_length_a                    15.872146
_cell_length_b                    10.794633
_cell_length_c                    9.526613
_cell_angle_alpha                 89.849247
_cell_angle_beta                  89.894449
_cell_angle_gamma                 90.107125
_cell_volume                      1632.22133864

loop_
_atom_site_label
_atom_site_type_symbol
_atom_type_description
_atom_site_fract_x
_atom_site_fract_y
_atom_site_fract_z
_atom_type_partial_charge
C1    C     C_R   0.497322 0.262367 0.500185 0.837286
C2    C     C_R   0.502680 0.737632 0.499814 0.837310
C3    C     C_R   0.449845 0.932549 0.407309 -0.217390
C4    C     C_R   0.550162 0.067451 0.592687 -0.217382
C5    C     C_R   0.504866 0.871592 0.498803 -0.118149
C6    C     C_R   0.495140 0.128408 0.501196 -0.118156
C7    C     C_R   0.445824 0.425763 0.074710 0.002125
C8    C     C_R   0.554176 0.574237 0.925290 0.002118
C9    C     C_R   0.445858 0.425773 0.925960 -0.005338
C10   C     C_R   0.554142 0.574226 0.074040 -0.005342
C11   C     C_R   0.339817 0.500191 0.500096 0.855465
C12   C     C_R   0.660182 0.499809 0.499904 0.855477
C13   C     C_3   0.971228 0.388416 0.542792 -0.214858
C14   C     C_3   0.028772 0.611584 0.457207 -0.214861
C15   C     C_3   0.027062 0.412964 0.412792 0.042508
C16   C     C_3   0.972938 0.587036 0.587207 0.042509
C17   C     C_1   0.250183 0.500187 0.500347 -0.104733
C18   C     C_1   0.749817 0.499813 0.499653 -0.104731
C19   C     C_3   0.028288 0.476012 0.630733 -0.216709
C20   C     C_3   0.971712 0.523988 0.369266 -0.216710
C21   C     C_3   0.083035 0.499428 0.499599 0.100978
C22   C     C_3   0.916965 0.500572 0.500400 0.100978
C23   C     C_1   0.174681 0.500003 0.500246 0.033159
C24   C     C_1   0.825319 0.499997 0.499753 0.033159
C25   C     C_R   0.443124 0.060970 0.408548 -0.000907
C26   C     C_R   0.556885 0.939030 0.591447 -0.000934
Cu1   Cu    Cu3+1 0.500000 0.500020 0.640660 0.989861
Cu2   Cu    Cu3+1 0.500000 0.499980 0.359340 0.989855
H1    H     H_    0.946844 0.296707 0.577034 0.168856
H2    H     H_    0.053156 0.703293 0.422965 0.168854
H3    H     H_    0.947733 0.542902 0.261935 0.166568
H4    H     H_    0.052267 0.457098 0.738064 0.166568
H5    H     H_    0.409162 0.878874 0.339087 0.184428
H6    H     H_    0.590846 0.121129 0.660906 0.184454
H7    H     H_    0.402437 0.366206 0.130897 0.157612
H8    H     H_    0.597563 0.633793 0.869103 0.157625
H9    H     H_    0.402538 0.366156 0.870247 0.134695
H10   H     H_    0.597462 0.633844 0.129753 0.134696
N1    N     N_R   0.500020 0.500030 0.852070 -0.170400
N2    N     N_R   0.499980 0.499970 0.147930 -0.170400
O1    O     O_R   0.500000 0.319660 0.618740 -0.587056
O2    O     O_R   0.500000 0.680340 0.381260 -0.587061
O3    O     O_R   0.499990 0.319630 0.381170 -0.569121
O4    O     O_R   0.500010 0.680370 0.618830 -0.569109
O5    O     O_R   0.379080 0.500000 0.618760 -0.590125
O6    O     O_R   0.620920 0.500000 0.381240 -0.590127
O7    O     O_R   0.379080 0.499970 0.381190 -0.556696
O8    O     O_R   0.620920 0.500030 0.618810 -0.556684
C27   C     C_2   0.055867 0.314043 0.313723 0.841958
O9    O     O_2   0.003655 0.251931 0.251185 -0.581551
O10   O     O_R   0.141847 0.293157 0.293221 -0.737218
H11   H     H_    0.153158 0.223929 0.224031 0.342238
C28   C     C_2   0.944133 0.685957 0.686276 0.841959
O11   O     O_2   0.996345 0.748069 0.748816 -0.581552
O12   O     O_R   0.858152 0.706844 0.706777 -0.737224
H12   H     H_    0.846842 0.776072 0.775967 0.342229
C29   C     C_2   0.378249 0.119702 0.317886 0.832278
O13   O     O_2   0.341744 0.213346 0.356351 -0.592789
O14   O     O_R   0.356625 0.064873 0.190042 -0.759169
H13   H     H_    0.311321 0.112633 0.138192 0.332179
C30   C     C_2   0.621769 0.880301 0.682096 0.832276
O15   O     O_2   0.658244 0.786624 0.643654 -0.592795
O16   O     O_R   0.643438 0.935168 0.809899 -0.759172
H14   H     H_    0.688743 0.887405 0.861742 0.332189

loop_
_geom_bond_atom_site_label_1
_geom_bond_atom_site_label_2
_ccdc_geom_bond_type
Cu1   O8    S    
C4    C26   A    
O12   H12   S    
Cu2   O7    S    
C8    N1    A    
C2    O2    A    
Cu1   O1    S    
Cu2   O3    S    
C11   O7    A    
C13   C15   S    
C10   H10   S    
C12   O8    A    
Cu1   O5    S    
C15   C27   S    
C3    C5    A    
O14   H13   S    
C10   N2    A    
C28   O11   D    
Cu2   O6    S    
C29   O13   D    
C17   C23   T    
C25   C29   S    
C14   H2    S    
C16   C19   S    
C18   C24   T    
C19   H4    S    
C14   C21   S    
Cu2   O2    S    
C19   C21   S    
C26   C30   S    
C20   C22   S    
C13   C22   S    
C4    H6    S    
C28   O12   S    
C21   C23   S    
C30   O15   D    
C20   H3    S    
C22   C24   S    
C29   O14   S    
C6    C25   A    
C11   O5    A    
C3    H5    S    
C4    C6    A    
O16   H14   S    
C2    C5    S    
C5    C26   A    
C14   C20   S    
C15   C21   S    
C3    C25   A    
C2    O4    A    
C9    N1    A    
C12   O6    A    
C27   O9    D    
C8    H8    S    
C1    O1    A    
Cu1   Cu2   S    
C7    C9    A    
Cu2   N2    S    
C16   C28   S    
C11   C17   S    
C13   C19   S    
C16   C22   S    
C1    C6    S    
C27   O10   S    
C14   C16   S    
C7    N2    A    
C7    H7    S    
Cu1   O4    S    
C1    O3    A    
C8    C10   A    
O10   H11   S    
C13   H1    S    
Cu1   N1    S    
C15   C20   S    
C30   O16   S    
C9    H9    S    
C12   C18   S    
