data_mof_unit_68217.cif
_audit_creation_date              2012-12-11T17:12:49-0500
_audit_creation_method            fapswitch 2.2
_symmetry_space_group_name_H-M    P1
_symmetry_Int_Tables_number       1
_space_group_crystal_system       triclinic
_cell_length_a                    17.166956
_cell_length_b                    6.957851
_cell_length_c                    14.426867
_cell_angle_alpha                 89.693628
_cell_angle_beta                  108.813438
_cell_angle_gamma                 90.341367
_cell_volume                      1631.11396047

loop_
_atom_site_label
_atom_site_type_symbol
_atom_type_description
_atom_site_fract_x
_atom_site_fract_y
_atom_site_fract_z
_atom_type_partial_charge
O1    O     O_R   0.314130 0.635770 0.168990 -0.519277
O2    O     O_R   0.685870 0.364230 0.831010 -0.542131
O3    O     O_R   0.185870 0.135770 0.331010 -0.546351
O4    O     O_R   0.814130 0.864230 0.668990 -0.541716
O5    O     O_R   0.146800 0.302460 0.139760 -0.542323
O6    O     O_R   0.853200 0.697540 0.860240 -0.546575
O7    O     O_R   0.353200 0.802460 0.360240 -0.540702
O8    O     O_R   0.646800 0.197540 0.639760 -0.530547
C1    C     C_R   0.113698 0.475583 0.113394 0.705851
C2    C     C_R   0.886035 0.524096 0.887069 0.712753
C3    C     C_R   0.385758 0.975977 0.387533 0.713139
C4    C     C_R   0.613808 0.023928 0.613218 0.711542
O9    O     O_R   0.311100 0.305780 0.157130 -0.545666
O10   O     O_R   0.688900 0.694220 0.842870 -0.550388
O11   O     O_R   0.188900 0.805780 0.342870 -0.545091
O12   O     O_R   0.811100 0.194220 0.657130 -0.523502
O13   O     O_R   0.351340 0.139640 0.348510 -0.542667
O14   O     O_R   0.648660 0.860360 0.651490 -0.537085
O15   O     O_R   0.148660 0.639640 0.151490 -0.531685
O16   O     O_R   0.851340 0.360360 0.848510 -0.536142
C5    C     C_R   0.332419 0.475945 0.134705 0.713633
C6    C     C_R   0.675875 0.523559 0.873168 0.686986
C7    C     C_R   0.171999 0.975899 0.369802 0.693511
C8    C     C_R   0.829445 0.025665 0.631833 0.718985
C9    C     C_1   0.533110 0.008253 0.533645 -0.225909
C10   C     C_1   0.466156 0.991156 0.467635 -0.212063
C11   C     C_1   0.966454 0.508386 0.967131 -0.209438
C12   C     C_1   0.033157 0.490498 0.033460 -0.229618
O17   O     O_3   0.263010 0.470920 0.312770 -0.383837
O18   O     O_3   0.736990 0.529080 0.687230 -0.357046
O19   O     O_3   0.236990 0.970920 0.187230 -0.357002
O20   O     O_3   0.763010 0.029080 0.812770 -0.382581
V1    V     V_3+5 0.247590 0.194450 0.238360 1.392867
V2    V     V_3+5 0.752410 0.805550 0.761640 1.390333
V3    V     V_3+5 0.252410 0.694450 0.261640 1.411782
V4    V     V_3+5 0.747590 0.305550 0.738360 1.439467
C13   C     C_R   0.120633 0.990151 0.435481 -0.107387
C14   C     C_R   0.877469 0.018414 0.562343 -0.100276
C15   C     C_R   0.384217 0.487650 0.069089 -0.112760
C16   C     C_R   0.627876 0.513266 0.942563 -0.110422
C17   C     C_R   0.895905 0.064326 0.400714 -0.029117
C18   C     C_R   0.094533 0.058902 0.589195 -0.049918
C19   C     C_R   0.598191 0.589229 0.092883 -0.025574
C20   C     C_R   0.404982 0.527809 0.908566 -0.036158
C21   C     C_R   0.848496 0.091348 0.465382 -0.071887
C22   C     C_R   0.150852 0.052712 0.535307 -0.049188
C23   C     C_R   0.655417 0.586528 0.040642 -0.051939
C24   C     C_R   0.354174 0.549247 0.969760 -0.070534
C25   C     C_R   0.959661 0.970666 0.600638 -0.225170
C26   C     C_R   0.035030 0.976187 0.390287 -0.260150
C27   C     C_R   0.545395 0.454623 0.902335 -0.252601
C28   C     C_R   0.469234 0.477447 0.112478 -0.229573
C29   C     C_R   0.012723 0.997025 0.545106 0.076705
C30   C     C_R   0.979804 0.005595 0.443087 0.084892
C31   C     C_R   0.489270 0.477514 0.954121 0.057453
C32   C     C_R   0.521844 0.494840 0.055543 0.100238
H1    H     H_    0.012925 0.956594 0.312483 0.124939
H2    H     H_    0.983474 0.934542 0.677487 0.108578
H3    H     H_    0.494847 0.468875 0.191547 0.121078
H4    H     H_    0.523299 0.415806 0.826296 0.129917
C33   C     C_R   0.238022 0.118038 0.584313 0.049342
C34   C     C_R   0.280358 0.231328 0.535091 -0.154958
C35   C     C_R   0.364480 0.266731 0.576137 -0.092357
C36   C     C_R   0.405653 0.208687 0.671569 -0.095883
C37   C     C_R   0.361768 0.124855 0.727658 -0.098924
C38   C     C_R   0.278929 0.074619 0.683804 -0.085752
H5    H     H_    0.248291 0.303288 0.468033 0.153571
H6    H     H_    0.397045 0.346258 0.535263 0.125459
H7    H     H_    0.471166 0.230916 0.701734 0.095582
H8    H     H_    0.393295 0.089044 0.803396 0.102389
H9    H     H_    0.247915 0.995718 0.726600 0.122298
C39   C     C_R   0.782204 0.235199 0.444103 0.088969
C40   C     C_R   0.803783 0.430038 0.460703 -0.113303
C41   C     C_R   0.745247 0.563742 0.466621 -0.106831
C42   C     C_R   0.664844 0.504052 0.455134 -0.077599
C43   C     C_R   0.641936 0.312956 0.432553 -0.104298
C44   C     C_R   0.701163 0.177616 0.430534 -0.144641
H10   H     H_    0.867044 0.475900 0.475620 0.109078
H11   H     H_    0.762404 0.712712 0.481660 0.104383
H12   H     H_    0.619859 0.606566 0.461726 0.098350
H13   H     H_    0.579073 0.269025 0.420801 0.109734
H14   H     H_    0.685977 0.026804 0.424430 0.083273
C45   C     C_R   0.290628 0.700549 0.947102 0.103227
C46   C     C_R   0.316120 0.891071 0.941078 -0.121669
C47   C     C_R   0.267593 0.043721 0.951357 -0.140886
C48   C     C_R   0.193325 0.007327 0.967709 -0.049539
C49   C     C_R   0.163734 0.819769 0.964322 -0.106184
C50   C     C_R   0.212553 0.665649 0.954985 -0.125741
H15   H     H_    0.376363 0.921157 0.935881 0.101128
H16   H     H_    0.288847 0.189501 0.950114 0.112641
H17   H     H_    0.158569 0.124356 0.982815 0.105176
H18   H     H_    0.104357 0.794820 0.972951 0.111089
H19   H     H_    0.192399 0.519958 0.961074 0.078470
C51   C     C_R   0.743088 0.639999 0.096147 0.065977
C52   C     C_R   0.794931 0.738541 0.053595 -0.153666
C53   C     C_R   0.879000 0.758108 0.103505 -0.102007
C54   C     C_R   0.911703 0.690740 0.199004 -0.107317
C55   C     C_R   0.859500 0.620096 0.247743 -0.096484
C56   C     C_R   0.776365 0.588877 0.196135 -0.082372
H20   H     H_    0.771434 0.810718 0.984823 0.153815
H21   H     H_    0.918667 0.827666 0.068355 0.122072
H22   H     H_    0.977426 0.691337 0.234776 0.099690
H23   H     H_    0.884791 0.574897 0.323277 0.106184
H24   H     H_    0.739425 0.514857 0.233343 0.114439
C57   C     C_R   0.860160 0.115402 0.293928 0.095863
C58   C     C_R   0.907435 0.208103 0.242854 -0.147779
C59   C     C_R   0.875995 0.236441 0.141709 -0.099486
C60   C     C_R   0.794378 0.190700 0.091227 -0.098664
C61   C     C_R   0.744682 0.112912 0.141638 -0.109967
C62   C     C_R   0.777740 0.069736 0.241510 -0.096091
H25   H     H_    0.968458 0.262735 0.280872 0.110113
H26   H     H_    0.913982 0.301607 0.103330 0.122931
H27   H     H_    0.769420 0.217505 0.013371 0.117247
H28   H     H_    0.681265 0.081083 0.102055 0.127169
H29   H     H_    0.739343 0.997943 0.277366 0.121567
C63   C     C_R   0.102510 0.215047 0.660930 0.119485
C64   C     C_R   0.089509 0.402849 0.624012 -0.125379
C65   C     C_R   0.075088 0.550653 0.680706 -0.145052
C66   C     C_R   0.064752 0.510251 0.770472 -0.088046
C67   C     C_R   0.075835 0.323191 0.807193 -0.128175
C68   C     C_R   0.098421 0.177306 0.754672 -0.163129
H30   H     H_    0.087034 0.433156 0.549357 0.104250
H31   H     H_    0.069494 0.694666 0.653339 0.123332
H32   H     H_    0.047243 0.623287 0.810805 0.100109
H33   H     H_    0.064270 0.291179 0.874723 0.108597
H34   H     H_    0.104568 0.031497 0.781985 0.109335
C69   C     C_R   0.591194 0.767654 0.144232 0.107789
C70   C     C_R   0.541361 0.911759 0.086344 -0.138722
C71   C     C_R   0.497098 0.033667 0.126370 -0.104978
C72   C     C_R   0.506768 0.024701 0.225918 -0.067686
C73   C     C_R   0.559166 0.887889 0.284730 -0.142361
C74   C     C_R   0.601841 0.760978 0.244126 -0.182937
H35   H     H_    0.528816 0.913342 0.007729 0.100914
H36   H     H_    0.451123 0.124604 0.078120 0.125588
H37   H     H_    0.471615 0.118878 0.256531 0.102138
H38   H     H_    0.563372 0.873458 0.360568 0.106975
H39   H     H_    0.635817 0.644357 0.286840 0.120722
C75   C     C_R   0.375692 0.596790 0.803906 0.091987
C76   C     C_R   0.428270 0.702513 0.764515 -0.165165
C77   C     C_R   0.406301 0.738838 0.664377 -0.109823
C78   C     C_R   0.327174 0.696559 0.603788 -0.088503
C79   C     C_R   0.270896 0.613627 0.643418 -0.105996
C80   C     C_R   0.295254 0.558020 0.742218 -0.098918
H40   H     H_    0.487149 0.756374 0.810594 0.116472
H41   H     H_    0.449340 0.809457 0.635057 0.126524
H42   H     H_    0.308748 0.732395 0.526748 0.118431
H43   H     H_    0.209471 0.587997 0.595528 0.111630
H44   H     H_    0.252228 0.481934 0.769980 0.129108

loop_
_geom_bond_atom_site_label_1
_geom_bond_atom_site_label_2
_ccdc_geom_bond_type
C2    C11   S    
C16   C23   A    
C31   C32   A    
O1    C5    A    
C13   C26   A    
C59   H26   S    
O3    C7    A    
C52   C53   A    
C64   H30   S    
C70   C71   A    
C54   C55   A    
C14   C25   A    
C66   H32   S    
C63   C64   A    
O7    C3    A    
C70   H35   S    
C34   C35   A    
C17   C57   S    
C34   H5    S    
O20   V4    S    
C57   C62   A    
C75   C80   A    
C18   C29   A    
O8    V4    S    
O4    C8    A    
C58   C59   A    
O3    V1    S    
C37   H8    S    
C55   C56   A    
O17   V1    S    
C60   C61   A    
C40   C41   A    
C65   C66   A    
C14   C21   A    
C44   H14   S    
C69   C74   A    
C33   C38   A    
C1    O15   A    
C72   H37   S    
C2    O16   A    
O5    V1    S    
O2    C6    A    
C8    C14   S    
C40   H10   S    
O19   V1    S    
C42   H12   S    
C54   H22   S    
O11   C7    A    
C45   C50   A    
O12   C8    A    
O10   V2    S    
C53   H21   S    
C21   C39   S    
C51   C52   A    
O13   V1    S    
O11   V3    S    
C58   H25   S    
C80   H44   S    
C47   H16   S    
O4    V2    S    
C41   C42   A    
O18   V2    S    
C22   C33   S    
C77   C78   A    
C73   H38   S    
C63   C68   A    
C19   C69   S    
C52   H20   S    
C3    C10   S    
C74   H39   S    
C7    C13   S    
C25   H2    S    
O6    V2    S    
C15   C28   A    
O20   V2    S    
C60   H27   S    
C77   H41   S    
C42   C43   A    
C38   H9    S    
O5    C1    A    
C39   C44   A    
C28   H3    S    
C76   H40   S    
C45   C46   A    
C5    C15   S    
O8    C4    A    
C6    C16   S    
C53   C54   A    
O9    C5    A    
C26   C30   A    
C36   H7    S    
C46   C47   A    
C66   C67   A    
O14   V2    S    
C47   C48   A    
C61   H28   S    
C78   H42   S    
C18   C63   S    
C37   C38   A    
C41   H11   S    
C18   C22   A    
O19   V3    S    
C46   H15   S    
C59   C60   A    
C4    O14   A    
C69   C70   A    
C67   C68   A    
O1    V3    S    
C71   C72   A    
O2    V4    S    
O17   V3    S    
C50   H19   S    
C3    O13   A    
C20   C75   S    
C48   C49   A    
C26   H1    S    
O7    V3    S    
C79   H43   S    
C39   C40   A    
C73   C74   A    
C43   H13   S    
O6    C2    A    
C76   C77   A    
C29   C30   A    
C16   C27   A    
C57   C58   A    
C35   H6    S    
C64   C65   A    
C24   C45   S    
O18   V4    S    
C4    C9    S    
C48   H17   S    
C36   C37   A    
O10   C6    A    
C72   C73   A    
C9    C10   T    
C68   H34   S    
O15   V3    S    
C78   C79   A    
O12   V4    S    
C43   C44   A    
C20   C31   A    
C28   C32   A    
C51   C56   A    
C25   C29   A    
C35   C36   A    
C67   H33   S    
C23   C51   S    
C56   H24   S    
C27   C31   A    
C65   H31   S    
C33   C34   A    
C17   C30   A    
C75   C76   A    
C71   H36   S    
O16   V4    S    
C20   C24   A    
C19   C32   A    
C49   C50   A    
O9    V1    S    
C61   C62   A    
C11   C12   T    
C17   C21   A    
C79   C80   A    
C27   H4    S    
C13   C22   A    
C49   H18   S    
C19   C23   A    
C62   H29   S    
C55   H23   S    
C1    C12   S    
C15   C24   A    
