data_mof_unit_16178.cif
_audit_creation_date              2012-12-11T15:47:11-0500
_audit_creation_method            fapswitch 2.2
_symmetry_space_group_name_H-M    P1
_symmetry_Int_Tables_number       1
_space_group_crystal_system       triclinic
_cell_length_a                    20.167481
_cell_length_b                    7.256787
_cell_length_c                    13.522524
_cell_angle_alpha                 90.000066
_cell_angle_beta                  103.005371
_cell_angle_gamma                 90.0
_cell_volume                      1928.27213374

loop_
_atom_site_label
_atom_site_type_symbol
_atom_type_description
_atom_site_fract_x
_atom_site_fract_y
_atom_site_fract_z
_atom_type_partial_charge
O1    O     O_R   0.449560 0.506810 0.599700 -0.531274
O2    O     O_R   0.550440 0.006810 0.400300 -0.531274
O3    O     O_R   0.587960 0.180060 0.595760 -0.544977
O4    O     O_R   0.412040 0.680060 0.404240 -0.544978
C1    C     C_R   0.614845 0.344208 0.617712 0.701164
C2    C     C_R   0.385155 0.844208 0.382288 0.701166
O5    O     O_R   0.452380 0.177430 0.611700 -0.540555
O6    O     O_R   0.547620 0.677430 0.388300 -0.540554
O7    O     O_R   0.413900 0.001890 0.416350 -0.540887
O8    O     O_R   0.586100 0.501890 0.583650 -0.540888
C3    C     C_R   0.436845 0.345482 0.638307 0.716933
C4    C     C_R   0.563155 0.845482 0.361693 0.716932
O9    O     O_3   0.487530 0.337490 0.435890 -0.381879
O10   O     O_3   0.512470 0.837490 0.564110 -0.381881
V1    V     V_3+5 0.502310 0.064660 0.511890 1.434344
V2    V     V_3+5 0.497690 0.564660 0.488110 1.434342
C5    C     C_R   0.608326 0.808806 0.107403 0.459778
C6    C     C_R   0.391674 0.308811 0.892598 0.459787
H1    H     H_    0.515766 0.797780 0.162046 0.123309
H2    H     H_    0.484234 0.297781 0.837953 0.123296
C7    C     C_R   0.602232 0.851379 0.282937 -0.116022
C8    C     C_R   0.397768 0.351379 0.717063 -0.116016
C9    C     C_R   0.930310 0.906943 0.315398 0.535234
C10   C     C_R   0.069689 0.406939 0.684601 0.535233
C11   C     C_R   0.893805 0.943240 0.388592 -0.202012
C12   C     C_R   0.106194 0.443234 0.611407 -0.202011
C13   C     C_R   0.822946 0.938085 0.364830 0.553647
C14   C     C_R   0.177053 0.438081 0.635169 0.553648
C15   C     C_R   0.786156 0.883121 0.266321 -0.029790
C16   C     C_R   0.213844 0.383120 0.733679 -0.029789
C17   C     C_R   0.824223 0.852467 0.190693 -0.166693
C18   C     C_R   0.175776 0.352468 0.809307 -0.166694
C19   C     C_R   0.713443 0.863053 0.238876 -0.012065
C20   C     C_R   0.286557 0.363054 0.761124 -0.012069
C21   C     C_R   0.680237 0.826713 0.135611 -0.079913
C22   C     C_R   0.319764 0.326717 0.864389 -0.079906
C23   C     C_R   0.719541 0.805383 0.062689 0.633394
C24   C     C_R   0.280459 0.305390 0.937311 0.633407
C25   C     C_R   0.789881 0.815348 0.090269 -0.225858
C26   C     C_R   0.210119 0.315353 0.909731 -0.225863
C27   C     C_R   0.672720 0.868442 0.311287 -0.117488
C28   C     C_R   0.327280 0.368442 0.688713 -0.117491
C29   C     C_R   0.570220 0.820833 0.181973 -0.316720
C30   C     C_R   0.429781 0.320835 0.818027 -0.316727
C31   C     C_R   0.896241 0.866225 0.215987 -0.180395
C32   C     C_R   0.103759 0.366224 0.784013 -0.180394
H3    H     H_    0.693929 0.872756 0.391528 0.196668
H4    H     H_    0.306071 0.372755 0.608472 0.196668
H5    H     H_    0.920726 0.983967 0.464016 0.201969
H6    H     H_    0.079273 0.483959 0.535982 0.201968
H7    H     H_    0.817329 0.794637 0.030960 0.132265
H8    H     H_    0.182671 0.294644 0.969040 0.132264
C33   C     C_R   0.218428 0.023500 0.220498 -0.078497
C34   C     C_R   0.781573 0.523500 0.779500 -0.078495
H9    H     H_    0.195176 0.156583 0.199645 0.128506
H10   H     H_    0.804824 0.656583 0.800353 0.128506
C35   C     C_R   0.283626 0.019022 0.283945 -0.093068
C36   C     C_R   0.716374 0.519022 0.716054 -0.093071
H11   H     H_    0.308285 0.148285 0.310071 0.128491
H12   H     H_    0.691716 0.648285 0.689927 0.128489
C37   C     C_R   0.316306 0.850180 0.313295 -0.062207
C38   C     C_R   0.683694 0.350180 0.686704 -0.062206
C39   C     C_R   0.282097 0.685934 0.276841 -0.097475
C40   C     C_R   0.717902 0.185934 0.723160 -0.097478
H13   H     H_    0.305508 0.552959 0.297504 0.132107
H14   H     H_    0.694491 0.052959 0.702498 0.132108
C41   C     C_R   0.216894 0.690374 0.213429 -0.108696
C42   C     C_R   0.783106 0.190374 0.786571 -0.108699
H15   H     H_    0.192383 0.561003 0.187163 0.128712
H16   H     H_    0.807616 0.061003 0.812839 0.128712
C43   C     C_R   0.183961 0.859191 0.184641 -0.052097
C44   C     C_R   0.816039 0.359191 0.815359 -0.052095
O11   O     O_R   0.913920 0.203370 0.916260 -0.544150
O12   O     O_R   0.086080 0.703370 0.083740 -0.544150
O13   O     O_R   0.047620 0.535540 0.888290 -0.533272
O14   O     O_R   0.952380 0.035540 0.111710 -0.533272
C45   C     C_R   0.064052 0.368783 0.862544 0.792885
C46   C     C_R   0.935948 0.868783 0.137456 0.792885
O15   O     O_R   0.912040 0.532780 0.904220 -0.545280
O16   O     O_R   0.087960 0.032780 0.095780 -0.545280
O17   O     O_R   0.949550 0.708160 0.099720 -0.542102
O18   O     O_R   0.050450 0.208160 0.900280 -0.542102
C47   C     C_R   0.885364 0.364960 0.883203 0.707434
C48   C     C_R   0.114636 0.864960 0.116797 0.707433
O19   O     O_3   0.012480 0.375300 0.064060 -0.382688
O20   O     O_3   0.987520 0.875300 0.935940 -0.382688
V3    V     V_3+5 0.997690 0.648180 0.988110 1.487915
V4    V     V_3+5 0.002310 0.148180 0.011890 1.487916
F1    F     F_    0.690530 0.772498 0.963495 -0.674148
F2    F     F_    0.309470 0.272510 0.036506 -0.674140
O21   O     O_3   0.576792 0.753710 0.010026 -0.531848
C49   C     C_3   0.531477 0.891659 0.961868 0.118409
H17   H     H_    0.557093 0.028571 0.966266 0.129936
H18   H     H_    0.486401 0.901190 0.996173 0.138477
C50   C     C_3   0.506440 0.840877 0.850501 -0.616654
H19   H     H_    0.481274 0.703932 0.843790 0.203988
H20   H     H_    0.469140 0.944487 0.811587 0.177939
H21   H     H_    0.549930 0.835978 0.812685 0.239221
O22   O     O_3   0.423207 0.253718 0.989977 -0.531846
C51   C     C_3   0.468538 0.391641 0.038125 0.118416
H22   H     H_    0.442941 0.528583 0.033705 0.129941
H23   H     H_    0.513621 0.401093 0.003830 0.138460
C52   C     C_3   0.493558 0.340898 0.149500 -0.616645
H24   H     H_    0.518702 0.203923 0.156233 0.203995
H25   H     H_    0.530872 0.444480 0.188407 0.177938
H26   H     H_    0.450062 0.336083 0.187307 0.239216
F3    F     F_    0.999195 0.922478 0.340129 -0.663605
F4    F     F_    0.000805 0.422472 0.659870 -0.663605
F5    F     F_    0.792659 0.002950 0.437575 -0.690416
F6    F     F_    0.207341 0.502944 0.562423 -0.690416

loop_
_geom_bond_atom_site_label_1
_geom_bond_atom_site_label_2
_ccdc_geom_bond_type
C36   C38   A    
C25   H7    S    
C39   H13   S    
C9    C31   A    
C13   C15   A    
C50   H19   S    
O1    C3    A    
O16   C48   A    
O2    C4    A    
C2    O7    A    
O15   V3    S    
C50   H21   S    
O5    C3    A    
C40   C42   A    
C2    C37   S    
C21   C23   A    
C10   C12   A    
C12   H6    S    
C35   H11   S    
C36   H12   S    
C15   C19   A    
C37   C39   A    
C49   H17   S    
C38   C40   A    
C7    C29   A    
C8    C30   A    
C20   C28   A    
O15   C47   A    
C5    O21   S    
C31   C46   S    
C10   F4    S    
O12   V3    S    
C16   C18   A    
O14   V4    S    
C20   C22   A    
C42   C44   A    
O5    V1    S    
O6    V2    S    
C51   H23   S    
H2    C30   S    
H1    C29   S    
C34   H10   S    
C33   H9    S    
C23   C25   A    
C39   C41   A    
C16   C20   A    
O14   C46   A    
O4    C2    A    
O21   C49   S    
C33   C35   A    
O20   V3    S    
C14   F6    S    
C26   H8    S    
C4    C7    S    
C49   C50   S    
C41   H15   S    
C40   H14   S    
O4    V2    S    
C5    C29   A    
O11   V4    S    
C6    C30   A    
O22   C51   S    
O6    C4    A    
C9    F3    S    
C49   H18   S    
C27   H3    S    
C52   H25   S    
O1    V2    S    
C28   H4    S    
O2    V1    S    
O13   C45   A    
O17   V3    S    
C7    C27   A    
O13   V3    S    
C6    O22   S    
C33   C43   A    
O3    V1    S    
C43   C48   S    
C34   C36   A    
O19   V4    S    
C18   C32   A    
O12   C48   A    
O3    C1    A    
C32   C45   S    
C50   H20   S    
C35   C37   A    
C11   C13   A    
C24   F2    S    
C3    C8    S    
C12   C14   A    
C23   F1    S    
C19   C27   A    
C14   C16   A    
O7    V1    S    
C10   C32   A    
C1    O8    A    
C15   C17   A    
O8    V2    S    
C24   C26   A    
C46   O17   A    
C8    C28   A    
C45   O18   A    
O18   V4    S    
C22   C24   A    
C51   H22   S    
C19   C21   A    
C17   C25   A    
C1    C38   S    
C52   H26   S    
C41   C43   A    
C18   C26   A    
C51   C52   S    
C11   H5    S    
C44   C47   S    
C9    C11   A    
C34   C44   A    
C13   F5    S    
O16   V4    S    
C17   C31   A    
O9    V2    S    
C52   H24   S    
C42   H16   S    
O10   V1    S    
C5    C21   A    
C6    C22   A    
O11   C47   A    
