data_mof_unit_13376.cif
_audit_creation_date              2013-03-05T15:42:12-0500
_audit_creation_method            fapswitch 2.2
_symmetry_space_group_name_H-M    P1
_symmetry_Int_Tables_number       1
_space_group_crystal_system       triclinic
_cell_length_a                    7.740103
_cell_length_b                    8.67649
_cell_length_c                    16.864364
_cell_angle_alpha                 91.589679
_cell_angle_beta                  82.576979
_cell_angle_gamma                 93.608523
_cell_volume                      1120.62056521

loop_
_atom_site_label
_atom_site_type_symbol
_atom_site_description
_atom_site_fract_x
_atom_site_fract_y
_atom_site_fract_z
_atom_type_partial_charge
O1    O     O_R   0.388470 0.738640 0.505270 -0.573996
O2    O     O_R   0.611530 0.261360 0.494730 -0.574032
O3    O     O_R   0.679650 0.711510 0.491500 -0.597631
O4    O     O_R   0.320350 0.288490 0.508500 -0.597639
C1    C     C_R   0.545583 0.794003 0.497015 0.900785
C2    C     C_R   0.454417 0.205997 0.502986 0.900695
O5    O     O_R   0.337210 0.515200 0.623500 -0.574671
O6    O     O_R   0.662790 0.484800 0.376500 -0.574675
O7    O     O_R   0.628380 0.488060 0.609730 -0.636673
O8    O     O_R   0.371620 0.511940 0.390270 -0.636634
C3    C     C_R   0.482449 0.509657 0.653505 0.954334
C4    C     C_R   0.517550 0.490324 0.346496 0.954231
Zn1   Zn    Zn3+2 0.305580 0.518120 0.509190 1.095620
Zn2   Zn    Zn3+2 0.694420 0.481880 0.490810 1.095620
C5    C     C_R   0.489833 0.539541 0.738248 -0.243238
C6    C     C_R   0.510184 0.460343 0.261758 -0.243339
C7    C     C_R   0.628707 0.481249 0.771090 -0.229506
C8    C     C_R   0.371270 0.518487 0.228886 -0.229348
C9    C     C_R   0.650361 0.511060 0.850239 0.299991
C10   C     C_R   0.349717 0.488619 0.149729 0.300016
C11   C     C_R   0.521706 0.589856 0.899112 -0.129442
C12   C     C_R   0.478483 0.409883 0.100888 -0.129566
C13   C     C_R   0.393030 0.664975 0.865281 0.246082
C14   C     C_R   0.607195 0.334874 0.134756 0.245981
C15   C     C_R   0.376840 0.639345 0.783901 0.227542
C16   C     C_R   0.623292 0.360594 0.216138 0.227605
C17   C     C_2   0.506000 0.571329 0.985239 -0.028223
C18   C     C_2   0.494253 0.428403 0.014758 -0.028026
H1    H     H_    0.723071 0.413842 0.734449 0.231765
H2    H     H_    0.276821 0.585845 0.265505 0.231783
H3    H     H_    0.505550 0.326962 0.975557 0.201458
H4    H     H_    0.494670 0.672765 0.024443 0.201356
C19   C     C_2   0.569332 0.955878 0.501195 0.019916
C20   C     C_2   0.430666 0.044122 0.498810 0.019909
N1    N     N_2   0.953500 0.457650 0.478520 -0.138371
N2    N     N_2   0.046500 0.542350 0.521480 -0.138392
H5    H     H_    0.022741 0.382370 0.440362 0.236929
H6    H     H_    0.977259 0.617630 0.559638 0.236899
N3    N     N_R   0.751854 0.283889 0.252008 0.247660
O9    O     O_R   0.915437 0.297747 0.221912 -0.283232
O10   O     O_R   0.703431 0.188380 0.309946 -0.339380
N4    N     N_R   0.248339 0.716214 0.748067 0.247590
O11   O     O_R   0.084872 0.702892 0.778322 -0.282913
O12   O     O_R   0.296802 0.811468 0.690026 -0.339531
N5    N     N_R   0.285292 0.772525 0.911663 0.247656
O13   O     O_R   0.275828 0.911260 0.885792 -0.267391
O14   O     O_R   0.192185 0.731802 0.978284 -0.245103
N6    N     N_R   0.715098 0.227377 0.088415 0.247711
O15   O     O_R   0.725058 0.088810 0.114422 -0.267209
O16   O     O_R   0.807828 0.267971 0.021677 -0.245259
N7    N     N_R   0.195943 0.535990 0.119575 0.248702
O17   O     O_R   0.127691 0.452630 0.064882 -0.238465
O18   O     O_R   0.109704 0.648788 0.154228 -0.292697
N8    N     N_R   0.804150 0.463606 0.880347 0.248623
O19   O     O_R   0.890268 0.350754 0.845675 -0.292745
O20   O     O_R   0.872546 0.546949 0.935005 -0.238414
N9    N     N_R   0.740147 0.016975 0.514645 0.232749
O21   O     O_R   0.864044 0.029798 0.454884 -0.255790
O22   O     O_R   0.772026 0.056041 0.586615 -0.317312
N10   N     N_R   0.259850 0.983025 0.485360 0.232754
O23   O     O_R   0.135958 0.970188 0.545123 -0.255811
O24   O     O_R   0.227967 0.943968 0.413390 -0.317307

loop_
_geom_bond_atom_site_label_1
_geom_bond_atom_site_label_2
_geom_bond_distance
_ccdc_geom_bond_type
C15   N4    1.435439 S    
O5    C3    1.295085 A    
O7    Zn2   2.004703 S    
C13   N5    1.437677 S    
C7    H1    1.083730 S    
N1    N2    1.273478 D    
O6    C4    1.295064 A    
C17   C18   1.342492 D    
O3    C1    1.289423 A    
C12   C14   1.411224 A    
N6    O16   1.299003 A    
C19   C20   1.362386 D    
C11   C17   1.454377 S    
N3    O10   1.301185 A    
C6    C8    1.398471 A    
C12   C18   1.454371 S    
N5    O13   1.301232 A    
C20   N10   1.436345 S    
O7    C3    1.288185 A    
N9    O21   1.300306 A    
O2    C2    1.270980 A    
O3    Zn2   2.002456 S    
N4    O12   1.301087 A    
O1    C1    1.270980 A    
O8    C4    1.288207 A    
C9    N8    1.440043 S    
N2    H6    1.029356 S    
N6    O15   1.301315 A    
C9    C11   1.407377 A    
C10   C12   1.407422 A    
C10   N7    1.440057 S    
C8    C10   1.382008 A    
C13   C15   1.404526 A    
C11   C13   1.411175 A    
C6    C16   1.411306 A    
C8    H2    1.083731 S    
O2    Zn2   1.979494 S    
N8    O20   1.301439 A    
C16   N3    1.435383 S    
C5    C15   1.411332 A    
O4    C2    1.289422 A    
N9    O22   1.301133 A    
N4    O11   1.301008 A    
N7    O17   1.301442 A    
C14   N6    1.437765 S    
C4    C6    1.453156 S    
O5    Zn1   1.975425 S    
O1    Zn1   1.979495 S    
N1    H5    1.029356 S    
Zn1   N2    2.012874 S    
N10   O24   1.301134 A    
N5    O14   1.298943 A    
N3    O9    1.301294 A    
C5    C7    1.398496 A    
N8    O19   1.301777 A    
C19   N9    1.436342 S    
O6    Zn2   1.975423 S    
C7    C9    1.381980 A    
C17   H4    1.087126 S    
C3    C5    1.453144 S    
Zn2   N1    2.012874 S    
C18   H3    1.087122 S    
C2    C20   1.405971 S    
O4    Zn1   2.002456 S    
C14   C16   1.404506 A    
N10   O23   1.300308 A    
N7    O18   1.301779 A    
O8    Zn1   2.004702 S    
C1    C19   1.405974 S    
