data_mof_unit_37745.cif
_audit_creation_date              2012-12-10T17:30:17-0500
_audit_creation_method            fapswitch 2.2
_symmetry_space_group_name_H-M    P1
_symmetry_Int_Tables_number       1
_space_group_crystal_system       triclinic
_cell_length_a                    11.969272
_cell_length_b                    12.894531
_cell_length_c                    15.014872
_cell_angle_alpha                 90.193583
_cell_angle_beta                  86.249102
_cell_angle_gamma                 93.174921
_cell_volume                      2308.85413964

loop_
_atom_site_label
_atom_site_type_symbol
_atom_type_description
_atom_site_fract_x
_atom_site_fract_y
_atom_site_fract_z
_atom_type_partial_charge
C1    C     C_R   0.521894 0.700494 0.498477 0.891900
C2    C     C_R   0.359506 0.137421 0.496061 -0.172714
C3    C     C_R   0.438601 0.867625 0.493591 -0.268556
C4    C     C_R   0.561399 0.132375 0.506409 -0.268556
C5    C     C_R   0.446847 0.974257 0.496642 0.182423
C6    C     C_R   0.553152 0.025743 0.503358 0.182423
C7    C     C_R   0.955546 0.406375 0.413693 -0.255814
C8    C     C_R   0.044454 0.593625 0.586307 -0.255814
C9    C     C_R   0.839080 0.414893 0.422283 -0.112741
C10   C     C_R   0.160920 0.585107 0.577717 -0.112741
C11   C     C_R   0.857397 0.539892 0.537537 0.724697
C12   C     C_R   0.478106 0.299506 0.501523 0.891900
C13   C     C_R   0.142603 0.460109 0.462463 0.724696
C14   C     C_R   0.975205 0.533895 0.531456 -0.096460
C15   C     C_R   0.024795 0.466105 0.468544 -0.096459
C16   C     C_R   0.500257 0.500247 0.673424 0.888351
C17   C     C_R   0.499743 0.499753 0.326576 0.888351
C18   C     C_R   0.400176 0.515610 0.190306 -0.146676
C19   C     C_R   0.599824 0.484389 0.809694 -0.146674
C20   C     C_R   0.499431 0.499294 0.230738 -0.118499
C21   C     C_R   0.500569 0.500705 0.769262 -0.118499
C22   C     C_R   0.598625 0.482560 0.179840 -0.152852
C23   C     C_R   0.701189 0.469582 0.943414 0.391801
C24   C     C_R   0.401375 0.517439 0.820160 -0.152852
C25   C     C_R   0.599883 0.482925 0.087618 -0.046138
C26   C     C_R   0.400117 0.517073 0.912382 -0.046140
C27   C     C_R   0.499690 0.499648 0.046372 -0.075498
C28   C     C_R   0.500309 0.500351 0.953628 -0.075499
C29   C     C_R   0.398876 0.515412 0.098014 -0.049664
C30   C     C_R   0.601123 0.484587 0.901986 -0.049663
C31   C     C_R   0.699536 0.466894 0.036299 0.516077
C32   C     C_R   0.300464 0.533104 0.963701 0.516079
C33   C     C_3   0.863995 0.544866 0.882448 -0.173182
C34   C     C_R   0.298810 0.530416 0.056586 0.391801
C35   C     C_3   0.136006 0.455130 0.117554 -0.173187
C36   C     C_R   0.465207 0.188221 0.501997 -0.061117
C37   C     C_R   0.534793 0.811779 0.498003 -0.061117
C38   C     C_R   0.649662 0.969953 0.506627 -0.212164
C39   C     C_R   0.350338 0.030047 0.493373 -0.212164
C40   C     C_R   0.640494 0.862579 0.503938 -0.172713
F1    F     F_    0.795384 0.448504 0.076013 -0.663892
F2    F     F_    0.204615 0.551493 0.923987 -0.663891
F3    F     F_    0.192313 0.395035 0.402806 -0.681374
F4    F     F_    0.807686 0.604965 0.597194 -0.681374
H1    H     H_    0.324016 0.528586 0.230924 0.213671
H2    H     H_    0.715309 0.819578 0.507469 0.190214
H3    H     H_    0.731490 0.009168 0.511635 0.148554
H4    H     H_    0.268510 0.990831 0.488365 0.148554
H5    H     H_    0.214162 0.631054 0.620082 0.167994
H6    H     H_    0.785838 0.368946 0.379918 0.167994
H7    H     H_    0.890750 0.575440 0.947568 0.206133
H8    H     H_    0.818064 0.604133 0.847996 0.139925
H9    H     H_    0.940919 0.530334 0.839980 0.212651
H10   H     H_    0.181937 0.395866 0.152010 0.139929
H11   H     H_    0.109255 0.424552 0.052434 0.206127
H12   H     H_    0.675984 0.471413 0.769076 0.213672
H13   H     H_    0.059080 0.469663 0.160019 0.212653
H14   H     H_    0.990797 0.353620 0.364541 0.205108
H15   H     H_    0.009203 0.646380 0.635459 0.205108
H16   H     H_    0.675018 0.469475 0.212141 0.207745
H17   H     H_    0.324982 0.530524 0.787859 0.207745
H18   H     H_    0.643271 0.171594 0.511700 0.166672
H19   H     H_    0.356729 0.828406 0.488300 0.166672
H20   H     H_    0.284691 0.180422 0.492531 0.190214
N1    N     N_R   0.207800 0.519350 0.516680 -0.145238
N2    N     N_R   0.792200 0.480650 0.483320 -0.145238
O1    O     O_R   0.421700 0.658830 0.504450 -0.639783
O2    O     O_3   0.200858 0.549450 0.106611 -0.585152
O3    O     O_R   0.578300 0.341170 0.495550 -0.639783
O4    O     O_R   0.609310 0.646410 0.493750 -0.583683
O5    O     O_R   0.390690 0.353590 0.506250 -0.583683
O6    O     O_R   0.406180 0.506230 0.637500 -0.639232
O7    O     O_R   0.593820 0.493770 0.362500 -0.639232
O8    O     O_R   0.593800 0.493820 0.626800 -0.578242
O9    O     O_R   0.406200 0.506180 0.373200 -0.578242
O10   O     O_3   0.799141 0.450547 0.893388 -0.585153
Zn1   Zn    Zn3+2 0.374730 0.508290 0.507150 1.004754
Zn2   Zn    Zn3+2 0.625270 0.491710 0.492850 1.004754

loop_
_geom_bond_atom_site_label_1
_geom_bond_atom_site_label_2
_ccdc_geom_bond_type
C19   H12   S    
C25   C31   A    
C12   O3    A    
C4    C36   A    
C26   C32   A    
C24   H17   S    
O4    Zn2   S    
O1    Zn1   S    
C13   F3    S    
C23   O10   S    
C13   N1    A    
C33   H8    S    
C40   H2    S    
C16   C21   S    
C16   O8    A    
C19   C21   A    
C24   C26   A    
C37   C40   A    
C8    H15   S    
C22   H16   S    
C5    C6    A    
C11   C14   A    
C27   C29   A    
C4    H18   S    
C17   C20   S    
C9    N2    A    
C2    C39   A    
C22   C25   A    
C16   O6    A    
O7    Zn2   S    
C6    C38   A    
C12   C36   S    
C7    H14   S    
C11   N2    A    
C1    C37   S    
C7    C15   A    
C35   H10   S    
C17   O7    A    
O3    Zn2   S    
C2    H20   S    
C33   H9    S    
N2    Zn2   S    
N1    Zn1   S    
C35   H11   S    
C23   C30   A    
C4    C6    A    
C34   O2    S    
C29   C34   A    
C23   C31   A    
O6    Zn1   S    
C33   O10   S    
C11   F4    S    
C18   C29   A    
O9    Zn1   S    
C38   H3    S    
C12   O5    A    
C20   C22   A    
C13   C15   A    
C33   H7    S    
C18   H1    S    
O5    Zn1   S    
C10   N1    A    
C2    C36   A    
C7    C9    A    
C8    C14   A    
C31   F1    S    
C9    H6    S    
C3    C5    A    
C3    H19   S    
C25   C27   A    
C26   C28   A    
C1    O4    A    
C35   H13   S    
C5    C39   A    
C38   C40   A    
C19   C30   A    
C35   O2    S    
C28   C30   A    
C1    O1    A    
C18   C20   A    
C3    C37   A    
C8    C10   A    
O8    Zn2   S    
C21   C24   A    
C27   C28   A    
C17   O9    A    
C32   F2    S    
C14   C15   A    
C10   H5    S    
C32   C34   A    
C39   H4    S    
