data_mof_unit_22088.cif
_audit_creation_date              2012-10-26T18:29:02-0400
_audit_creation_method            fapswitch 2.2
_symmetry_space_group_name_H-M    P1
_symmetry_Int_Tables_number       1
_space_group_crystal_system       triclinic
_cell_length_a                    11.739083
_cell_length_b                    13.016808
_cell_length_c                    15.889463
_cell_angle_alpha                 93.729037
_cell_angle_beta                  74.612888
_cell_angle_gamma                 100.687699
_cell_volume                      2300.0337027

loop_
_atom_site_label
_atom_site_type_symbol
_atom_type_description
_atom_site_fract_x
_atom_site_fract_y
_atom_site_fract_z
_atom_type_partial_charge
C1    C     C_R   0.521760 0.701037 0.500968 0.562987
C2    C     C_R   0.342719 0.012122 0.506613 -0.077223
C3    C     C_R   0.647338 0.879793 0.494945 0.369020
C4    C     C_R   0.352690 0.120199 0.504955 0.369143
C5    C     C_R   0.434069 0.859861 0.504724 -0.183839
C6    C     C_R   0.565949 0.140133 0.495218 -0.183812
C7    C     C_R   0.443798 0.967771 0.502845 -0.030735
C8    C     C_R   0.556225 0.032221 0.497078 -0.030680
C9    C     C_R   0.945296 0.595612 0.582713 -0.144732
C10   C     C_R   0.054705 0.404454 0.417266 -0.144881
C11   C     C_R   0.826918 0.588127 0.575709 0.174686
C12   C     C_R   0.478247 0.298962 0.499016 0.563326
C13   C     C_R   0.173112 0.411988 0.424208 0.174666
C14   C     C_R   0.858194 0.458359 0.464017 0.039045
C15   C     C_R   0.141780 0.541589 0.536041 0.039488
C16   C     C_R   0.427719 0.496012 0.667820 0.539600
C17   C     C_R   0.572432 0.505141 0.332204 0.538636
C18   C     C_R   0.978019 0.465368 0.470020 -0.006711
C19   C     C_R   0.021956 0.534613 0.530028 -0.006372
C20   C     C_R   0.386371 0.499112 0.763497 0.000800
C21   C     C_R   0.615101 0.511948 0.236757 0.001170
C22   C     C_R   0.231256 0.510080 0.897010 -0.129022
C23   C     C_R   0.360074 0.523886 0.086149 -0.135737
C24   C     C_R   0.774971 0.531281 0.103693 -0.128895
C25   C     C_R   0.266547 0.503191 0.806271 -0.129008
C26   C     C_R   0.737397 0.523430 0.194184 -0.128003
C27   C     C_R   0.470118 0.501820 0.812282 -0.135966
C28   C     C_R   0.531212 0.508968 0.188047 -0.133568
C29   C     C_R   0.438024 0.513069 0.903639 0.032442
C30   C     C_R   0.566894 0.520338 0.097021 0.033143
C31   C     C_R   0.315734 0.514817 0.945885 0.053544
C32   C     C_R   0.690895 0.529289 0.054898 0.053392
C33   C     C_R   0.523449 0.521027 0.954011 0.034304
C34   C     C_R   0.648285 0.531297 0.914812 -0.133991
C35   C     C_R   0.482824 0.521037 0.046777 0.033824
C36   C     C_3   0.244156 0.339832 0.362493 -0.300735
C37   C     C_3   0.755996 0.660599 0.637146 -0.298812
C38   C     C_R   0.278735 0.521507 0.036435 -0.129714
C39   C     C_R   0.730027 0.536099 0.964530 -0.128691
C40   C     C_R   0.464722 0.184952 0.499349 0.010440
C41   C     C_R   0.535295 0.815043 0.500596 0.010741
C42   C     C_R   0.657309 0.987870 0.493288 -0.077030
Cu1   Cu    Cu3+1 0.386820 0.492450 0.493500 0.967154
Cu2   Cu    Cu3+1 0.613180 0.507550 0.506500 0.966548
F1    F     F_    0.252484 0.160718 0.510053 -0.630881
F2    F     F_    0.747558 0.839272 0.489791 -0.631576
H1    H     H_    0.185722 0.524265 0.069340 0.105893
H2    H     H_    0.869933 0.538973 0.071766 0.102282
H3    H     H_    0.323748 0.531107 0.155556 0.106375
H4    H     H_    0.686955 0.538845 0.845607 0.100785
H5    H     H_    0.652807 0.189078 0.490591 0.134834
H6    H     H_    0.347207 0.810917 0.509367 0.134587
H7    H     H_    0.744099 0.036802 0.488712 0.140386
H8    H     H_    0.255934 0.963188 0.511170 0.140208
H9    H     H_    0.175030 0.595310 0.582568 0.109508
H10   H     H_    0.824936 0.404603 0.417515 0.110488
H11   H     H_    0.196304 0.257933 0.373980 0.158185
H12   H     H_    0.824794 0.544296 0.931739 0.104954
H13   H     H_    0.250510 0.359475 0.294211 0.068496
H14   H     H_    0.335212 0.340594 0.366936 0.197254
H15   H     H_    0.803704 0.742468 0.625146 0.158949
H16   H     H_    0.664732 0.659451 0.633021 0.197941
H17   H     H_    0.750053 0.641635 0.705474 0.064738
H18   H     H_    0.977507 0.649856 0.629582 0.087947
H19   H     H_    0.022513 0.350277 0.370350 0.088996
H20   H     H_    0.437967 0.495597 0.222733 0.121359
H21   H     H_    0.559764 0.493110 0.777277 0.125832
H22   H     H_    0.803844 0.525904 0.230637 0.133526
H23   H     H_    0.200294 0.501308 0.769742 0.131001
H24   H     H_    0.137888 0.512327 0.929049 0.102043
N1    N     N_R   0.216750 0.481110 0.483710 -0.213198
N2    N     N_R   0.783250 0.518890 0.516290 -0.213491
O1    O     O_R   0.419950 0.645670 0.495380 -0.526712
O2    O     O_R   0.580050 0.354330 0.504620 -0.526289
O3    O     O_R   0.611110 0.658410 0.506370 -0.446237
O4    O     O_R   0.388890 0.341590 0.493630 -0.445489
O5    O     O_R   0.350820 0.490050 0.621260 -0.500356
O6    O     O_R   0.649180 0.509950 0.378740 -0.501456
O7    O     O_R   0.541970 0.502800 0.632250 -0.530442
O8    O     O_R   0.458030 0.497200 0.367750 -0.530382

loop_
_geom_bond_atom_site_label_1
_geom_bond_atom_site_label_2
_ccdc_geom_bond_type
Cu1   O1    S    
C14   H10   S    
C21   C26   A    
C3    C42   A    
C12   O2    A    
C27   C29   A    
C9    H18   S    
C14   C18   A    
C2    C4    A    
C2    C7    A    
C36   H13   S    
C37   H16   S    
C7    C8    A    
C15   C19   A    
C30   C35   A    
C24   C26   A    
C18   C19   A    
C42   H7    S    
C23   H3    S    
C20   C25   A    
C29   C33   A    
C16   O5    A    
C32   C39   A    
C11   C37   S    
C9    C19   A    
C4    C40   A    
C22   C25   A    
C5    H6    S    
C6    H5    S    
C37   H17   S    
C4    F1    S    
C34   H4    S    
C22   C31   A    
C34   C39   A    
C1    O3    A    
C13   C36   S    
C36   H11   S    
C2    H8    S    
C5    C7    A    
C11   N2    A    
C6    C8    A    
C13   N1    A    
Cu1   O8    S    
C39   H12   S    
C17   O8    A    
C17   C21   S    
C24   H2    S    
C12   C40   S    
Cu2   O3    S    
C28   H20   S    
Cu1   Cu2   S    
C24   C32   A    
C16   C20   S    
C33   C34   A    
Cu2   O2    S    
C9    C11   A    
C38   H1    S    
C1    C41   S    
C21   C28   A    
C23   C35   A    
C12   O4    A    
C6    C40   A    
C25   H23   S    
C10   H19   S    
Cu1   O4    S    
C5    C41   A    
C3    C41   A    
Cu1   N1    S    
C14   N2    A    
Cu2   O7    S    
C8    C42   A    
C36   H14   S    
C10   C13   A    
C37   H15   S    
C20   C27   A    
Cu1   O5    S    
C23   C38   A    
C15   N1    A    
C3    F2    S    
C31   C38   A    
C16   O7    A    
C1    O1    A    
Cu2   O6    S    
C26   H22   S    
C29   C31   A    
C30   C32   A    
C10   C18   A    
C28   C30   A    
C17   O6    A    
C33   C35   A    
Cu2   N2    S    
C27   H21   S    
C22   H24   S    
C15   H9    S    
