data_mof_unit_17124.cif
_audit_creation_date              2012-12-10T18:04:00-0500
_audit_creation_method            fapswitch 2.2
_symmetry_space_group_name_H-M    P1
_symmetry_Int_Tables_number       1
_space_group_crystal_system       triclinic
_cell_length_a                    10.888411
_cell_length_b                    9.563167
_cell_length_c                    10.907438
_cell_angle_alpha                 88.222043
_cell_angle_beta                  94.356265
_cell_angle_gamma                 87.819651
_cell_volume                      1131.00946499

loop_
_atom_site_label
_atom_site_type_symbol
_atom_type_description
_atom_site_fract_x
_atom_site_fract_y
_atom_site_fract_z
_atom_type_partial_charge
C1    C     C_R   0.262465 0.502664 0.502312 0.951967
C2    C     C_R   0.737604 0.497735 0.495329 0.872876
C3    C     C_R   0.417744 0.080064 0.422007 0.321964
C4    C     C_R   0.583452 0.065846 0.577382 0.362554
C5    C     C_R   0.418487 0.930947 0.423713 0.040308
C6    C     C_R   0.582518 0.917209 0.574622 0.055836
C7    C     C_R   0.505698 0.501248 0.263035 0.916193
C8    C     C_R   0.498952 0.497756 0.737759 0.882288
C9    C     C_R   0.492876 0.623322 0.057723 -0.057642
C10   C     C_R   0.488196 0.619683 0.931111 -0.106315
C11   C     C_R   0.519783 0.501938 0.131191 -0.206898
C12   C     C_R   0.504560 0.493935 0.871991 -0.203115
C13   C     C_R   0.555467 0.378054 0.073088 0.325880
C14   C     C_R   0.535796 0.370858 0.945015 0.338301
C15   C     C_3   0.383939 0.727155 0.914057 0.603344
C16   C     C_3   0.390752 0.733022 0.055274 0.569943
C17   C     C_R   0.073556 0.400356 0.569391 0.147675
C18   C     C_R   0.946188 0.385537 0.550074 0.128172
C19   C     C_R   0.871763 0.494402 0.489145 -0.233543
C20   C     C_R   0.128637 0.507939 0.505258 -0.216634
C21   C     C_R   0.926925 0.607066 0.431130 0.295552
C22   C     C_R   0.054961 0.613596 0.438892 0.327516
Cu1   Cu    Cu3+1 0.500000 0.640660 0.500000 1.067114
Cu2   Cu    Cu3+1 0.500000 0.359340 0.500000 1.018021
H1    H     H_    0.355933 0.877314 0.361675 0.216337
H2    H     H_    0.647427 0.851506 0.632263 0.148927
N1    N     N_R   0.500000 0.852070 0.500000 -0.208224
N2    N     N_R   0.500000 0.147940 0.500000 -0.221660
O1    O     O_R   0.319640 0.618740 0.499990 -0.534142
O2    O     O_R   0.680360 0.618740 0.500010 -0.564672
O3    O     O_R   0.319620 0.381170 0.499990 -0.567824
O4    O     O_R   0.680380 0.381170 0.500010 -0.582281
O5    O     O_R   0.499990 0.618810 0.319660 -0.532743
O6    O     O_R   0.500010 0.618810 0.680340 -0.557760
O7    O     O_R   0.499960 0.381240 0.319650 -0.568153
O8    O     O_R   0.500040 0.381240 0.680350 -0.579247
Cl1   Cl    Cl    0.625536 0.229689 0.156571 -0.489679
Cl2   Cl    Cl    0.529539 0.202940 0.884715 -0.489175
Cl3   Cl    Cl    0.426804 0.880439 0.832949 -0.502336
Cl4   Cl    Cl    0.258040 0.673985 0.125515 -0.497429
Cl5   Cl    Cl    0.245792 0.659775 0.841421 -0.537173
Cl6   Cl    Cl    0.445262 0.891628 0.118337 -0.467891
N3    N     N_2   0.142831 0.323550 0.667741 -0.411228
H3    H     H_    0.106543 0.331522 0.752000 0.280545
C23   C     C_3   0.188913 0.183670 0.644653 -0.501021
H4    H     H_    0.129722 0.104135 0.683575 0.215174
H5    H     H_    0.283656 0.167685 0.689348 0.285111
H6    H     H_    0.192646 0.168165 0.545305 0.223269
N4    N     N_2   0.895103 0.256067 0.581589 -0.422514
H7    H     H_    0.931503 0.210690 0.663786 0.260752
C24   C     C_3   0.892382 0.159022 0.481825 -0.480812
H8    H     H_    0.986985 0.133768 0.455873 0.205416
H9    H     H_    0.836147 0.204515 0.399963 0.266825
H10   H     H_    0.851334 0.059974 0.510095 0.237050
Cl7   Cl    Cl    0.837596 0.735128 0.338043 -0.471156
Cl8   Cl    Cl    0.119262 0.758923 0.367751 -0.523277
N5    N     N_2   0.337952 0.159380 0.333583 -0.399674
H11   H     H_    0.382146 0.191290 0.258152 0.323553
C25   C     C_3   0.218341 0.106070 0.296729 -0.608055
H12   H     H_    0.154207 0.194891 0.264467 0.245386
H13   H     H_    0.178959 0.050381 0.374161 0.233846
H14   H     H_    0.225977 0.033146 0.220122 0.293192
N6    N     N_2   0.674340 0.128336 0.657695 -0.414735
H15   H     H_    0.666938 0.232868 0.672878 0.326349
C26   C     C_3   0.747224 0.045252 0.752896 -0.581505
H16   H     H_    0.801611 0.114971 0.813764 0.246010
H17   H     H_    0.812870 0.972676 0.711138 0.204298
H18   H     H_    0.686854 0.984802 0.810604 0.300966

loop_
_geom_bond_atom_site_label_1
_geom_bond_atom_site_label_2
_ccdc_geom_bond_type
Cu1   O5    S    
C24   H9    S    
N3    H3    S    
Cu2   O4    S    
Cu1   N1    S    
C14   Cl2   S    
C7    O5    A    
C9    C10   A    
C13   Cl1   S    
C6    N1    A    
C26   H17   S    
C1    O3    A    
C8    C12   S    
C24   H10   S    
N6    C26   S    
C26   H18   S    
C17   N3    S    
C17   C18   A    
C6    H2    S    
Cu2   O3    S    
C25   H12   S    
C8    O6    A    
C23   H4    S    
C7    C11   S    
N3    C23   S    
C4    N6    S    
C15   Cl3   S    
N5    H11   S    
Cu2   O8    S    
C10   C12   A    
C16   Cl4   S    
C5    H1    S    
C2    O4    A    
C3    N5    S    
C1    C20   S    
C1    O1    A    
C3    N2    A    
C19   C21   A    
C9    C16   S    
C12   C14   A    
C21   C22   A    
N4    H7    S    
C10   C15   S    
C23   H5    S    
C25   H13   S    
Cu2   O7    S    
N5    C25   S    
C2    O2    A    
Cu1   Cu2   S    
C24   H8    S    
C25   H14   S    
Cu1   O2    S    
Cu1   O1    S    
C11   C13   A    
C17   C20   A    
C15   Cl5   S    
Cu2   N2    S    
C4    C6    A    
C26   H16   S    
C8    O8    A    
C23   H6    S    
C21   Cl7   S    
C9    C11   A    
C18   C19   A    
Cu1   O6    S    
C22   Cl8   S    
C3    C5    A    
C13   C14   A    
C4    N2    A    
C2    C19   S    
C5    N1    A    
C16   Cl6   S    
C7    O7    A    
C15   C16   S    
C18   N4    S    
C20   C22   A    
N6    H15   S    
N4    C24   S    
