data_mof_unit_61161.cif
_audit_creation_date              2012-12-11T17:07:08-0500
_audit_creation_method            fapswitch 2.2
_symmetry_space_group_name_H-M    P1
_symmetry_Int_Tables_number       1
_space_group_crystal_system       triclinic
_cell_length_a                    8.183299
_cell_length_b                    14.93458
_cell_length_c                    16.419582
_cell_angle_alpha                 97.39863
_cell_angle_beta                  93.179045
_cell_angle_gamma                 97.804535
_cell_volume                      1966.12334172

loop_
_atom_site_label
_atom_site_type_symbol
_atom_type_description
_atom_site_fract_x
_atom_site_fract_y
_atom_site_fract_z
_atom_type_partial_charge
Ba1   Ba    Ba6+2 0.163640 0.544330 0.462610 1.637969
Ba2   Ba    Ba6+2 0.646540 0.455660 0.537320 1.636764
C1    C     C_3   0.422255 0.770141 0.160422 -0.355328
C2    C     C_R   0.094393 0.077788 0.548832 -0.033285
C3    C     C_R   0.955381 0.890289 0.534352 -0.034810
C4    C     C_3   0.965749 0.793194 0.293291 0.357562
C5    C     C_R   0.106029 0.923712 0.580571 -0.015441
C6    C     C_R   0.175624 0.014934 0.586210 -0.064563
C7    C     C_R   0.887734 0.796137 0.523983 0.036363
C8    C     C_R   0.734145 0.768025 0.480585 -0.301119
C9    C     C_R   0.920659 0.204243 0.477734 0.041374
C10   C     C_R   0.853290 0.110035 0.467233 -0.038087
C11   C     C_R   0.938734 0.047184 0.504755 0.000110
C12   C     C_3   0.435418 0.741769 0.245904 0.344871
C13   C     C_R   0.702989 0.076516 0.420769 -0.040740
C14   C     C_R   0.632625 0.985498 0.415799 -0.102315
C15   C     C_R   0.713376 0.922733 0.453569 -0.036089
C16   C     C_3   0.998979 0.889191 0.270500 -0.362496
C17   C     C_R   0.869509 0.953230 0.497215 0.007410
C18   C     C_R   0.643887 0.830000 0.448079 0.001042
C19   C     C_R   0.072180 0.232748 0.523077 -0.303271
C20   C     C_R   0.626626 0.537282 0.268505 -0.294762
C21   C     C_R   0.471319 0.489184 0.241041 0.031893
C22   C     C_R   0.415971 0.481007 0.157619 -0.123538
C23   C     C_3   0.552547 0.734169 0.661762 0.300417
C24   C     C_R   0.518149 0.520456 0.101008 0.245194
C25   C     C_R   0.678111 0.564486 0.129427 -0.168919
C26   C     C_R   0.732792 0.571614 0.212770 -0.009886
C27   C     C_R   0.381594 0.517285 0.853699 -0.118833
C28   C     C_3   0.769515 0.345118 0.286691 0.302290
C29   C     C_R   0.330865 0.511408 0.770250 0.003472
C30   C     C_R   0.276505 0.475383 0.907986 0.249407
C31   C     C_R   0.178090 0.462586 0.739592 -0.294723
C32   C     C_R   0.068229 0.425874 0.792510 -0.006037
C33   C     C_R   0.117821 0.431061 0.876590 -0.154789
C34   C     C_3   0.584385 0.837328 0.685111 -0.370113
C35   C     C_3   0.744825 0.320733 0.193558 -0.376548
C36   C     C_3   0.034848 0.653581 0.713258 0.306256
C37   C     C_3   0.060640 0.677873 0.806395 -0.373307
C38   C     C_3   0.256065 0.268663 0.353955 0.314330
C39   C     C_3   0.229171 0.165542 0.329797 -0.389521
C40   C     C_3   0.835519 0.204590 0.702576 0.373092
C41   C     C_3   0.800571 0.107182 0.722348 0.230931
C42   C     C_3   0.367165 0.255337 0.754865 0.323109
C43   C     C_3   0.391092 0.228818 0.840595 -0.307764
C44   C     C_R   0.163035 0.170712 0.555077 -0.003001
Cl1   Cl    Cl    0.941721 0.090052 0.803522 -0.695549
H1    H     H_    0.351514 0.676683 0.245448 0.093330
H2    H     H_    0.137284 0.291252 0.369485 0.006088
H3    H     H_    0.346642 0.285870 0.408435 0.070904
H4    H     H_    0.293409 0.780710 0.144096 0.154253
H5    H     H_    0.133503 0.145944 0.277535 0.129410
H6    H     H_    0.187693 0.130889 0.382331 0.058847
H7    H     H_    0.346599 0.142165 0.311292 0.121989
H8    H     H_    0.564945 0.731037 0.259869 -0.057921
H9    H     H_    0.457008 0.716098 0.114412 0.084235
H10   H     H_    0.671059 0.710033 0.646829 0.016129
H11   H     H_    0.463414 0.718165 0.606591 0.063009
H12   H     H_    0.635309 0.267501 0.176814 0.131662
H13   H     H_    0.676901 0.855994 0.738805 0.157922
H14   H     H_    0.632553 0.870221 0.632711 0.053901
H15   H     H_    0.467510 0.863172 0.701015 0.124232
H16   H     H_    0.506892 0.834544 0.158742 0.114571
H17   H     H_    0.920810 0.894237 0.214254 0.118320
H18   H     H_    0.757883 0.209200 0.646178 0.042698
H19   H     H_    0.967584 0.219262 0.690122 -0.060462
H20   H     H_    0.672114 0.092782 0.740735 0.097953
H21   H     H_    0.814516 0.058409 0.667075 -0.002698
H22   H     H_    0.233566 0.257773 0.741612 -0.014441
H23   H     H_    0.725128 0.381639 0.164433 0.062006
H24   H     H_    0.438263 0.324127 0.754576 0.079174
H25   H     H_    0.344294 0.278751 0.886353 0.084330
H26   H     H_    0.524379 0.228209 0.856922 0.153187
H27   H     H_    0.042657 0.790992 0.350629 0.094646
H28   H     H_    0.322120 0.159916 0.842797 0.172134
H29   H     H_    0.173434 0.880124 0.612884 0.103114
H30   H     H_    0.293255 0.035461 0.621329 0.103578
H31   H     H_    0.514647 0.965117 0.380992 0.107241
H32   H     H_    0.635990 0.119960 0.388092 0.104247
H33   H     H_    0.680929 0.696935 0.474947 0.076931
H34   H     H_    0.856070 0.294652 0.169436 0.134575
H35   H     H_    0.124598 0.304020 0.529577 0.073557
H36   H     H_    0.501112 0.555669 0.875817 0.105548
H37   H     H_    0.760336 0.592227 0.086517 0.094255
H38   H     H_    0.295224 0.443045 0.137306 0.114975
H39   H     H_    0.833113 0.778759 0.304863 -0.066208
H40   H     H_    0.033061 0.401571 0.917550 0.102783
H41   H     H_    0.669137 0.542730 0.332776 0.078410
H42   H     H_    0.140133 0.458575 0.674873 0.072249
H43   H     H_    0.969345 0.939214 0.321664 0.070063
H44   H     H_    0.131276 0.906155 0.258915 0.149083
H45   H     H_    0.145204 0.627777 0.689299 0.004197
H46   H     H_    0.655916 0.367482 0.310203 0.010016
H47   H     H_    0.874613 0.401233 0.301668 0.069534
H48   H     H_    0.926062 0.599924 0.698440 0.072118
H49   H     H_    0.175541 0.727222 0.823083 0.138542
H50   H     H_    0.071065 0.615997 0.835778 0.056249
H51   H     H_    0.953797 0.708808 0.830373 0.133985
N1    N     N_2   0.468372 0.515802 0.015508 -0.233439
N2    N     N_2   0.323290 0.478687 0.993840 -0.229482
O1    O     O_2   0.162600 0.722340 0.548210 -0.466909
O2    O     O_2   0.728420 0.432745 0.787792 -0.485331
O3    O     O_3   0.796308 0.265697 0.768699 -0.580065
O4    O     O_3   0.890740 0.608910 0.545450 -0.494575
O5    O     O_3   0.431610 0.453580 0.401810 -0.488725
O6    O     O_2   0.628260 0.544210 0.698310 -0.460640
O7    O     O_3   0.488478 0.694138 0.728276 -0.636964
O8    O     O_2   0.502453 0.173325 0.544624 -0.498518
O9    O     O_3   0.424689 0.190940 0.697462 -0.606933
O10   O     O_3   0.394140 0.666560 0.400120 -0.485515
O11   O     O_2   0.302581 0.825952 0.454458 -0.494761
O12   O     O_3   0.314289 0.309458 0.287048 -0.631058
O13   O     O_3   0.010108 0.732205 0.679408 -0.631865
O14   O     O_3   0.388986 0.810206 0.303244 -0.607569
O15   O     O_2   0.182040 0.455730 0.301660 -0.464543
O16   O     O_3   0.971540 0.620730 0.357730 -0.489881
O17   O     O_2   0.070902 0.562483 0.210991 -0.484660
O18   O     O_3   0.006869 0.730563 0.228843 -0.595349
O19   O     O_2   0.647690 0.277600 0.451760 -0.468093
O20   O     O_3   0.919560 0.391080 0.454480 -0.495372
O21   O     O_3   0.416160 0.333430 0.599820 -0.479202
O22   O     O_3   0.801478 0.267567 0.320533 -0.638822
O23   O     O_3   0.378690 0.546410 0.598120 -0.475859
O24   O     O_3   0.838760 0.379260 0.642200 -0.488862
P1    P     P_3+3 0.987090 0.708160 0.571840 0.977238
P2    P     P_3+3 0.349530 0.428340 0.313070 0.987316
P3    P     P_3+3 0.945646 0.619963 0.251262 0.953882
P4    P     P_3+3 0.823210 0.291830 0.428100 0.973197
P5    P     P_3+3 0.857851 0.377281 0.748853 0.970285
P6    P     P_3+3 0.432645 0.784519 0.402502 0.937579
P7    P     P_3+3 0.453647 0.575428 0.701184 0.951074
P8    P     P_3+3 0.375976 0.215699 0.598427 0.934952

loop_
_geom_bond_atom_site_label_1
_geom_bond_atom_site_label_2
_ccdc_geom_bond_type
O2    P5    D    
C2    C6    A    
C40   O3    S    
C5    C6    A    
C38   O12   S    
C2    C44   A    
Ba2   O23   S    
C37   H49   S    
C24   C25   A    
O15   P2    D    
O5    P2    S    
C16   H44   S    
C25   H37   S    
C22   C24   A    
C32   C33   A    
C27   C30   A    
C44   P8    S    
C36   C37   S    
C37   H50   S    
O13   P1    S    
C13   C14   A    
C36   H45   S    
C15   C18   A    
C42   H24   S    
C43   H26   S    
Ba1   Ba2   S    
C2    C11   A    
C29   P7    S    
C33   H40   S    
C13   H32   S    
O4    P1    S    
C28   O22   S    
C32   P5    S    
C8    C18   A    
C41   H21   S    
O16   P3    S    
C36   H48   S    
C40   H18   S    
O1    P1    D    
C21   C22   A    
C29   C31   A    
Ba1   O16   S    
C20   H41   S    
C7    C8    A    
C39   H5    S    
O12   P2    S    
C26   P3    S    
C24   N1    S    
O19   P4    D    
C12   H8    S    
C20   C26   A    
C35   H23   S    
C43   H25   S    
O14   P6    S    
C35   H34   S    
C23   H10   S    
C34   H15   S    
C4    H27   S    
O6    P7    D    
C4    C16   S    
C11   C17   A    
C16   H43   S    
C30   C33   A    
Ba1   P2    S    
O7    P7    S    
C18   P6    S    
C3    C5    A    
C36   O13   S    
C1    H4    S    
C14   C15   A    
C37   H51   S    
C12   H1    S    
C12   O14   S    
C9    C19   A    
C7    P1    S    
C30   N2    S    
C28   C35   S    
Ba1   O20   S    
O18   P3    S    
Ba1   O23   S    
C3    C7    A    
C31   H42   S    
Ba1   O10   S    
O3    P5    S    
C1    H9    S    
O11   P6    D    
N1    N2    D    
C10   C13   A    
Ba2   O4    S    
C9    C10   A    
O9    P8    S    
C31   C32   A    
C42   H22   S    
C19   H35   S    
O17   P3    D    
Ba1   O4    S    
C39   H6    S    
C35   H12   S    
C1    C12   S    
C21   P2    S    
C41   H20   S    
C38   C39   S    
C1    H16   S    
C6    H30   S    
C40   C41   S    
O21   P8    S    
C34   H14   S    
Ba1   O1    S    
C42   C43   S    
C23   O7    S    
C19   C44   A    
C22   H38   S    
Ba2   O21   S    
Ba2   O20   S    
O23   P7    S    
Ba1   P1    S    
C34   H13   S    
Ba2   O19   S    
O20   P4    S    
C27   H36   S    
C5    H29   S    
C3    C17   A    
Ba2   O24   S    
C28   H46   S    
Ba2   O5    S    
C4    H39   S    
C43   H28   S    
C8    H33   S    
C9    P4    S    
C27   C29   A    
C42   O9    S    
C16   H17   S    
C38   H3    S    
C15   C17   A    
Ba2   O6    S    
O24   P5    S    
O10   P6    S    
C14   H31   S    
O22   P4    S    
C39   H7    S    
O8    P8    D    
C23   C34   S    
C10   C11   A    
C28   H47   S    
C23   H11   S    
C25   C26   A    
C40   H19   S    
C20   C21   A    
Ba1   O15   S    
C41   Cl1   S    
C4    O18   S    
C38   H2    S    
Ba1   O5    S    
Ba2   P4    S    
