data_mof_unit_61715.cif
_audit_creation_date              2013-03-05T15:57:39-0500
_audit_creation_method            fapswitch 2.2
_symmetry_space_group_name_H-M    P1
_symmetry_Int_Tables_number       1
_space_group_crystal_system       triclinic
_cell_length_a                    6.951754
_cell_length_b                    17.269798
_cell_length_c                    18.585858
_cell_angle_alpha                 107.25191
_cell_angle_beta                  90.255263
_cell_angle_gamma                 90.624148
_cell_volume                      2130.74941838

loop_
_atom_site_label
_atom_site_type_symbol
_atom_site_description
_atom_site_fract_x
_atom_site_fract_y
_atom_site_fract_z
_atom_type_partial_charge
O1    O     O_R   0.505810 0.442350 0.559500 -0.569971
O2    O     O_R   0.167990 0.405060 0.411070 -0.596376
O3    O     O_R   0.005550 0.557650 0.440500 -0.574981
C1    C     C_R   0.337478 0.381547 0.382824 0.886744
O4    O     O_R   0.175580 0.432840 0.557140 -0.552511
O5    O     O_R   0.013190 0.585620 0.587600 -0.569485
C2    C     C_R   0.344494 0.415940 0.580634 0.991751
O6    O     O_R   0.498170 0.414380 0.412400 -0.591472
O7    O     O_3   0.341790 0.550090 0.509830 -0.267271
V1    V     V_3+5 0.063870 0.490710 0.498180 1.180386
O8    O     O_R   0.683930 0.594940 0.588930 -0.599046
C3    C     C_R   0.853940 0.617723 0.617164 1.033662
O9    O     O_R   0.676340 0.567160 0.442860 -0.576385
C4    C     C_R   0.845281 0.584116 0.419417 0.942299
V2    V     V_3+5 0.564820 0.509290 0.501820 1.165191
O10   O     O_3   0.836770 0.449910 0.490170 -0.267802
C5    C     C_1   0.856476 0.636131 0.367388 -0.322520
C6    C     C_1   0.867699 0.678681 0.323817 0.059735
C7    C     C_1   0.882047 0.728839 0.271916 -0.003838
C8    C     C_1   0.894370 0.771076 0.228100 -0.001115
C9    C     C_1   0.908740 0.821238 0.176203 0.067856
C10   C     C_1   0.920013 0.863795 0.132640 -0.310868
C11   C     C_3   0.817771 0.814531 0.739069 0.616697
C12   C     C_3   0.985637 0.766233 0.694139 -0.304354
H1    H     H_    0.062014 0.781036 0.647470 0.146669
C13   C     C_3   0.869501 0.687329 0.687946 -0.284545
C14   C     C_3   0.699758 0.736577 0.731936 -0.243599
C15   C     C_3   0.791751 0.732443 0.807423 -0.268373
C16   C     C_3   0.959475 0.684031 0.762484 0.454738
C17   C     C_3   0.077399 0.761997 0.769608 -0.240265
C18   C     C_3   0.907702 0.811127 0.813360 -0.199686
H2    H     H_    0.545358 0.727425 0.715859 0.152536
H3    H     H_    0.715320 0.717833 0.854178 0.168435
H4    H     H_    0.231737 0.771287 0.785767 0.159834
C19   C     C_3   0.484978 0.237202 0.307834 -0.125637
C20   C     C_3   0.326902 0.180488 0.260462 -0.132478
H5    H     H_    0.277103 0.122609 0.269071 0.103408
H6    H     H_    0.563798 0.226519 0.356027 0.105209
C21   C     C_3   0.420091 0.189252 0.187991 -0.088366
C22   C     C_3   0.577919 0.245237 0.234628 -0.098336
C23   C     C_3   0.450073 0.319626 0.239469 -0.127577
C24   C     C_3   0.291997 0.262911 0.192095 -0.121102
C25   C     C_3   0.199057 0.254876 0.265302 -0.099713
C26   C     C_3   0.356884 0.310861 0.311939 -0.086838
H7    H     H_    0.733360 0.241119 0.221217 0.104972
H8    H     H_    0.499873 0.377506 0.230861 0.107832
H9    H     H_    0.213176 0.273594 0.143902 0.109940
H10   H     H_    0.043616 0.258994 0.278713 0.104496
C27   C     C_1   0.354882 0.363941 0.632718 -0.272591
C28   C     C_1   0.366536 0.321419 0.676300 0.091268
C29   C     C_1   0.382002 0.271266 0.728184 0.012567
C30   C     C_1   0.395387 0.229025 0.771960 0.008041
C31   C     C_1   0.410849 0.178837 0.823816 0.076411
C32   C     C_1   0.422484 0.136257 0.867351 -0.303124
O11   O     O_R   0.278780 0.085730 0.087540 -0.591490
O12   O     O_R   0.601620 0.067180 0.942850 -0.565251
O13   O     O_R   0.763750 0.914350 0.912410 -0.576042
C33   C     C_R   0.432763 0.084168 0.919363 0.975734
O14   O     O_R   0.608970 0.094960 0.088920 -0.594709
O15   O     O_R   0.771150 0.942330 0.059520 -0.573991
C34   C     C_R   0.439481 0.118540 0.117125 0.891249
O16   O     O_R   0.271380 0.057750 0.940430 -0.570463
O17   O     O_3   0.435070 0.949970 0.990140 -0.259761
V3    V     V_3+5 0.713090 0.009280 0.001830 1.170832
O18   O     O_R   0.100340 0.932730 0.057200 -0.572307
C35   C     C_R   0.931341 0.915817 0.080621 0.951934
O19   O     O_R   0.092990 0.904950 0.911140 -0.596079
C36   C     C_R   0.922952 0.881839 0.883172 1.007507
V4    V     V_3+5 0.212100 0.990570 0.998260 1.169561
O20   O     O_3   0.940260 0.050030 0.009860 -0.271169
O21   O     O_3   0.743371 0.885042 0.728014 -0.767296
H11   H     H_    0.693517 0.868508 0.675540 0.304211
N1    N     N_R   0.038878 0.612833 0.778043 0.229116
O22   O     O_R   0.116190 0.619751 0.843522 -0.395691
O23   O     O_R   0.028483 0.541989 0.727972 -0.416348

loop_
_geom_bond_atom_site_label_1
_geom_bond_atom_site_label_2
_geom_bond_distance
_ccdc_geom_bond_type
C33   O16   1.311040 A    
N1    O22   1.300284 A    
C7    C8    1.246674 T    
C1    O6    1.291283 A    
C31   C32   1.247236 T    
C13   C14   1.549914 S    
C15   C16   1.540072 S    
C12   C13   1.550515 S    
O5    C3    1.293439 A    
C17   C18   1.547234 S    
C16   N1    1.457553 S    
V2    O10   2.141677 S    
C6    C7    1.478301 S    
C23   C24   1.548738 S    
C10   C35   1.504140 S    
O8    V2    2.008895 S    
O17   V4    1.697054 S    
C23   H8    1.110125 S    
O12   V3    1.860494 S    
O1    V2    1.839197 S    
V3    O20   1.709646 S    
C25   H10   1.108342 S    
O15   C35   1.310458 A    
C9    C10   1.246639 T    
N1    O23   1.300096 A    
C4    C5    1.504146 S    
C22   H7    1.108342 S    
C28   C29   1.479234 S    
C21   C24   1.544238 S    
C20   C21   1.543827 S    
C18   C36   1.497398 S    
C21   C34   1.515044 S    
O14   C34   1.310810 A    
C17   H4    1.109906 S    
C29   C30   1.247271 T    
C11   O21   1.397743 S    
C19   H6    1.110143 S    
C12   H1    1.110069 S    
C2    C27   1.505033 S    
C21   C22   1.536638 S    
O4    C2    1.316510 A    
C1    C26   1.515036 S    
O19   C36   1.299212 A    
O16   V4    1.845069 S    
C3    C13   1.498422 S    
O19   V4    2.008748 S    
C19   C20   1.548710 S    
C11   C18   1.530383 S    
O2    C1    1.310813 A    
C25   C26   1.536634 S    
C16   C17   1.540044 S    
C11   C12   1.540005 S    
C32   C33   1.505135 S    
C5    C6    1.246642 T    
O14   V3    1.986580 S    
C19   C26   1.544236 S    
O11   V4    2.007014 S    
O3    C4    1.310424 A    
C22   C23   1.550946 S    
C15   H3    1.110127 S    
O18   C35   1.314360 A    
O6    V2    2.006026 S    
C11   C14   1.540179 S    
O9    V2    1.854982 S    
C23   C26   1.543823 S    
C24   C25   1.551078 S    
O13   C36   1.293566 A    
O2    V1    1.986538 S    
C30   C31   1.479268 S    
O13   V3    1.993861 S    
O7    V1    2.156999 S    
C20   H5    1.110125 S    
C14   H2    1.109859 S    
O1    C2    1.311084 A    
C15   C18   1.547508 S    
O5    V1    1.993690 S    
O8    C3    1.299563 A    
O15   V3    1.841475 S    
C19   C22   1.551067 S    
O7    V2    1.698872 S    
O21   H11   0.991192 S    
O3    V1    1.841597 S    
V1    O10   1.709537 S    
O18   V4    1.855024 S    
O11   C34   1.291270 A    
O12   C33   1.316602 A    
C24   H9    1.110143 S    
V4    O20   2.141665 S    
C12   C17   1.560012 S    
O17   V3    2.157058 S    
O4    V1    1.860546 S    
C8    C9    1.478297 S    
C13   C16   1.534105 S    
C27   C28   1.247191 T    
C14   C15   1.560387 S    
C20   C25   1.550922 S    
O9    C4    1.314395 A    
