data_mof_unit_44155.cif
_audit_creation_date              2012-10-26T20:06:02-0400
_audit_creation_method            fapswitch 2.2
_symmetry_space_group_name_H-M    P1
_symmetry_Int_Tables_number       1
_space_group_crystal_system       triclinic
_cell_length_a                    9.621836
_cell_length_b                    10.84045
_cell_length_c                    13.576368
_cell_angle_alpha                 92.556258
_cell_angle_beta                  73.806007
_cell_angle_gamma                 90.187131
_cell_volume                      1358.48214038

loop_
_atom_site_label
_atom_site_type_symbol
_atom_type_description
_atom_site_fract_x
_atom_site_fract_y
_atom_site_fract_z
_atom_type_partial_charge
C1    C     C_R   0.499632 0.737427 0.501643 0.548341
C2    C     C_R   0.378227 0.522335 0.813970 0.014735
C3    C     C_R   0.627834 0.935838 0.485597 -0.121944
C4    C     C_R   0.422938 0.507879 0.699743 0.551225
C5    C     C_R   0.625367 0.063406 0.488869 -0.127229
C6    C     C_R   0.493417 0.128425 0.512233 0.027457
C7    C     C_R   0.361843 0.062643 0.540665 0.098549
C8    C     C_R   0.365769 0.934671 0.535748 -0.099905
C9    C     C_R   0.497996 0.871132 0.506625 0.002587
C10   C     C_R   0.906587 0.590677 0.551323 0.016450
C11   C     C_R   0.053341 0.589206 0.553587 0.016065
C12   C     C_R   0.433171 0.509738 0.979878 0.022340
C13   C     C_R   0.098482 0.416293 0.438138 0.239587
C14   C     C_R   0.949665 0.415743 0.438836 0.219960
C15   C     C_R   0.497251 0.262584 0.505299 0.581647
C16   C     C_R   0.576467 0.497588 0.301084 0.564897
C17   C     C_R   0.790440 0.441679 0.025455 -0.105196
C18   C     C_R   0.616262 0.487572 0.189025 0.016079
C19   C     C_R   0.231499 0.538740 0.866740 -0.102238
C20   C     C_R   0.185150 0.539118 0.973478 -0.116834
C21   C     C_R   0.283424 0.519858 0.029656 -0.091688
C22   C     C_R   0.479678 0.517751 0.871864 0.020892
C23   C     C_R   0.540366 0.493990 0.032618 0.015903
C24   C     C_R   0.685778 0.467350 0.975043 0.045731
C25   C     C_R   0.724785 0.477389 0.868632 0.093391
C26   C     C_R   0.627243 0.531985 0.825597 0.121802
C27   C     C_R   0.508733 0.505285 0.139533 -0.101141
C28   C     C_R   0.756753 0.454760 0.131622 -0.122835
Cu1   Cu    Cu3+1 0.359340 0.499980 0.500000 1.030841
Cu2   Cu    Cu3+1 0.640660 0.500020 0.500000 1.023243
H1    H     H_    0.841260 0.440569 0.168240 0.158519
H2    H     H_    0.071895 0.553022 0.013225 0.124284
H3    H     H_    0.731380 0.888097 0.465322 0.151610
H4    H     H_    0.727633 0.110502 0.472228 0.181887
H5    H     H_    0.264779 0.884769 0.556854 0.147599
H6    H     H_    0.838181 0.666999 0.587863 0.157349
H7    H     H_    0.091200 0.661019 0.597389 0.133476
H8    H     H_    0.900226 0.417061 0.983410 0.149284
H9    H     H_    0.402075 0.532748 0.185549 0.136910
H10   H     H_    0.152515 0.552857 0.825406 0.167866
H11   H     H_    0.239024 0.513578 0.111456 0.122785
I1    I     I_    0.151556 0.141301 0.601953 -0.251492
I2    I     I_    0.244595 0.290793 0.330498 -0.259537
I3    I     I_    0.888594 0.289822 0.331958 -0.319835
I4    I     I_    0.924548 0.415236 0.769011 -0.333778
I5    I     I_    0.676763 0.717929 0.788225 -0.358312
N1    N     N_R   0.147940 0.499970 0.499970 -0.232690
N2    N     N_R   0.852060 0.500060 0.499990 -0.235077
O1    O     O_R   0.381250 0.680340 0.500010 -0.524035
O2    O     O_R   0.618820 0.680370 0.500010 -0.511495
O3    O     O_R   0.323240 0.499950 0.650980 -0.490135
O4    O     O_R   0.560810 0.499980 0.650980 -0.479019
O5    O     O_R   0.381180 0.319630 0.499990 -0.447277
O6    O     O_R   0.618750 0.319660 0.499990 -0.485104
O7    O     O_R   0.439190 0.500020 0.349020 -0.496430
O8    O     O_R   0.676760 0.500050 0.349020 -0.490067

loop_
_geom_bond_atom_site_label_1
_geom_bond_atom_site_label_2
_ccdc_geom_bond_type
C2    C22   A    
C2    C4    S    
C23   C24   A    
C16   O8    A    
C11   H7    S    
C6    C7    A    
C3    C9    A    
C23   C27   A    
C1    O2    A    
C11   N1    A    
C19   C20   A    
C6    C15   S    
C10   C11   A    
C5    H4    S    
Cu2   O2    S    
C16   O7    A    
C1    C9    S    
C7    C8    A    
Cu1   O1    S    
C13   C14   A    
C24   C25   A    
Cu2   O6    S    
C12   C23   A    
Cu1   Cu2   S    
Cu1   O5    S    
C4    O4    A    
C20   H2    S    
C21   H11   S    
C15   O5    A    
C14   I3    S    
C25   C26   A    
Cu1   N1    S    
C17   H8    S    
C26   I5    S    
C10   N2    A    
C5    C6    A    
C12   C22   A    
C17   C24   A    
C19   H10   S    
C3    H3    S    
C4    O3    A    
C22   C26   A    
C15   O6    A    
C25   I4    S    
C13   I2    S    
C18   C28   A    
C20   C21   A    
C16   C18   S    
Cu1   O3    S    
C7    I1    S    
Cu2   N2    S    
C13   N1    A    
Cu2   O4    S    
C14   N2    A    
Cu1   O7    S    
C3    C5    A    
C2    C19   A    
C17   C28   A    
Cu2   O8    S    
C12   C21   A    
C28   H1    S    
C18   C27   A    
C27   H9    S    
C8    C9    A    
C10   H6    S    
C8    H5    S    
C1    O1    A    
