data_mof_unit_24653.cif
_audit_creation_date              2012-12-10T16:57:49-0500
_audit_creation_method            fapswitch 2.2
_symmetry_space_group_name_H-M    P1
_symmetry_Int_Tables_number       1
_space_group_crystal_system       triclinic
_cell_length_a                    10.622144
_cell_length_b                    10.928938
_cell_length_c                    9.762801
_cell_angle_alpha                 91.10669
_cell_angle_beta                  89.273768
_cell_angle_gamma                 90.357582
_cell_volume                      1133.02858161

loop_
_atom_site_label
_atom_site_type_symbol
_atom_type_description
_atom_site_fract_x
_atom_site_fract_y
_atom_site_fract_z
_atom_type_partial_charge
C1    C     C_R   0.498436 0.265740 0.498349 0.835515
C2    C     C_3   0.960763 0.505126 0.368015 -0.234882
C3    C     C_3   0.041194 0.402662 0.428236 0.164917
C4    C     C_3   0.122696 0.498666 0.501863 -0.046806
C5    C     C_2   0.532335 0.931457 0.395344 -0.161616
C6    C     C_2   0.527507 0.864467 0.507707 -0.352605
C7    C     C_2   0.553285 0.063592 0.407135 0.179107
C8    C     C_2   0.480588 0.134178 0.492762 0.040667
C9    C     C_2   0.469046 0.405299 0.923156 0.068009
C10   C     C_2   0.443803 0.415665 0.077330 0.064549
C11   C     C_R   0.259630 0.499666 0.500712 0.838366
C12   C     C_R   0.506365 0.733999 0.501456 0.857784
C13   C     C_R   0.740317 0.499928 0.499257 0.785926
C14   C     C_3   0.038089 0.492669 0.630727 -0.219351
C15   C     C_3   0.955199 0.395367 0.556314 -0.135072
C16   C     C_3   0.876963 0.499628 0.497995 -0.071314
C17   C     C_3   0.957052 0.597031 0.573462 -0.251213
C18   C     C_3   0.042045 0.600522 0.444871 0.454629
Cu1   Cu    Cu3+1 0.500030 0.500020 0.638630 0.933365
Cu2   Cu    Cu3+1 0.499970 0.499980 0.361370 0.966381
H1    H     H_    0.916059 0.310405 0.601136 0.135375
H2    H     H_    0.463262 0.314898 0.876055 0.099962
H3    H     H_    0.378921 0.351586 0.124521 0.070068
H4    H     H_    0.072066 0.487049 0.737482 0.159871
H5    H     H_    0.919323 0.676806 0.632549 0.138253
H6    H     H_    0.927156 0.510084 0.261055 0.153564
H7    H     H_    0.526718 0.889493 0.293830 0.152987
H8    H     H_    0.544307 0.906212 0.607682 0.158447
N1    N     N_2   0.498620 0.498660 0.846910 -0.114389
N2    N     N_2   0.498590 0.498630 0.153040 -0.014586
O1    O     O_R   0.500020 0.321960 0.617040 -0.589736
O2    O     O_R   0.499980 0.321920 0.382900 -0.587711
O3    O     O_R   0.316870 0.499990 0.617050 -0.608898
O4    O     O_R   0.316830 0.499950 0.382910 -0.571147
O5    O     O_R   0.500020 0.678080 0.617100 -0.599941
O6    O     O_R   0.499980 0.678040 0.382960 -0.606479
O7    O     O_R   0.683170 0.500050 0.617090 -0.561840
O8    O     O_R   0.683130 0.500010 0.382950 -0.579821
C19   C     C_3   0.367332 0.085778 0.571516 -0.910723
H9    H     H_    0.302132 0.161235 0.601021 0.220739
H10   H     H_    0.312838 0.019566 0.507742 0.252733
H11   H     H_    0.397050 0.042741 0.667646 0.235423
C20   C     C_3   0.440894 0.615722 0.886833 -0.412812
H12   H     H_    0.364597 0.636392 0.814945 0.200643
H13   H     H_    0.392882 0.619983 0.987887 0.136658
H14   H     H_    0.511211 0.690429 0.880127 0.177951
O9    O     O_3   0.612471 0.530150 0.098994 -0.472003
C21   C     C_3   0.640118 0.653825 0.130994 0.236220
H15   H     H_    0.677432 0.664650 0.235330 0.170221
H16   H     H_    0.556789 0.713755 0.119969 0.110597
C22   C     C_3   0.745436 0.697693 0.036116 -0.923134
H17   H     H_    0.719804 0.684565 0.927077 0.267156
H18   H     H_    0.764854 0.796312 0.056501 0.200584
H19   H     H_    0.832555 0.645099 0.054531 0.248158
O10   O     O_3   0.096679 0.706607 0.388543 -0.579500
C23   C     C_3   0.000609 0.785189 0.345604 0.062228
H20   H     H_    0.937910 0.812684 0.432963 0.135320
H21   H     H_    0.943480 0.740533 0.263810 0.137798
C24   C     C_3   0.059839 0.900621 0.287865 -0.778737
H22   H     H_    0.122299 0.876806 0.199347 0.247894
H23   H     H_    0.984931 0.962908 0.253161 0.194666
H24   H     H_    0.115939 0.948666 0.367905 0.245935
C25   C     C_3   0.090082 0.291877 0.347757 -0.878897
H25   H     H_    0.009512 0.236925 0.308661 0.237931
H26   H     H_    0.148947 0.322455 0.260014 0.238787
H27   H     H_    0.147580 0.234496 0.415219 0.226535
C26   C     C_3   0.659737 0.115443 0.321086 -0.872621
H28   H     H_    0.716161 0.041070 0.271745 0.218610
H29   H     H_    0.621864 0.172254 0.238306 0.253961
H30   H     H_    0.724100 0.171248 0.386218 0.221346

loop_
_geom_bond_atom_site_label_1
_geom_bond_atom_site_label_2
_ccdc_geom_bond_type
C22   H18   S    
C20   H12   S    
C25   H26   S    
Cu1   O7    S    
C8    C19   S    
C3    C25   S    
C10   H3    S    
C12   O6    A    
C1    C8    S    
Cu2   O8    S    
C9    C10   S    
C10   N2    D    
C13   O7    A    
O9    C21   S    
C23   C24   S    
C9    N1    D    
O10   C23   S    
C26   H30   S    
C17   H5    S    
Cu2   O4    S    
C22   H19   S    
Cu1   Cu2   S    
C21   H16   S    
C17   C18   S    
C25   H27   S    
Cu1   O1    S    
C24   H22   S    
C19   H10   S    
Cu1   O5    S    
N1    C20   S    
C12   O5    A    
C6    C12   S    
C20   H13   S    
C14   C17   S    
C13   O8    A    
C15   H1    S    
C18   O10   S    
C26   H28   S    
C21   H15   S    
C23   H21   S    
C2    C3    S    
C19   H11   S    
C1    O2    A    
C1    O1    A    
C4    C14   S    
C5    C6    D    
C21   C22   S    
C20   H14   S    
C9    H2    S    
C24   H23   S    
C7    C8    D    
C25   H25   S    
C7    C26   S    
C22   H17   S    
Cu1   N1    S    
N2    O9    S    
C11   O3    A    
C2    C16   S    
C23   H20   S    
C2    H6    S    
Cu2   O2    S    
C13   C16   S    
C14   H4    S    
C19   H9    S    
C5    C7    S    
C14   C15   S    
C16   C17   S    
C3    C15   S    
Cu2   N2    S    
C24   H24   S    
C26   H29   S    
C5    H7    S    
C4    C18   S    
C11   O4    A    
C6    H8    S    
C3    C4    S    
C15   C16   S    
Cu1   O3    S    
C2    C18   S    
C4    C11   S    
Cu2   O6    S    
