data_mof_unit_37802.cif
_audit_creation_date              2012-10-26T20:32:48-0400
_audit_creation_method            fapswitch 2.2
_symmetry_space_group_name_H-M    P1
_symmetry_Int_Tables_number       1
_space_group_crystal_system       triclinic
_cell_length_a                    27.729001
_cell_length_b                    10.833669
_cell_length_c                    9.545128
_cell_angle_alpha                 89.70705
_cell_angle_beta                  89.666313
_cell_angle_gamma                 89.819873
_cell_volume                      2867.3215232

loop_
_atom_site_label
_atom_site_type_symbol
_atom_type_description
_atom_site_fract_x
_atom_site_fract_y
_atom_site_fract_z
_atom_type_partial_charge
C1    C     C_R   0.499752 0.262369 0.500180 0.553604
C2    C     C_R   0.972382 0.481700 0.619209 0.017028
C3    C     C_R   0.974069 0.637974 0.429892 0.016851
C4    C     C_R   0.407408 0.501074 0.500414 0.552511
C5    C     C_R   0.947901 0.561381 0.524500 0.032875
C6    C     C_R   0.944707 0.414323 0.718198 -0.142093
C7    C     C_R   0.894674 0.418442 0.717584 -0.113337
C8    C     C_R   0.870231 0.490263 0.618912 0.024022
C9    C     C_R   0.896624 0.563335 0.523423 -0.028546
C10   C     C_R   0.871618 0.637175 0.425878 0.026564
C11   C     C_R   0.820960 0.633065 0.422331 0.398985
C12   C     C_R   0.279351 0.540935 0.628653 -0.057209
C13   C     C_R   0.819716 0.489768 0.612727 0.397453
C14   C     C_R   0.725383 0.433529 0.459188 -0.061997
C15   C     C_R   0.675451 0.414984 0.459831 -0.043014
C16   C     C_R   0.500317 0.737622 0.499650 0.547634
C17   C     C_R   0.664439 0.626738 0.539009 -0.184335
C18   C     C_R   0.714282 0.643318 0.540156 -0.077264
C19   C     C_R   0.744899 0.546389 0.501208 0.225890
C20   C     C_R   0.023418 0.471681 0.611970 0.017058
C21   C     C_R   0.049697 0.551022 0.520686 0.033224
C22   C     C_R   0.025371 0.636980 0.432822 0.016843
C23   C     C_R   0.253163 0.521764 0.505560 0.237193
C24   C     C_R   0.049239 0.382835 0.691054 -0.141523
C25   C     C_R   0.103565 0.712572 0.349514 -0.111188
C26   C     C_R   0.947762 0.711528 0.333744 -0.141866
C27   C     C_R   0.897626 0.710864 0.331949 -0.113594
C28   C     C_R   0.592314 0.500554 0.499794 0.542320
C29   C     C_R   0.053486 0.718813 0.350302 -0.141033
C30   C     C_R   0.504930 0.062773 0.624695 0.023648
C31   C     C_R   0.502230 0.129143 0.499490 0.005740
C32   C     C_R   0.505403 0.064985 0.372084 -0.155314
C33   C     C_R   0.506355 0.936453 0.371662 -0.166957
C34   C     C_R   0.100910 0.543807 0.516710 -0.027553
C35   C     C_R   0.503411 0.870756 0.498750 0.001361
C36   C     C_R   0.505337 0.935737 0.624363 -0.011129
C37   C     C_3   0.474157 0.927365 0.752406 -0.243391
C38   C     C_3   0.474120 0.067975 0.754258 -0.118887
C39   C     C_R   0.540338 0.535217 0.072516 0.156930
C40   C     C_R   0.175958 0.448475 0.591396 0.397910
C41   C     C_R   0.461820 0.455913 0.075214 -0.022096
C42   C     C_R   0.461606 0.457231 0.926622 -0.033190
C43   C     C_R   0.540406 0.532668 0.924921 0.146394
C44   C     C_3   0.566114 0.651752 0.911047 -0.252655
C45   C     C_R   0.125446 0.455400 0.598356 0.025548
C46   C     C_3   0.564284 0.660137 0.070270 -0.146328
C47   C     C_R   0.178284 0.616245 0.428864 0.398950
C48   C     C_R   0.277759 0.494800 0.380561 -0.055755
C49   C     C_R   0.328030 0.487741 0.378547 -0.144383
C50   C     C_R   0.329508 0.532690 0.627181 -0.148273
C51   C     C_3   0.498555 0.124069 0.884660 -0.240912
C52   C     C_3   0.553989 0.116943 0.884025 -0.288704
C53   C     C_3   0.575049 0.166980 0.019311 -0.449063
C54   C     C_3   0.614412 0.662681 0.138510 -0.253771
C55   C     C_3   0.642365 0.779870 0.098531 -0.338828
C56   C     C_R   0.099175 0.375042 0.684128 -0.111753
C57   C     C_3   0.690780 0.784317 0.173529 -0.409297
C58   C     C_R   0.657316 0.289240 0.432815 0.034343
C59   C     C_R   0.667173 0.231179 0.304603 -0.094573
C60   C     C_R   0.654735 0.107495 0.285175 -0.116386
C61   C     C_R   0.632649 0.040903 0.393488 -0.099135
C62   C     C_R   0.623213 0.097771 0.521706 -0.107931
C63   C     C_R   0.635113 0.221784 0.541224 -0.075719
C64   C     C_R   0.127696 0.624609 0.430705 0.025267
C65   C     C_R   0.354337 0.506412 0.502010 0.003205
C66   C     C_R   0.644756 0.512992 0.499686 -0.002171
Cu1   Cu    Cu3+1 0.500000 0.499980 0.640670 0.922985
Cu2   Cu    Cu3+1 0.500000 0.500020 0.359330 0.931415
H1    H     H_    0.348831 0.548318 0.723741 0.125437
H2    H     H_    0.507104 0.889294 0.271992 0.124525
H3    H     H_    0.438121 0.887499 0.729986 0.135811
H4    H     H_    0.260755 0.562499 0.725607 0.138649
H5    H     H_    0.492925 0.884347 0.842630 0.126540
H6    H     H_    0.437730 0.107625 0.733959 0.130903
H7    H     H_    0.430712 0.420800 0.131060 0.119114
H8    H     H_    0.430303 0.423295 0.872154 0.117151
H9    H     H_    0.602610 0.637521 0.864964 0.132698
H10   H     H_    0.544444 0.723686 0.857832 0.136303
H11   H     H_    0.539872 0.734598 0.108260 0.136754
H12   H     H_    0.257876 0.479008 0.285040 0.138743
H13   H     H_    0.117134 0.305120 0.746621 0.166931
H14   H     H_    0.749475 0.358243 0.432062 0.131989
H15   H     H_    0.875187 0.363701 0.794388 0.164814
H16   H     H_    0.960592 0.358400 0.799411 0.110987
H17   H     H_    0.031891 0.315143 0.756987 0.111171
H18   H     H_    0.346237 0.467122 0.280705 0.120674
H19   H     H_    0.559772 0.259326 0.043824 0.169657
H20   H     H_    0.567434 0.102269 0.106995 0.149120
H21   H     H_    0.614715 0.175998 0.007252 0.140503
H22   H     H_    0.566210 0.019918 0.870288 0.152395
H23   H     H_    0.123336 0.777158 0.284096 0.167207
H24   H     H_    0.568176 0.173498 0.795830 0.175319
H25   H     H_    0.487902 0.222426 0.890354 0.162609
H26   H     H_    0.484050 0.078105 0.980390 0.133860
H27   H     H_    0.685182 0.788646 0.288620 0.166842
H28   H     H_    0.712650 0.701293 0.147823 0.200295
H29   H     H_    0.711008 0.867596 0.139504 0.158286
H30   H     H_    0.649239 0.782815 0.983844 0.166286
H31   H     H_    0.620760 0.862671 0.127149 0.151886
H32   H     H_    0.609596 0.662871 0.253638 0.183691
H33   H     H_    0.635648 0.579455 0.108500 0.156457
H34   H     H_    0.964778 0.768515 0.255205 0.110681
H35   H     H_    0.685048 0.281169 0.220682 0.108270
H36   H     H_    0.662689 0.063048 0.186524 0.104208
H37   H     H_    0.623182 0.945045 0.378742 0.106365
H38   H     H_    0.607213 0.045136 0.606435 0.101193
H39   H     H_    0.628604 0.264145 0.642084 0.111028
H40   H     H_    0.641101 0.702581 0.569406 0.100530
H41   H     H_    0.879297 0.767841 0.255177 0.163686
H42   H     H_    0.729122 0.730632 0.573469 0.134984
H43   H     H_    0.037987 0.790684 0.286411 0.111225
H44   H     H_    0.505119 0.113559 0.272821 0.134038
N1    N     N_R   0.201372 0.528754 0.508161 -0.396097
N2    N     N_R   0.796214 0.558482 0.513522 -0.393771
N3    N     N_R   0.500300 0.500930 0.147930 -0.237165
N4    N     N_R   0.500310 0.500890 0.852020 -0.235102
O1    O     O_R   0.500000 0.319640 0.618810 -0.502799
O2    O     O_R   0.569730 0.499960 0.618810 -0.500681
O3    O     O_R   0.569740 0.500000 0.381220 -0.504805
O4    O     O_2   0.199493 0.361464 0.666452 -0.501726
O5    O     O_2   0.794197 0.420380 0.704524 -0.505060
O6    O     O_2   0.204193 0.695671 0.349481 -0.500009
O7    O     O_2   0.796727 0.701143 0.327019 -0.526832
O8    O     O_R   0.500010 0.319680 0.381230 -0.502679
O9    O     O_R   0.430260 0.500000 0.618780 -0.510274
O10   O     O_R   0.430270 0.500040 0.381190 -0.505999
O11   O     O_R   0.499990 0.680320 0.618770 -0.502597
O12   O     O_R   0.500000 0.680360 0.381190 -0.506813

loop_
_geom_bond_atom_site_label_1
_geom_bond_atom_site_label_2
_ccdc_geom_bond_type
C10   C27   A    
C7    H15   S    
C8    C13   A    
C22   C29   A    
C41   C42   A    
C54   H33   S    
C52   H22   S    
C35   C36   A    
C43   C44   S    
Cu2   O8    S    
C56   H13   S    
C31   C32   A    
C12   C23   A    
C26   C27   A    
C37   C38   S    
C49   C65   A    
C4    O9    A    
C44   H9    S    
C50   H1    S    
Cu1   O9    S    
Cu2   O3    S    
C30   C31   A    
C41   H7    S    
C1    C31   S    
C30   C38   S    
C18   C19   A    
C11   N2    A    
C4    C65   S    
C20   C24   A    
C45   C56   A    
C8    C9    A    
C57   H28   S    
C61   H37   S    
C24   H17   S    
Cu2   O12   S    
C13   N2    A    
C12   H4    S    
C59   C60   A    
C21   C22   A    
C54   H32   S    
C2    C6    A    
C41   N3    A    
C14   C19   A    
C9    C10   A    
C16   O11   A    
C44   C46   S    
C25   C29   A    
C40   C45   A    
C25   H23   S    
C6    H16   S    
C2    C20   A    
C51   C52   S    
C7    C8    A    
C17   H40   S    
C47   C64   A    
C47   O6    S    
C39   C43   A    
C21   C34   A    
C51   H26   S    
C19   N2    S    
C58   C59   A    
C15   C66   A    
Cu1   Cu2   S    
C60   C61   A    
C25   C64   A    
C28   C66   S    
Cu1   N4    S    
C5    C9    A    
C62   C63   A    
Cu1   O11   S    
C43   N4    A    
C23   N1    S    
C13   O5    S    
C40   N1    A    
C57   H29   S    
C46   C54   S    
C34   C64   A    
C17   C18   A    
C17   C66   A    
C53   H19   S    
C34   C45   A    
C1    O1    A    
Cu1   O1    S    
C33   H2    S    
C51   H25   S    
C39   C46   S    
C62   H38   S    
C42   N4    A    
C48   C49   A    
C40   O4    S    
Cu1   O2    S    
C39   N3    A    
C55   C57   S    
C53   H21   S    
C15   C58   S    
C52   H24   S    
C2    C5    A    
C14   H14   S    
C63   H39   S    
Cu2   O10   S    
C52   C53   S    
C38   H6    S    
C58   C63   A    
C47   N1    A    
C37   H5    S    
C54   C55   S    
C36   C37   S    
C23   C48   A    
C32   H44   S    
C49   H18   S    
C29   H43   S    
C3    C26   A    
C11   O7    S    
C18   H42   S    
C3    C5    A    
C28   O3    A    
C12   C50   A    
C6    C7    A    
C38   C51   S    
C30   C36   A    
C24   C56   A    
C42   H8    S    
C4    O10   A    
C59   H35   S    
C32   C33   A    
C48   H12   S    
C37   H3    S    
C1    O8    A    
C16   C35   S    
C28   O2    A    
C26   H34   S    
C46   H11   S    
C55   H30   S    
C44   H10   S    
C33   C35   A    
C53   H20   S    
C16   O12   A    
C61   C62   A    
C50   C65   A    
C10   C11   A    
Cu2   N3    S    
C20   C21   A    
C27   H41   S    
C57   H27   S    
C55   H31   S    
C14   C15   A    
C3    C22   A    
C60   H36   S    
