data_mof_unit_35730.cif
_audit_creation_date              2012-12-11T15:33:37-0500
_audit_creation_method            fapswitch 2.2
_symmetry_space_group_name_H-M    P1
_symmetry_Int_Tables_number       1
_space_group_crystal_system       triclinic
_cell_length_a                    27.116764
_cell_length_b                    7.199773
_cell_length_c                    22.733791
_cell_angle_alpha                 90.004862
_cell_angle_beta                  101.31383
_cell_angle_gamma                 90.003578
_cell_volume                      4352.17095342

loop_
_atom_site_label
_atom_site_type_symbol
_atom_type_description
_atom_site_fract_x
_atom_site_fract_y
_atom_site_fract_z
_atom_type_partial_charge
O1    O     O_R   0.207310 0.594030 0.676830 -0.532853
O2    O     O_R   0.792690 0.405970 0.323170 -0.529324
O3    O     O_R   0.292690 0.094030 0.823170 -0.532858
O4    O     O_R   0.707310 0.905970 0.176830 -0.529344
O5    O     O_R   0.197320 0.262370 0.795700 -0.538539
O6    O     O_R   0.802680 0.737630 0.204300 -0.539303
O7    O     O_R   0.302680 0.762370 0.704300 -0.538555
O8    O     O_R   0.697320 0.237630 0.295700 -0.539316
C1    C     C_R   0.185148 0.432657 0.812415 0.684011
C2    C     C_R   0.815594 0.567218 0.188597 0.683675
C3    C     C_R   0.314852 0.932655 0.687586 0.683996
C4    C     C_R   0.684404 0.067217 0.311400 0.683641
O9    O     O_R   0.201410 0.264250 0.675590 -0.534511
O10   O     O_R   0.798590 0.735750 0.324410 -0.537088
O11   O     O_R   0.298590 0.764250 0.824410 -0.534507
O12   O     O_R   0.701410 0.235750 0.175590 -0.537077
O13   O     O_R   0.296810 0.094940 0.702210 -0.538325
O14   O     O_R   0.703190 0.905060 0.297790 -0.537297
O15   O     O_R   0.203190 0.594940 0.797790 -0.538312
O16   O     O_R   0.796810 0.405060 0.202210 -0.537289
C5    C     C_R   0.189949 0.432112 0.653184 0.689770
C6    C     C_R   0.810283 0.567497 0.346602 0.686398
C7    C     C_R   0.310049 0.932136 0.846815 0.689781
C8    C     C_R   0.689717 0.067473 0.153400 0.686410
O17   O     O_3   0.281300 0.427390 0.758870 -0.371606
O18   O     O_3   0.718700 0.572610 0.241130 -0.372404
O19   O     O_3   0.218700 0.927390 0.741130 -0.371586
O20   O     O_3   0.781300 0.072610 0.258870 -0.372368
V1    V     V_3+5 0.244190 0.152150 0.748350 1.411664
V2    V     V_3+5 0.755810 0.847850 0.251650 1.408224
V3    V     V_3+5 0.255810 0.652150 0.751650 1.411645
V4    V     V_3+5 0.744190 0.347850 0.248350 1.408201
C9    C     C_R   0.655165 0.061340 0.094563 -0.072266
C10   C     C_R   0.345175 0.931996 0.905359 -0.073923
C11   C     C_R   0.844833 0.561486 0.405446 -0.072403
C12   C     C_R   0.154812 0.431861 0.594642 -0.074036
C13   C     C_R   0.640467 0.117706 0.987825 -0.140891
C14   C     C_R   0.364704 0.811267 0.006384 -0.137466
C15   C     C_R   0.859592 0.619063 0.512126 -0.141020
C16   C     C_R   0.135189 0.310243 0.493725 -0.137488
C17   C     C_R   0.672758 0.115687 0.043519 -0.159236
C18   C     C_R   0.330121 0.844944 0.953754 -0.151235
C19   C     C_R   0.827290 0.616683 0.456442 -0.159240
C20   C     C_R   0.169807 0.344243 0.546302 -0.151145
C21   C     C_R   0.604501 0.009112 0.089396 -0.177685
C22   C     C_R   0.395639 0.987143 0.910477 -0.178808
C23   C     C_R   0.895464 0.508775 0.410654 -0.177651
C24   C     C_R   0.104371 0.487324 0.589507 -0.178873
C25   C     C_R   0.571186 0.000957 0.032455 0.087876
C26   C     C_R   0.432915 0.939063 0.961889 0.090851
C27   C     C_R   0.928790 0.501054 0.467595 0.087807
C28   C     C_R   0.067054 0.438971 0.538157 0.090862
C29   C     C_R   0.590041 0.062836 0.981983 0.056588
C30   C     C_R   0.415731 0.854691 0.010585 0.060963
C31   C     C_R   0.909986 0.563770 0.518009 0.056532
C32   C     C_R   0.084180 0.353931 0.489524 0.060985
C33   C     C_R   0.519634 0.940401 0.024027 -0.113431
C34   C     C_R   0.486208 0.970665 0.967112 -0.110318
C35   C     C_R   0.980315 0.440177 0.476067 -0.113450
C36   C     C_R   0.013775 0.470908 0.532933 -0.110325
C37   C     C_R   0.508272 0.019151 0.917167 0.462498
C38   C     C_R   0.500797 0.840248 0.068930 0.457644
C39   C     C_R   0.991753 0.520212 0.582839 0.462550
C40   C     C_R   0.999087 0.339295 0.431264 0.457616
C41   C     C_R   0.558902 0.067681 0.925564 -0.266346
C42   C     C_R   0.449578 0.805294 0.062452 -0.263180
C43   C     C_R   0.941145 0.569065 0.574411 -0.266375
C44   C     C_R   0.050292 0.304109 0.437735 -0.263150
H1    H     H_    0.574110 0.107806 0.886710 0.146103
H2    H     H_    0.436446 0.732192 0.098176 0.144900
H3    H     H_    0.925971 0.609833 0.613230 0.146098
H4    H     H_    0.063377 0.230472 0.402077 0.144915
H5    H     H_    0.404196 0.065173 0.873443 0.173999
H6    H     H_    0.591783 0.985790 0.130777 0.164010
H7    H     H_    0.095865 0.565760 0.626489 0.174113
H8    H     H_    0.908160 0.484802 0.369293 0.164060
H9    H     H_    0.291532 0.799691 0.950307 0.102118
H10   H     H_    0.711524 0.158553 0.046934 0.108460
H11   H     H_    0.208374 0.298744 0.549761 0.102175
H12   H     H_    0.788555 0.659959 0.452993 0.108544
H13   H     H_    0.655005 0.162841 0.949038 0.116549
H14   H     H_    0.351786 0.743944 0.043248 0.114456
H15   H     H_    0.845093 0.664855 0.550871 0.116563
H16   H     H_    0.148062 0.242436 0.456910 0.114459
C45   C     C_R   0.617591 0.886371 0.348634 -0.174692
C46   C     C_R   0.352722 0.105772 0.611670 -0.133768
C47   C     C_R   0.882385 0.386374 0.151317 -0.174794
C48   C     C_R   0.147304 0.605769 0.888355 -0.133670
H17   H     H_    0.625156 0.771910 0.320742 0.127842
H18   H     H_    0.325239 0.212567 0.613961 0.134044
H19   H     H_    0.874815 0.271883 0.179190 0.127872
H20   H     H_    0.174808 0.712512 0.886080 0.134036
C49   C     C_R   0.580330 0.864999 0.383542 0.142953
C50   C     C_R   0.387278 0.127080 0.572907 0.129650
C51   C     C_R   0.919640 0.365037 0.116398 0.142922
C52   C     C_R   0.112747 0.627125 0.927113 0.129659
C53   C     C_R   0.570238 0.015319 0.420472 0.002942
C54   C     C_R   0.423566 0.984034 0.571387 -0.034905
C55   C     C_R   0.929736 0.515389 0.079494 0.003072
C56   C     C_R   0.076434 0.484123 0.928614 -0.034992
C57   C     C_R   0.596940 0.182914 0.418484 -0.173643
C58   C     C_R   0.422049 0.824080 0.606975 -0.146075
C59   C     C_R   0.903050 0.682985 0.081510 -0.173670
C60   C     C_R   0.077931 0.324184 0.893002 -0.146126
H21   H     H_    0.590411 0.300220 0.445741 0.140302
H22   H     H_    0.448715 0.712346 0.606592 0.146043
H23   H     H_    0.909588 0.800301 0.054267 0.140216
H24   H     H_    0.051250 0.212477 0.893362 0.146121
C61   C     C_R   0.633097 0.202120 0.382545 -0.173708
C62   C     C_R   0.386865 0.805350 0.644173 -0.181355
C63   C     C_R   0.866899 0.702163 0.117459 -0.173635
C64   C     C_R   0.113116 0.305418 0.855807 -0.181564
H25   H     H_    0.653018 0.332683 0.383039 0.123944
H26   H     H_    0.387400 0.680998 0.671096 0.129242
H27   H     H_    0.846987 0.832731 0.116989 0.123935
H28   H     H_    0.112564 0.181082 0.828866 0.129289
C65   C     C_R   0.644375 0.053224 0.347813 -0.068837
C66   C     C_R   0.352114 0.946702 0.647414 -0.083331
C67   C     C_R   0.855614 0.553237 0.152171 -0.068838
C68   C     C_R   0.147890 0.446718 0.852589 -0.083349
N1    N     N_R   0.512080 0.164215 0.478142 -0.287854
N2    N     N_R   0.484163 0.835452 0.516836 -0.282760
N3    N     N_R   0.988046 0.664274 0.022039 -0.287840
N4    N     N_R   0.015672 0.335615 0.982953 -0.282796
N5    N     N_R   0.478172 0.157856 0.513386 -0.304955
N6    N     N_R   0.518347 0.841951 0.481935 -0.290158
N7    N     N_R   0.021961 0.657918 0.986807 -0.305081
N8    N     N_R   0.981480 0.342108 0.017843 -0.290156
C69   C     C_R   0.462667 0.993355 0.532821 0.504110
C70   C     C_R   0.532557 0.005994 0.460822 0.513148
C71   C     C_R   0.037322 0.493460 0.967174 0.504173
C72   C     C_R   0.967416 0.506089 0.039151 0.513181
O21   O     O_3   0.482149 0.011213 0.858641 -0.564420
C73   C     C_3   0.484823 0.828194 0.837296 -0.264806
H29   H     H_    0.467713 0.726776 0.864379 0.144061
H30   H     H_    0.524335 0.788192 0.836477 0.146464
H31   H     H_    0.463152 0.821274 0.790571 0.167504
O22   O     O_3   0.531937 0.762725 0.118216 -0.564764
C74   C     C_3   0.548479 0.588047 0.101577 -0.246089
H32   H     H_    0.570470 0.601282 0.065265 0.145899
H33   H     H_    0.516344 0.490975 0.087635 0.140649
H34   H     H_    0.573691 0.526210 0.141065 0.166638
O23   O     O_3   0.017890 0.512821 0.641365 -0.564422
C75   C     C_3   0.015154 0.330095 0.662921 -0.264979
H35   H     H_    0.032213 0.228201 0.635943 0.144084
H36   H     H_    0.975629 0.290409 0.663805 0.146489
H37   H     H_    0.036837 0.323605 0.709646 0.167559
O24   O     O_3   0.967893 0.261297 0.382100 -0.564754
C76   C     C_3   0.951307 0.086973 0.398981 -0.245755
H38   H     H_    0.929343 0.100881 0.435297 0.145874
H39   H     H_    0.983415 0.989872 0.413028 0.140607
H40   H     H_    0.926058 0.024745 0.359589 0.166687
C77   C     C_3   0.551812 0.682326 0.377773 -0.361965
C78   C     C_3   0.497931 0.705712 0.343049 -0.683315
H41   H     H_    0.476514 0.804798 0.365720 0.232410
H42   H     H_    0.498176 0.757226 0.297041 0.224024
H43   H     H_    0.478432 0.569363 0.339576 0.221532
H44   H     H_    0.570311 0.578560 0.353037 0.171171
H45   H     H_    0.552633 0.618392 0.422223 0.211073
C79   C     C_3   0.385024 0.298337 0.532767 -0.328149
C80   C     C_3   0.339112 0.424765 0.529279 -0.790774
H46   H     H_    0.303807 0.344820 0.514520 0.222336
H47   H     H_    0.339131 0.491660 0.573269 0.228395
H48   H     H_    0.340524 0.536796 0.496069 0.235487
H49   H     H_    0.419017 0.384463 0.548638 0.213516
H50   H     H_    0.384974 0.251526 0.486169 0.200306
C81   C     C_3   0.948154 0.182377 0.122126 -0.362059
C82   C     C_3   0.002053 0.205770 0.156800 -0.683365
H51   H     H_    0.023462 0.304754 0.134083 0.232374
H52   H     H_    0.001846 0.257404 0.202806 0.223975
H53   H     H_    0.021535 0.069399 0.160277 0.221592
H54   H     H_    0.929673 0.078602 0.146876 0.171241
H55   H     H_    0.947305 0.118475 0.077662 0.211079
C83   C     C_3   0.115023 0.798405 0.967258 -0.328144
C84   C     C_3   0.160916 0.924927 0.970690 -0.790869
H56   H     H_    0.196234 0.845081 0.985442 0.222302
H57   H     H_    0.160864 0.991733 0.926683 0.228447
H58   H     H_    0.159505 0.037022 0.003886 0.235477
H59   H     H_    0.081018 0.884479 0.951422 0.213546
H60   H     H_    0.115119 0.751610 0.013866 0.200381

loop_
_geom_bond_atom_site_label_1
_geom_bond_atom_site_label_2
_ccdc_geom_bond_type
O17   V3    S    
C55   C59   A    
C48   C52   A    
O1    C5    A    
C47   H19   S    
N3    C72   A    
O19   V1    S    
C9    C21   A    
C16   H16   S    
O3    C7    A    
C10   C18   A    
C56   C60   A    
N1    C70   A    
O15   V3    S    
C62   C66   A    
C73   H31   S    
C80   H46   S    
C56   C71   S    
C37   O21   S    
C33   C38   A    
C84   H57   S    
C5    C12   S    
O5    C1    A    
C6    C11   S    
C35   C40   A    
C26   C30   A    
C52   C83   S    
C55   C72   S    
C36   C39   A    
C40   C44   A    
O2    V4    S    
O9    V1    S    
C23   H8    S    
C14   C18   A    
C76   H39   S    
O4    C8    A    
C74   H34   S    
C51   C55   A    
C43   H3    S    
C50   C54   A    
C57   C61   A    
O23   C75   S    
C60   H24   S    
O1    V3    S    
O13   V1    S    
C31   C43   A    
C59   C63   A    
C77   H44   S    
O3    V1    S    
C83   C84   S    
C2    C67   S    
C46   C50   A    
N1    N5    A    
C45   C49   A    
C1    O15   A    
C82   H53   S    
C15   C31   A    
C39   O23   S    
C48   H20   S    
C2    O16   A    
C16   C32   A    
C47   C51   A    
O2    C6    A    
C58   H22   S    
C10   C22   A    
C79   H50   S    
C48   C68   A    
C11   C19   A    
C62   H26   S    
N2    C69   A    
C78   H42   S    
C44   H4    S    
N4    N8    A    
C13   C29   A    
C34   C37   A    
C82   H52   S    
C11   C23   A    
C35   C36   A    
O12   C8    A    
C40   O24   S    
C24   H7    S    
C13   H13   S    
O10   V2    S    
C75   H37   S    
N8    C72   A    
C80   H47   S    
C84   H58   S    
O5    V1    S    
C57   H21   S    
C39   C43   A    
O7    V3    S    
C38   C42   A    
C61   C65   A    
C26   C34   A    
O24   C76   S    
C78   H43   S    
C75   H36   S    
C46   H18   S    
C76   H40   S    
C81   C82   S    
C60   C64   A    
C45   H17   S    
O18   V4    S    
C15   C19   A    
C19   H12   S    
C54   C58   A    
O4    V2    S    
N4    C71   A    
C21   H6    S    
O8    V4    S    
N2    N6    A    
O7    C3    A    
O6    C2    A    
C47   C67   A    
C17   H10   S    
C37   C41   A    
C63   H27   S    
N3    N7    A    
C84   H56   S    
C14   C30   A    
C21   C25   A    
O8    C4    A    
C7    C10   S    
C53   C57   A    
O9    C5    A    
C46   C66   A    
C79   H49   S    
C38   O22   S    
C45   C65   A    
C78   H41   S    
C73   H29   S    
O14   V2    S    
C63   C67   A    
C82   H51   S    
O6    V2    S    
C16   C20   A    
O21   C73   S    
C12   C20   A    
C27   C35   A    
C49   C53   A    
C64   H28   S    
C80   H48   S    
C29   C41   A    
C77   H45   S    
C64   C68   A    
O16   V4    S    
C3    O13   A    
C50   C79   S    
C20   H11   S    
C75   H35   S    
C51   C81   S    
C53   C70   S    
C25   C33   A    
C23   C27   A    
C74   H32   S    
O11   V3    S    
C81   H54   S    
C30   C42   A    
C61   H25   S    
O12   V4    S    
C22   C26   A    
C83   H60   S    
C8    C9    S    
C81   H55   S    
C9    C17   A    
C79   C80   S    
O10   C6    A    
C49   C77   S    
C15   H15   S    
O20   V2    S    
C32   C44   A    
C76   H38   S    
C74   H33   S    
C33   C34   A    
C42   H2    S    
C41   H1    S    
C52   C56   A    
C54   C69   S    
O11   C7    A    
C73   H30   S    
C12   C24   A    
C27   C31   A    
C13   C17   A    
N7    C71   A    
C25   C29   A    
C58   C62   A    
O22   C74   S    
C4    C65   S    
N5    C69   A    
C24   C28   A    
C18   H9    S    
C28   C36   A    
C4    O14   A    
C1    C68   S    
N6    C70   A    
C59   H23   S    
C77   C78   S    
C3    C66   S    
C83   H59   S    
C22   H5    S    
C14   H14   S    
C28   C32   A    
