data_mof_unit_48179.cif
_audit_creation_date              2012-12-10T19:03:06-0500
_audit_creation_method            fapswitch 2.2
_symmetry_space_group_name_H-M    P1
_symmetry_Int_Tables_number       1
_space_group_crystal_system       triclinic
_cell_length_a                    10.748088
_cell_length_b                    10.807884
_cell_length_c                    9.537173
_cell_angle_alpha                 89.944237
_cell_angle_beta                  89.66806
_cell_angle_gamma                 89.807447
_cell_volume                      1107.8516543

loop_
_atom_site_label
_atom_site_type_symbol
_atom_type_description
_atom_site_fract_x
_atom_site_fract_y
_atom_site_fract_z
_atom_type_partial_charge
C1    C     C_R   0.502737 0.262258 0.500013 0.794976
C2    C     C_3   0.877755 0.499654 0.499314 0.069812
C3    C     C_3   0.927079 0.619257 0.571789 0.124844
C4    C     C_3   0.930349 0.490958 0.347243 -0.407568
C5    C     C_R   0.517594 0.063326 0.625804 0.130764
C6    C     C_R   0.516467 0.129129 0.499842 -0.101357
C7    C     C_R   0.534509 0.064447 0.373410 -0.235908
C8    C     C_R   0.534836 0.935453 0.373349 -0.225231
C9    C     C_R   0.517017 0.870592 0.499704 -0.087051
C10   C     C_R   0.517869 0.936051 0.625710 0.123205
C11   C     C_3   0.431503 0.929251 0.748728 -0.475251
C12   C     C_R   0.259821 0.498686 0.500492 0.784293
C13   C     C_3   0.431168 0.069776 0.748870 -0.480750
C14   C     C_R   0.549456 0.597124 0.073160 0.261548
C15   C     C_R   0.439340 0.411056 0.074943 -0.093142
C16   C     C_R   0.439378 0.411030 0.926002 -0.091016
C17   C     C_R   0.549107 0.597293 0.925750 0.261852
C18   C     C_3   0.679710 0.642379 0.918222 -0.512090
C19   C     C_3   0.680704 0.640736 0.077215 -0.520548
C20   C     C_R   0.503090 0.737660 0.499893 0.819244
C21   C     C_R   0.740006 0.499574 0.499548 0.817561
C22   C     C_3   0.069150 0.381352 0.579836 0.143948
C23   C     C_3   0.925027 0.385034 0.581994 -0.479974
C24   C     C_3   0.071287 0.621128 0.565229 -0.415579
C25   C     C_3   0.072837 0.492581 0.348278 -0.458486
C26   C     C_3   0.121850 0.498327 0.501740 0.104212
Cu1   Cu    Cu3+1 0.499990 0.499980 0.640670 0.939261
Cu2   Cu    Cu3+1 0.500010 0.500020 0.359330 0.928578
H1    H     H_    0.896759 0.569357 0.282554 0.172858
H2    H     H_    0.104201 0.699722 0.499320 0.155282
H3    H     H_    0.541914 0.112761 0.274170 0.163512
H4    H     H_    0.542393 0.887328 0.274093 0.159191
H5    H     H_    0.339798 0.888480 0.721855 0.190837
H6    H     H_    0.477197 0.888534 0.842416 0.193233
H7    H     H_    0.339270 0.110886 0.722174 0.191401
H8    H     H_    0.476697 0.109900 0.842712 0.192648
H9    H     H_    0.392024 0.337870 0.131067 0.137218
H10   H     H_    0.095807 0.300806 0.512889 0.086475
H11   H     H_    0.391884 0.338019 0.870620 0.155662
H12   H     H_    0.744686 0.573678 0.871145 0.208960
H13   H     H_    0.685272 0.737152 0.873552 0.187061
H14   H     H_    0.744522 0.569382 0.119655 0.211449
H15   H     H_    0.689123 0.734222 0.124596 0.188715
H16   H     H_    0.888563 0.299044 0.533009 0.140243
H17   H     H_    0.887608 0.385748 0.690734 0.183463
H18   H     H_    0.109207 0.639523 0.670705 0.155277
H19   H     H_    0.898184 0.615533 0.683991 0.133882
H20   H     H_    0.106129 0.573942 0.287006 0.188776
H21   H     H_    0.108640 0.408319 0.294088 0.170032
H22   H     H_    0.897871 0.404270 0.296367 0.175687
N1    N     N_R   0.500800 0.500930 0.147930 -0.182871
N2    N     N_R   0.500800 0.500890 0.852020 -0.185804
O1    O     O_R   0.500000 0.319640 0.618810 -0.579174
O2    O     O_R   0.500010 0.319680 0.381230 -0.592818
O3    O     O_R   0.317690 0.499960 0.618790 -0.561527
O4    O     O_R   0.317700 0.500000 0.381210 -0.596973
O5    O     O_R   0.499990 0.680320 0.618770 -0.579458
O6    O     O_R   0.500000 0.680360 0.381190 -0.585502
O7    O     O_R   0.682300 0.500000 0.618790 -0.593408
O8    O     O_R   0.682310 0.500040 0.381210 -0.585780
N3    N     N_2   0.121951 0.354881 0.718042 -0.416478
H23   H     H_    0.111844 0.263425 0.747075 0.233864
C27   C     C_3   0.105831 0.439674 0.834888 -0.666384
H24   H     H_    0.115515 0.388401 0.935318 0.198027
H25   H     H_    0.013241 0.484685 0.835127 0.206478
H26   H     H_    0.179939 0.510510 0.833751 0.245703
N4    N     N_2   0.874034 0.730355 0.508305 -0.430171
H27   H     H_    0.902161 0.747717 0.406673 0.256467
C28   C     C_3   0.872215 0.840131 0.595003 -0.733558
H28   H     H_    0.822520 0.915695 0.539347 0.235324
H29   H     H_    0.968647 0.870647 0.617453 0.221628
H30   H     H_    0.822170 0.821827 0.694904 0.230404

loop_
_geom_bond_atom_site_label_1
_geom_bond_atom_site_label_2
_ccdc_geom_bond_type
C8    C9    A    
C28   H30   S    
C2    C4    S    
C1    O2    A    
Cu1   O1    S    
C21   O7    A    
C6    C7    A    
C23   H17   S    
C15   N1    A    
C9    C10   A    
C9    C20   S    
C5    C13   S    
C4    H1    S    
C14   C17   A    
C19   H14   S    
C11   H5    S    
C24   H18   S    
N3    H23   S    
C2    C21   S    
C27   H25   S    
C2    C3    S    
Cu2   O4    S    
C27   H26   S    
C28   H29   S    
C7    C8    A    
Cu1   O7    S    
C22   N3    S    
C11   C13   S    
C25   H20   S    
C3    C24   S    
C12   O4    A    
C21   O8    A    
N4    H27   S    
C5    C6    A    
C17   N2    A    
C3    H19   S    
C19   H15   S    
C13   H7    S    
Cu2   O6    S    
Cu2   O8    S    
C14   N1    A    
Cu1   O5    S    
C28   H28   S    
C24   C26   S    
Cu2   N1    S    
C24   H2    S    
C12   O3    A    
C7    H3    S    
C10   C11   S    
Cu1   O3    S    
C16   H11   S    
C20   O6    A    
C15   C16   A    
C22   H10   S    
C4    C25   S    
C5    C10   A    
Cu1   N2    S    
C13   H8    S    
C17   C18   S    
C18   C19   S    
C22   C26   S    
C18   H13   S    
C12   C26   S    
C2    C23   S    
N3    C27   S    
C18   H12   S    
C22   C23   S    
C15   H9    S    
C1    O1    A    
C1    C6    S    
N4    C28   S    
C25   C26   S    
Cu2   O2    S    
C20   O5    A    
C14   C19   S    
C11   H6    S    
C3    N4    S    
C23   H16   S    
C16   N2    A    
C4    H22   S    
C27   H24   S    
Cu1   Cu2   S    
C25   H21   S    
C8    H4    S    
