data_mof_unit_25992.cif
_audit_creation_date              2013-03-05T16:01:06-0500
_audit_creation_method            fapswitch 2.2
_symmetry_space_group_name_H-M    P1
_symmetry_Int_Tables_number       1
_space_group_crystal_system       triclinic
_cell_length_a                    8.484212
_cell_length_b                    13.333217
_cell_length_c                    18.827268
_cell_angle_alpha                 100.026298
_cell_angle_beta                  91.413599
_cell_angle_gamma                 99.44054
_cell_volume                      2065.73672366

loop_
_atom_site_label
_atom_site_type_symbol
_atom_site_description
_atom_site_fract_x
_atom_site_fract_y
_atom_site_fract_z
_atom_type_partial_charge
P1    P     P_3+3 0.041040 0.394770 0.336330 0.411086
O1    O     O_2   0.873090 0.425890 0.325140 -0.353174
O2    O     O_3   0.122420 0.434370 0.414380 -0.408613
O3    O     O_3   0.659500 0.627100 0.368810 -0.369999
O4    O     O_2   0.739643 0.542536 0.243655 -0.395051
O5    O     O_3   0.037187 0.264006 0.296512 -0.667762
O6    O     O_3   0.720861 0.738024 0.259634 -0.529204
H1    H     H_    0.738948 0.821098 0.363756 0.146650
C1    C     C_3   0.716182 0.916675 0.285230 -0.930375
H2    H     H_    0.668920 0.978064 0.321945 0.247735
H3    H     H_    0.848032 0.936414 0.283878 0.302366
P2    P     P_3+3 0.672880 0.754030 0.556100 0.443428
P3    P     P_3+3 0.138313 0.813437 0.399314 0.445891
O7    O     O_2   0.848200 0.768190 0.534530 -0.352840
O8    O     O_3   0.081160 0.685950 0.404810 -0.381409
O9    O     O_2   0.022675 0.868959 0.447911 -0.376685
O10   O     O_3   0.707452 0.819661 0.648010 -0.543955
O11   O     O_3   0.076170 0.825538 0.311394 -0.590384
C2    C     C_3   0.144790 0.760751 0.257860 1.129332
H4    H     H_    0.157433 0.687962 0.276029 0.005801
C3    C     C_3   0.030707 0.728012 0.189635 -0.992515
H5    H     H_    0.941827 0.659545 0.194361 0.279377
H6    H     H_    0.967449 0.791783 0.180751 0.260672
C4    C     C_3   0.210004 0.773906 0.611191 0.341392
H7    H     H_    0.329120 0.764406 0.590978 -0.012239
H8    H     H_    0.115899 0.733867 0.569438 0.128472
C5    C     C_3   0.194807 0.886995 0.623599 0.161263
H9    H     H_    0.296298 0.930912 0.660326 0.144141
H10   H     H_    0.204961 0.912853 0.570887 0.079297
Ba1   Ba    Ba6+2 0.852780 0.548340 0.465070 1.544568
C6    C     C_3   0.891846 0.198042 0.299339 1.088666
H11   H     H_    0.798745 0.238891 0.324256 0.087225
C7    C     C_3   0.832737 0.140871 0.223348 -0.951148
H12   H     H_    0.715629 0.090970 0.225720 0.232096
H13   H     H_    0.919879 0.092084 0.200169 0.241844
H14   H     H_    0.813600 0.192952 0.186084 0.214134
C8    C     C_3   0.655050 0.765713 0.703504 0.584050
H15   H     H_    0.558643 0.700150 0.683322 0.093965
C9    C     C_3   0.594253 0.838683 0.765799 0.195479
H16   H     H_    0.682539 0.911510 0.779541 0.068745
H17   H     H_    0.588101 0.799129 0.813362 0.037772
P4    P     P_3+3 0.148670 0.605320 0.663680 0.493554
O12   O     O_2   0.316610 0.574140 0.674900 -0.374255
O13   O     O_3   0.067290 0.565720 0.585630 -0.387488
O14   O     O_3   0.530210 0.372990 0.631200 -0.407168
O15   O     O_3   0.194969 0.739697 0.677379 -0.550442
P5    P     P_3+3 0.060698 0.179068 0.596631 0.491205
O16   O     O_3   0.611340 0.366290 0.463630 -0.436799
O17   O     O_3   0.108550 0.314140 0.595200 -0.347519
O18   O     O_2   0.189334 0.130792 0.553585 -0.325719
O19   O     O_3   0.109345 0.168486 0.685230 -0.473999
Ba2   Ba    Ba6+2 0.337060 0.451750 0.534940 1.548524
P6    P     P_3+3 0.631546 0.618535 0.277358 0.443412
C10   C     C_3   0.673683 0.815211 0.310914 0.454670
H18   H     H_    0.542740 0.800865 0.317504 0.085503
H19   H     H_    0.664192 0.909385 0.229623 0.243875
O20   O     O_3   0.578370 0.633800 0.536380 -0.473938
C11   C     C_3   0.462549 0.242260 0.294952 1.265430
C12   C     C_3   0.343878 0.166201 0.236717 -1.123017
H20   H     H_    0.234842 0.127206 0.256825 0.246696
H21   H     H_    0.293430 0.206308 0.196844 0.241461
H22   H     H_    0.407846 0.107488 0.206828 0.238468
P7    P     P_3+3 0.521480 0.229785 0.441170 0.416469
O21   O     O_2   0.341510 0.231850 0.465510 -0.362554
O22   O     O_3   0.514517 0.183372 0.345216 -0.643671
H23   H     H_    0.096626 0.706214 0.141066 0.219635
C13   C     C_3   0.009861 0.220321 0.731851 0.413871
H24   H     H_    0.985161 0.292550 0.715490 0.075105
H25   H     H_    0.896084 0.166945 0.734193 0.083242
C14   C     C_3   0.091786 0.252404 0.806991 -0.900220
H26   H     H_    0.199990 0.310715 0.805823 0.293686
H27   H     H_    0.011982 0.289603 0.844933 0.240931
H28   H     H_    0.124523 0.184423 0.826788 0.226285
P8    P     P_3+3 0.558367 0.395312 0.726637 0.511255
C15   C     C_3   0.535517 0.201718 0.744525 1.217022
H29   H     H_    0.654151 0.220465 0.720620 -0.339122
O23   O     O_2   0.452147 0.476656 0.752520 -0.375889
O24   O     O_3   0.460598 0.288665 0.761254 -0.514243
C16   C     C_3   0.568959 0.156966 0.812048 0.069026
H30   H     H_    0.566485 0.073013 0.792914 0.082780
H31   H     H_    0.473395 0.167347 0.850760 0.088620
C17   C     C_R   0.011751 0.459402 0.049504 0.071349
C18   C     C_R   0.928424 0.392610 0.091360 0.148291
C19   C     C_R   0.791356 0.324731 0.060629 -0.314669
C20   C     C_R   0.720024 0.337537 0.996451 -0.095251
C21   C     C_R   0.798775 0.407125 0.955438 -0.002899
C22   C     C_R   0.950254 0.462643 0.979391 -0.088672
C23   C     C_R   0.727521 0.420211 0.890513 0.638493
C24   C     C_R   0.821486 0.464907 0.838576 -0.261910
C25   C     C_R   0.979147 0.518527 0.861637 -0.055958
C26   C     C_R   0.037450 0.522504 0.934218 0.010993
C27   C     C_R   0.767448 0.455823 0.764817 0.086621
C28   C     C_R   0.874523 0.496215 0.716269 0.208339
C29   C     C_R   0.027668 0.552672 0.737988 0.158932
C30   C     C_R   0.078443 0.568397 0.813181 -0.048218
C31   C     C_R   0.156611 0.521194 0.077292 -0.005323
C32   C     C_R   0.211270 0.522160 0.149777 -0.019235
C33   C     C_R   0.115301 0.464707 0.195658 -0.054882
C34   C     C_R   0.979916 0.396477 0.163458 -0.204366
H32   H     H_    0.737358 0.262896 0.086609 0.128220
H33   H     H_    0.606525 0.289015 0.977306 0.168498
H34   H     H_    0.911134 0.349103 0.195509 0.171901
C35   C     C_R   0.224515 0.631324 0.842177 -0.157846
C36   C     C_R   0.274370 0.641992 0.916110 0.048320
C37   C     C_R   0.184927 0.583191 0.961213 0.027730
C38   C     C_R   0.244552 0.583204 0.032915 -0.057951
C39   C     C_R   0.417305 0.706617 0.944933 -0.287747
C40   C     C_R   0.478849 0.707265 0.015385 0.291940
C41   C     C_R   0.393267 0.643292 0.059632 0.048239
C42   C     C_R   0.362417 0.578933 0.175385 -0.008996
C43   C     C_R   0.452775 0.637274 0.129470 -0.184565
C44   C     C_R   0.417032 0.577329 0.246764 0.175416
C45   C     C_R   0.309468 0.536785 0.295370 -0.503280
C46   C     C_R   0.158734 0.475778 0.271423 0.293230
H35   H     H_    0.301211 0.671474 0.807404 0.169756
H36   H     H_    0.484717 0.754106 0.911541 0.136282
H37   H     H_    0.568012 0.681116 0.148617 0.199289
H38   H     H_    0.350386 0.543401 0.351096 0.186961
C47   C     C_R   0.751198 0.171508 0.534293 -0.235747
C48   C     C_R   0.443871 0.803986 0.461524 -0.604250
C49   C     C_R   0.405038 0.974543 0.443395 0.466848
C50   C     C_R   0.350056 0.867435 0.434161 0.083446
C51   C     C_R   0.589851 0.844565 0.501346 0.304555
C52   C     C_R   0.652605 0.954422 0.506751 -0.121561
C53   C     C_R   0.558871 0.020175 0.476215 -0.224046
C54   C     C_R   0.614022 0.131562 0.487470 0.283379
C55   C     C_R   0.853214 0.110192 0.557230 0.138091
C56   C     C_R   0.802943 0.001774 0.543570 -0.169498
H39   H     H_    0.881165 0.955655 0.562344 0.244197
H40   H     H_    0.395182 0.722784 0.457329 0.197053
O25   O     O_3   0.042297 0.900311 0.648272 -0.557727
C57   C     C_3   0.051595 0.948563 0.721303 -0.054818
H41   H     H_    0.935387 0.972701 0.734554 0.129497
H42   H     H_    0.144428 0.018773 0.733089 0.168811
H43   H     H_    0.075102 0.893776 0.756370 0.128020
O26   O     O_3   0.919661 0.121899 0.338329 -0.708401
C58   C     C_3   0.967856 0.168618 0.409264 -0.199786
H44   H     H_    0.883468 0.218307 0.430817 0.098148
H45   H     H_    0.084331 0.219270 0.413209 0.194642
H46   H     H_    0.978559 0.106577 0.439679 0.204233
C59   C     C_3   0.799570 0.733012 0.738893 -1.190569
H47   H     H_    0.859680 0.792338 0.784485 0.232850
H48   H     H_    0.758252 0.664198 0.763172 0.215616
H49   H     H_    0.893761 0.721530 0.700855 0.302032
O27   O     O_3   0.444123 0.863010 0.749904 -0.587328
C60   C     C_3   0.378174 0.904341 0.815016 -0.248157
H50   H     H_    0.465840 0.932572 0.862320 0.095905
H51   H     H_    0.281670 0.845951 0.829457 0.161275
H52   H     H_    0.325491 0.972064 0.806859 0.133595
C61   C     C_3   0.384023 0.329314 0.330744 -0.737548
H53   H     H_    0.295882 0.304451 0.367840 0.237257
H54   H     H_    0.472565 0.396840 0.357315 0.236644
H55   H     H_    0.319493 0.350535 0.287446 0.157509
O28   O     O_3   0.598222 0.286545 0.260933 -0.637737
C62   C     C_3   0.559835 0.323207 0.197202 -0.271527
H56   H     H_    0.526876 0.258306 0.151108 0.135500
H57   H     H_    0.664763 0.372955 0.183102 0.217928
H58   H     H_    0.466466 0.372276 0.202576 0.132826
O29   O     O_3   0.423841 0.124913 0.700444 -0.687791
C63   C     C_3   0.480918 0.105842 0.631915 -0.151586
H59   H     H_    0.593037 0.073993 0.634777 0.101958
H60   H     H_    0.493259 0.177346 0.608805 0.199526
H61   H     H_    0.394974 0.047737 0.596296 0.169795
O30   O     O_3   0.720222 0.202558 0.845640 -0.617451
C64   C     C_3   0.773702 0.135918 0.888253 -0.299948
H62   H     H_    0.878679 0.178818 0.923345 0.187205
H63   H     H_    0.813490 0.069656 0.853283 0.130158
H64   H     H_    0.680342 0.107830 0.924153 0.138952
O31   O     O_3   0.835927 0.470816 0.643810 -0.664594
C65   C     C_3   0.742828 0.538004 0.621737 0.098344
H65   H     H_    0.649671 0.557105 0.658897 0.100012
H66   H     H_    0.679587 0.497311 0.570853 0.225661
H67   H     H_    0.817207 0.607611 0.609897 0.139959
O32   O     O_3   0.566278 0.385137 0.878463 -0.606122
C66   C     C_3   0.484751 0.460177 0.914995 -0.192210
H68   H     H_    0.521709 0.534961 0.896824 0.157880
H69   H     H_    0.504254 0.469401 0.974555 0.116726
H70   H     H_    0.355086 0.434300 0.901503 0.182955
C67   C     C_3   0.636976 0.775391 0.041326 -1.038219
H71   H     H_    0.685885 0.820857 0.000259 0.246646
H72   H     H_    0.621430 0.830806 0.090923 0.255438
H73   H     H_    0.726002 0.727134 0.053044 0.259364
O33   O     O_3   0.300222 0.808986 0.243866 -0.681070
C68   C     C_3   0.297484 0.884059 0.199395 -0.346560
H74   H     H_    0.198832 0.929219 0.210819 0.165660
H75   H     H_    0.290332 0.847366 0.141520 0.182088
H76   H     H_    0.411779 0.938738 0.209089 0.175605
O34   O     O_3   0.292295 0.036327 0.439033 -0.585418
C69   C     C_3   0.243513 0.034105 0.367132 -0.010701
H77   H     H_    0.117219 0.998333 0.356447 0.196407
H78   H     H_    0.323568 0.002073 0.326740 0.119255
H79   H     H_    0.239498 0.113203 0.362056 0.167819
C70   C     C_3   0.792768 0.282656 0.562186 -0.667236
H80   H     H_    0.691831 0.316318 0.559053 0.277239
H81   H     H_    0.822183 0.293930 0.620761 0.216422
H82   H     H_    0.881606 0.324121 0.530778 0.254866

loop_
_geom_bond_atom_site_label_1
_geom_bond_atom_site_label_2
_geom_bond_distance
_ccdc_geom_bond_type
P7    O22   1.800993 S    
C28   C29   1.402797 A    
P3    C50   1.878610 S    
C22   C26   1.407598 A    
O3    P6    1.713572 S    
C62   H57   1.087299 S    
C5    O25   1.413449 S    
O31   C65   1.394513 S    
C26   C37   1.404243 A    
C2    H4    1.103791 S    
C4    C5    1.512419 S    
C16   O30   1.409495 S    
O33   C68   1.414916 S    
C56   H39   1.068403 S    
C32   C33   1.434023 A    
C51   C52   1.459077 A    
C66   H69   1.111795 S    
C20   C21   1.405372 A    
C68   H74   1.112870 S    
C13   H25   1.108113 S    
C58   H45   1.094595 S    
C28   O31   1.365156 S    
C64   H62   1.108685 S    
P1    C46   1.955245 S    
C8    C59   1.540668 S    
P3    O11   1.766887 S    
C48   H40   1.082111 S    
O2    Ba1   3.032588 S    
Ba1   O16   2.903769 S    
O30   C64   1.414748 S    
C2    C3    1.543403 S    
C4    H8    1.106106 S    
O11   C2    1.411295 S    
C41   C43   1.416842 A    
P1    Ba1   3.486322 S    
C3    H23   1.104294 S    
C21   C23   1.400892 A    
O12   Ba2   2.873111 S    
C33   C46   1.440582 A    
C5    H10   1.106720 S    
C65   H65   1.100127 S    
C17   C22   1.417702 A    
Ba1   O20   3.002158 S    
C7    H14   1.096254 S    
C23   O32   1.370949 S    
C40   C41   1.422251 A    
P1    O1    1.567336 D    
P4    O15   1.741887 S    
P8    C27   1.892081 S    
C69   H78   1.108869 S    
C42   C43   1.418203 A    
C44   C45   1.419206 A    
Ba1   Ba2   4.725440 S    
C11   O28   1.424415 S    
O32   C66   1.401223 S    
O29   C63   1.385922 S    
C30   C35   1.415585 A    
C57   H41   1.107318 S    
C70   H81   1.103391 S    
P8    O23   1.544078 D    
P2    O10   1.791534 S    
C39   C40   1.411552 A    
C6    C7    1.529343 S    
C14   H26   1.104775 S    
C66   H70   1.106787 S    
C1    H2    1.110360 S    
C70   H80   1.034941 S    
C48   C51   1.407794 A    
C52   C56   1.430330 A    
C67   H73   1.110758 S    
C45   H38   1.081100 S    
C70   H82   1.105695 S    
O5    C6    1.400238 S    
C12   H20   1.094288 S    
C64   H63   1.110959 S    
C18   C34   1.405356 A    
C3    H5    1.102573 S    
C67   H72   1.110420 S    
C62   H58   1.103043 S    
Ba1   O13   2.827130 S    
C69   H77   1.097448 S    
P4    O13   1.573219 S    
O7    Ba1   3.001557 S    
C36   C37   1.407145 A    
C48   C50   1.402516 A    
O27   C60   1.421023 S    
P5    O18   1.534486 D    
C60   H51   1.107236 S    
C58   H46   1.098834 S    
C12   H21   1.109834 S    
C17   C31   1.396071 A    
C60   H50   1.116601 S    
C13   H24   1.110213 S    
C19   H32   1.075378 S    
C63   H61   1.091450 S    
C25   C30   1.431612 A    
C4    H7    1.107410 S    
P5    O17   1.785087 S    
Ba2   O21   3.001807 S    
C59   H49   1.097786 S    
H1    C10   1.110808 S    
C9    H16   1.111416 S    
C16   H31   1.112920 S    
C21   C22   1.395026 A    
O26   C58   1.392348 S    
O16   P7    1.825800 S    
P5    O19   1.743505 S    
O14   Ba2   2.855405 S    
C11   C12   1.570877 S    
P7    O21   1.608137 D    
C61   H55   1.073975 S    
P1    O5    1.768581 S    
C40   C67   1.508947 S    
O34   C69   1.399651 S    
C47   C70   1.464510 S    
C63   H60   1.105963 S    
C69   H79   1.081319 S    
C35   H35   1.080455 S    
C15   H29   1.121214 S    
C49   C53   1.422746 A    
C8    H15   1.100918 S    
C60   H52   1.102732 S    
C11   O22   1.434611 S    
C18   C19   1.394790 A    
P3    O8    1.711296 S    
O17   Ba2   2.842304 S    
C31   C32   1.427706 A    
C9    O27   1.402741 S    
C14   H28   1.110298 S    
C7    H12   1.107937 S    
O28   C62   1.421940 S    
C1    H19   1.108054 S    
O19   C13   1.406134 S    
C19   C20   1.387467 A    
C24   C27   1.430073 A    
C1    H3    1.108349 S    
C49   C50   1.406516 A    
P2    O20   1.645290 S    
P6    C44   1.859041 S    
P2    O7    1.541898 D    
C17   C18   1.406832 A    
C64   H64   1.114333 S    
C3    H6    1.110752 S    
C53   C54   1.458445 A    
C61   H54   1.108132 S    
P4    O12   1.567695 D    
O6    P6    1.739352 S    
C2    O33   1.421261 S    
C55   C56   1.414419 A    
C35   C36   1.420900 A    
C20   H33   1.083068 S    
O8    Ba1   2.841656 S    
C45   C46   1.415286 A    
C58   H44   1.092025 S    
C15   O29   1.407894 S    
C31   C38   1.416764 A    
C10   H18   1.109748 S    
C12   H22   1.106825 S    
P2    Ba1   3.557228 S    
P4    C29   1.918421 S    
C6    H11   1.100498 S    
C6    O26   1.398135 S    
O25   C57   1.407374 S    
O2    Ba2   2.827804 S    
P5    C55   1.913232 S    
O10   C8    1.409386 S    
C67   H71   1.110865 S    
C37   C38   1.429856 A    
C68   H76   1.103702 S    
C43   H37   1.072050 S    
O1    Ba1   2.872773 S    
C13   C14   1.520090 S    
C4    O15   1.401372 S    
C63   H59   1.107276 S    
C59   H48   1.105485 S    
O4    P6    1.542796 D    
C8    C9    1.544459 S    
C66   H68   1.109549 S    
C59   H47   1.110056 S    
C49   O34   1.370585 S    
C32   C42   1.404949 A    
O13   Ba2   3.033519 S    
C25   C26   1.430955 A    
P2    C51   1.921578 S    
C65   H66   1.094614 S    
C57   H43   1.103856 S    
C27   C28   1.415149 A    
C7    H13   1.111318 S    
C68   H75   1.109813 S    
C29   C30   1.438961 A    
C15   O24   1.404158 S    
C42   C44   1.415502 A    
C39   H36   1.077410 S    
P7    C54   1.947430 S    
Ba2   O20   2.903141 S    
C16   H30   1.111163 S    
C47   C54   1.413462 A    
O16   Ba2   3.001221 S    
C34   H34   1.064349 S    
C23   C24   1.425605 A    
C9    H17   1.113767 S    
C57   H42   1.105929 S    
C33   C34   1.394739 A    
P8    O24   1.759880 S    
P3    O9    1.547387 D    
C62   H56   1.107820 S    
C61   H53   1.087178 S    
O14   P8    1.772997 S    
C14   H27   1.106974 S    
C1    C10   1.506787 S    
O6    C10   1.399904 S    
P1    O2    1.573219 S    
C24   C25   1.427735 A    
C15   C16   1.534442 S    
C65   H67   1.093669 S    
C36   C39   1.403383 A    
O3    Ba1   2.856086 S    
C11   C61   1.499560 S    
P4    Ba2   3.486953 S    
C52   C53   1.453693 A    
C5    H9    1.107557 S    
C38   C41   1.408407 A    
C47   C55   1.393055 A    
