data_mof_unit_18719.cif
_audit_creation_date              2012-12-10T18:58:11-0500
_audit_creation_method            fapswitch 2.2
_symmetry_space_group_name_H-M    P1
_symmetry_Int_Tables_number       1
_space_group_crystal_system       triclinic
_cell_length_a                    10.636359
_cell_length_b                    9.977111
_cell_length_c                    15.787403
_cell_angle_alpha                 89.980909
_cell_angle_beta                  92.102889
_cell_angle_gamma                 89.942103
_cell_volume                      1674.23207741

loop_
_atom_site_label
_atom_site_type_symbol
_atom_type_description
_atom_site_fract_x
_atom_site_fract_y
_atom_site_fract_z
_atom_type_partial_charge
C1    C     C_R   0.871470 0.499637 0.500048 -0.442829
C2    C     C_R   0.128547 0.500376 0.499972 -0.441750
C3    C     C_R   0.260942 0.500090 0.499970 0.884232
C4    C     C_R   0.739062 0.499911 0.500042 0.886187
C5    C     C_R   0.498569 0.500021 0.339457 0.867858
C6    C     C_R   0.499754 0.499976 0.660533 0.867395
C7    C     C_R   0.444174 0.623485 0.954069 0.137626
C8    C     C_R   0.445098 0.376011 0.043249 0.133160
C9    C     C_R   0.443312 0.623514 0.043101 0.132229
C10   C     C_R   0.446050 0.375958 0.954220 0.136860
C11   C     C_R   0.450980 0.499745 0.911033 0.060489
C12   C     C_R   0.449388 0.499821 0.086585 0.059908
C13   C     C_1   0.470130 0.499850 0.822549 0.010677
C14   C     C_1   0.468230 0.499981 0.176031 0.009202
C15   C     C_1   0.484245 0.500046 0.250864 -0.134486
C16   C     C_1   0.485976 0.499930 0.748481 -0.131664
C17   C     C_R   0.568770 0.070857 0.560105 0.403176
C18   C     C_R   0.431239 0.929140 0.439884 0.404785
C19   C     C_R   0.431249 0.071032 0.439875 0.403262
C20   C     C_R   0.568760 0.928971 0.560114 0.401728
C21   C     C_R   0.060883 0.457337 0.426457 0.421524
C22   C     C_R   0.939138 0.542699 0.573558 0.421527
C23   C     C_R   0.931395 0.456742 0.426523 0.433463
C24   C     C_R   0.068623 0.543267 0.573502 0.433166
N1    N     N_R   0.500000 0.857200 0.500000 -0.268500
N2    N     N_R   0.500000 0.142800 0.500000 -0.268506
O1    O     O_R   0.316770 0.614620 0.499990 -0.624621
O2    O     O_R   0.683230 0.385380 0.500010 -0.623635
O3    O     O_R   0.683230 0.614620 0.500010 -0.622623
O4    O     O_R   0.316770 0.385380 0.499990 -0.623451
O5    O     O_R   0.499980 0.614630 0.378020 -0.613471
O6    O     O_R   0.500020 0.385370 0.621980 -0.614003
O7    O     O_R   0.500020 0.614630 0.621980 -0.618182
O8    O     O_R   0.499980 0.385370 0.378020 -0.617653
Zn1   Zn    Zn3+2 0.500000 0.653120 0.500000 0.966152
Zn2   Zn    Zn3+2 0.500000 0.346880 0.500000 0.966200
O9    O     O_3   0.642003 0.132743 0.622120 -0.680275
H1    H     H_    0.656935 0.225386 0.604487 0.379929
O10   O     O_3   0.358049 0.867251 0.377842 -0.684997
H2    H     H_    0.343077 0.774614 0.395477 0.379300
O11   O     O_3   0.358088 0.133087 0.377801 -0.673484
H3    H     H_    0.343175 0.225739 0.395404 0.384069
O12   O     O_3   0.641965 0.866920 0.622161 -0.668712
H4    H     H_    0.656835 0.774262 0.604558 0.384520
C25   C     C_3   0.438875 0.756256 0.090458 -0.802653
H5    H     H_    0.435134 0.745667 0.160141 0.258994
H6    H     H_    0.523566 0.816568 0.077228 0.241533
H7    H     H_    0.353349 0.813086 0.069927 0.245891
C26   C     C_3   0.444748 0.243113 0.906756 -0.810138
H8    H     H_    0.442961 0.253517 0.836898 0.253923
H9    H     H_    0.529796 0.183941 0.925312 0.247160
H10   H     H_    0.359489 0.185186 0.922010 0.241785
C27   C     C_3   0.440761 0.756235 0.906432 -0.798817
H11   H     H_    0.438975 0.745716 0.836583 0.255733
H12   H     H_    0.354664 0.812885 0.921692 0.242465
H13   H     H_    0.524932 0.816708 0.924833 0.245223
C28   C     C_3   0.442496 0.243267 0.090765 -0.792627
H14   H     H_    0.438430 0.253873 0.160427 0.260552
H15   H     H_    0.357850 0.185188 0.070223 0.245476
H16   H     H_    0.528094 0.184168 0.077696 0.240855
O13   O     O_3   0.116764 0.417595 0.352571 -0.669647
H17   H     H_    0.206604 0.442909 0.353708 0.317617
O14   O     O_3   0.883268 0.582477 0.647440 -0.667987
H18   H     H_    0.793360 0.557450 0.646226 0.318748
O15   O     O_3   0.867854 0.416300 0.352682 -0.671833
H19   H     H_    0.777365 0.437862 0.354556 0.328648
O16   O     O_3   0.132147 0.583704 0.647355 -0.674083
H20   H     H_    0.222674 0.562215 0.645448 0.327394

loop_
_geom_bond_atom_site_label_1
_geom_bond_atom_site_label_2
_ccdc_geom_bond_type
C3    O4    A    
C6    O6    A    
C18   O10   S    
C26   H8    S    
C9    C25   S    
O9    H1    S    
C8    C28   S    
O11   H3    S    
O3    Zn1   S    
C21   O13   S    
C4    O3    A    
C6    O7    A    
O4    Zn2   S    
C8    C12   A    
C26   H10   S    
C5    O8    A    
C23   O15   S    
C2    C21   A    
C3    O1    A    
C2    C3    S    
C1    C22   A    
C25   H6    S    
C17   O9    S    
C25   H5    S    
C27   H13   S    
C7    C11   A    
C11   C13   S    
C28   H14   S    
C18   N1    A    
N1    Zn1   S    
C17   N2    A    
O6    Zn2   S    
O5    Zn1   S    
N2    Zn2   S    
O7    Zn1   S    
C12   C14   S    
C1    C23   A    
O8    Zn2   S    
C27   H12   S    
O12   H4    S    
C2    C24   A    
O13   H17   S    
C21   C23   A    
C9    C12   A    
C22   C24   A    
C28   H15   S    
C1    C4    S    
C5    C15   S    
C10   C11   A    
C7    C27   S    
C6    C16   S    
O16   H20   S    
C20   O12   S    
O2    Zn2   S    
C8    C10   A    
O15   H19   S    
C20   N1    A    
C13   C16   T    
O10   H2    S    
C7    C9    A    
C19   N2    A    
C14   C15   T    
C18   C19   A    
C28   H16   S    
C5    O5    A    
C25   H7    S    
C24   O16   S    
O1    Zn1   S    
C22   O14   S    
C27   H11   S    
C10   C26   S    
C4    O2    A    
C17   C20   A    
C19   O11   S    
O14   H18   S    
C26   H9    S    
