data_mof_unit_45291.cif
_audit_creation_date              2013-03-05T15:54:30-0500
_audit_creation_method            fapswitch 2.2
_symmetry_space_group_name_H-M    P1
_symmetry_Int_Tables_number       1
_space_group_crystal_system       triclinic
_cell_length_a                    13.353874
_cell_length_b                    13.377418
_cell_length_c                    28.532326
_cell_angle_alpha                 90.496185
_cell_angle_beta                  89.248217
_cell_angle_gamma                 119.992883
_cell_volume                      4414.07652633

loop_
_atom_site_label
_atom_site_type_symbol
_atom_site_description
_atom_site_fract_x
_atom_site_fract_y
_atom_site_fract_z
_atom_type_partial_charge
O1    O     O_R   0.530190 0.870330 0.301660 -0.529651
O2    O     O_R   0.340140 0.469810 0.198340 -0.530060
O3    O     O_R   0.129670 0.659860 0.301660 -0.520971
O4    O     O_R   0.530190 0.870330 0.198340 -0.529442
O5    O     O_R   0.340140 0.469810 0.301660 -0.538691
O6    O     O_R   0.129670 0.659860 0.198340 -0.534312
O7    O     O_R   0.870330 0.530190 0.801660 -0.542056
O8    O     O_R   0.469810 0.340140 0.698340 -0.529227
O9    O     O_R   0.659860 0.129670 0.801660 -0.532510
O10   O     O_R   0.870330 0.530190 0.698340 -0.534130
O11   O     O_R   0.469810 0.340140 0.801660 -0.532124
O12   O     O_R   0.659860 0.129670 0.698340 -0.553362
O13   O     O_R   0.494300 0.651190 0.297490 -0.528233
O14   O     O_R   0.156890 0.505700 0.202510 -0.537290
O15   O     O_R   0.348810 0.843110 0.297490 -0.524996
O16   O     O_R   0.494300 0.651190 0.202510 -0.541401
O17   O     O_R   0.156890 0.505700 0.297490 -0.536242
O18   O     O_R   0.348810 0.843110 0.202510 -0.544120
O19   O     O_R   0.651190 0.494300 0.797490 -0.530064
O20   O     O_R   0.505700 0.156890 0.702510 -0.525024
O21   O     O_R   0.843110 0.348810 0.797490 -0.517621
O22   O     O_R   0.651190 0.494300 0.702510 -0.547361
O23   O     O_R   0.505700 0.156890 0.797490 -0.523249
O24   O     O_R   0.843110 0.348810 0.702510 -0.542982
C1    C     C_R   0.438067 0.550637 0.316702 0.800152
C2    C     C_R   0.112587 0.561583 0.183490 0.783435
C3    C     C_R   0.449460 0.889286 0.316234 0.802069
C4    C     C_R   0.438561 0.550110 0.183736 0.786748
C5    C     C_R   0.110733 0.561198 0.316431 0.803833
C6    C     C_R   0.450559 0.888332 0.183818 0.783825
C7    C     C_R   0.550220 0.438516 0.816365 0.799981
C8    C     C_R   0.561632 0.111080 0.683800 0.773120
C9    C     C_R   0.887828 0.450011 0.816247 0.805879
C10   C     C_R   0.550536 0.438643 0.683537 0.776482
C11   C     C_R   0.561120 0.112481 0.816627 0.807732
C12   C     C_R   0.889594 0.449931 0.683595 0.772411
Cr1   Cr    Cr6+3 0.505050 0.756260 0.250000 0.973666
Cr2   Cr    Cr6+3 0.251210 0.494950 0.250000 0.961346
Cr3   Cr    Cr6+3 0.243740 0.748790 0.250000 0.977370
Cr4   Cr    Cr6+3 0.756260 0.505050 0.750000 0.951260
Cr5   Cr    Cr6+3 0.494950 0.251210 0.750000 0.986076
Cr6   Cr    Cr6+3 0.748790 0.243740 0.750000 0.963031
O25   O     O_3   0.333333 0.666667 0.250000 -0.341012
O26   O     O_3   0.666667 0.333333 0.750000 -0.341283
C13   C     C_1   0.060715 0.525372 0.362197 -0.120111
C14   C     C_1   0.467706 0.939610 0.139054 -0.125202
C15   C     C_1   0.470882 0.540817 0.363260 -0.104265
C16   C     C_1   0.066193 0.526291 0.137815 -0.095584
C17   C     C_1   0.460948 0.940149 0.361424 -0.093376
C18   C     C_1   0.473731 0.535743 0.138509 -0.118122
C19   C     C_1   0.527519 0.071755 0.863291 -0.106380
C20   C     C_1   0.949526 0.466443 0.639676 -0.147070
C21   C     C_1   0.540865 0.470786 0.862813 -0.131173
C22   C     C_1   0.526829 0.060682 0.638620 -0.131864
C23   C     C_1   0.932631 0.464070 0.862034 -0.115689
C24   C     C_1   0.537348 0.478867 0.638994 -0.127443
C25   C     C_R   0.986226 0.389353 0.475666 0.288258
C26   C     C_R   0.384352 0.960768 0.025196 0.314795
C27   C     C_R   0.617292 0.573478 0.472214 0.329151
C28   C     C_R   0.076613 0.461874 0.017960 0.287867
C29   C     C_R   0.420411 0.040759 0.474650 0.339710
C30   C     C_R   0.577041 0.617210 0.023109 0.303391
C31   C     C_R   0.391461 0.976122 0.976482 0.377673
C32   C     C_R   0.986123 0.385088 0.525021 0.334689
C33   C     C_R   0.588373 0.607825 0.974658 0.323651
C34   C     C_R   0.443262 0.066091 0.523244 0.285399
C35   C     C_R   0.061862 0.462798 0.969201 0.312599
C36   C     C_R   0.633606 0.573944 0.520880 0.339518
C37   C     C_R   0.068119 0.593866 0.529006 0.267603
C38   C     C_R   0.602894 0.086235 0.980881 0.257514
C39   C     C_R   0.434776 0.534200 0.533808 0.285767
C40   C     C_R   0.912908 0.516186 0.982440 0.181316
C41   C     C_R   0.536092 0.948277 0.526076 0.268165
C42   C     C_R   0.477829 0.397253 0.980692 0.248975
C43   C     C_R   0.595898 0.067783 0.029527 0.302055
C44   C     C_R   0.066086 0.597793 0.479719 0.312901
C45   C     C_R   0.469841 0.406614 0.029416 0.304574
C46   C     C_R   0.534323 0.943056 0.476972 0.293341
C47   C     C_R   0.928011 0.515658 0.031030 0.337528
C48   C     C_R   0.422203 0.539765 0.485148 0.281355
C49   C     C_R   0.021377 0.495190 0.453277 -0.137426
C50   C     C_R   0.486671 0.002272 0.051058 -0.176014
C51   C     C_R   0.509682 0.548893 0.454327 -0.201791
C52   C     C_R   0.012805 0.492769 0.048431 -0.151186
C53   C     C_R   0.475284 0.987218 0.451644 -0.145406
C54   C     C_R   0.514776 0.516462 0.049939 -0.166317
C55   C     C_R   0.500638 0.038184 0.954428 -0.182802
C56   C     C_R   0.020488 0.486260 0.551521 -0.121235
C57   C     C_R   0.535401 0.498394 0.953550 -0.188870
C58   C     C_R   0.490192 0.010092 0.548970 -0.142475
C59   C     C_R   0.979596 0.488137 0.951810 -0.132108
C60   C     C_R   0.537563 0.544979 0.551691 -0.244661
C61   C     C_1   0.988861 0.476565 0.600569 0.170806
C62   C     C_1   0.509602 0.051639 0.904404 0.180098
C63   C     C_1   0.535809 0.510789 0.599767 0.090115
C64   C     C_1   0.957964 0.475461 0.902557 0.175668
C65   C     C_1   0.506250 0.031631 0.598418 0.182911
C66   C     C_1   0.538770 0.488711 0.903801 0.139962
C67   C     C_1   0.478410 0.972180 0.099435 0.160543
C68   C     C_1   0.034405 0.504757 0.402968 0.205735
C69   C     C_1   0.495236 0.526328 0.098537 0.162349
C70   C     C_1   0.466601 0.968620 0.401783 0.220649
C71   C     C_1   0.038363 0.506032 0.097526 0.170692
C72   C     C_1   0.491556 0.541343 0.404278 0.160711
O27   O     O_3   0.941503 0.288618 0.449501 -0.566373
C73   C     C_3   0.023394 0.251357 0.444336 0.171294
H1    H     H_    0.983031 0.161593 0.457660 0.145973
H2    H     H_    0.104583 0.303112 0.464560 0.173782
C74   C     C_3   0.052382 0.251706 0.392172 -0.299711
H3    H     H_    0.971727 0.196139 0.372500 0.205674
H4    H     H_    0.091385 0.340547 0.378295 0.229669
C75   C     C_3   0.137586 0.209104 0.383451 -0.793583
H5    H     H_    0.216301 0.258719 0.404959 0.244123
H6    H     H_    0.163686 0.220679 0.345892 0.247388
H7    H     H_    0.096123 0.116058 0.391784 0.220307
O28   O     O_3   0.277561 0.890878 0.046352 -0.568252
C76   C     C_3   0.227031 0.957210 0.061420 0.156421
H8    H     H_    0.131838 0.901218 0.058500 0.141454
H9    H     H_    0.251229 0.033989 0.038958 0.197247
C77   C     C_3   0.256345 0.993681 0.112924 -0.317854
H10   H     H_    0.247559 0.919618 0.133562 0.213651
H11   H     H_    0.346757 0.065796 0.115135 0.242229
C78   C     C_3   0.178382 0.033934 0.135305 -0.750473
H12   H     H_    0.170985 0.096292 0.112504 0.270874
H13   H     H_    0.214937 0.076346 0.169410 0.241504
H14   H     H_    0.091692 0.959126 0.142113 0.220386
O29   O     O_3   0.705494 0.585252 0.442404 -0.557682
C79   C     C_3   0.760478 0.694906 0.420547 0.128084
H15   H     H_    0.698407 0.717607 0.405147 0.143795
H16   H     H_    0.812733 0.690499 0.390820 0.161670
C80   C     C_3   0.841074 0.790897 0.454103 -0.241248
H17   H     H_    0.788476 0.808106 0.479879 0.231857
H18   H     H_    0.895027 0.763674 0.473474 0.237383
C81   C     C_3   0.919498 0.901766 0.427341 -0.786955
H19   H     H_    0.981252 0.890176 0.404705 0.247416
H20   H     H_    0.969071 0.972561 0.452501 0.216826
H21   H     H_    0.867940 0.926669 0.405106 0.269900
O30   O     O_3   0.156913 0.435986 0.036080 -0.577283
C82   C     C_3   0.118216 0.316817 0.030312 0.127591
H22   H     H_    0.195393 0.306938 0.025062 0.172488
H23   H     H_    0.063217 0.277222 0.998919 0.188772
C83   C     C_3   0.053165 0.249869 0.074170 -0.293639
H24   H     H_    0.115064 0.271582 0.103372 0.213363
H25   H     H_    0.987961 0.274139 0.084922 0.244847
C84   C     C_3   0.990624 0.120285 0.065047 -0.730873
H26   H     H_    0.923131 0.096604 0.038090 0.287421
H27   H     H_    0.948226 0.074976 0.097958 0.238040
H28   H     H_    0.052111 0.092440 0.052725 0.215511
O31   O     O_3   0.350380 0.067786 0.447541 -0.561301
C85   C     C_3   0.260308 0.075240 0.471710 0.123860
H29   H     H_    0.207603 0.085148 0.444557 0.117580
H30   H     H_    0.293092 0.155852 0.492088 0.136850
C86   C     C_3   0.176434 0.967764 0.500368 -0.222690
H31   H     H_    0.111396 0.902752 0.476554 0.231407
H32   H     H_    0.221055 0.927742 0.517695 0.269183
C87   C     C_3   0.113863 0.997569 0.538309 -0.810525
H33   H     H_    0.176490 0.056090 0.564759 0.273145
H34   H     H_    0.048904 0.917421 0.556225 0.252802
H35   H     H_    0.069322 0.040559 0.522897 0.211802
O32   O     O_3   0.615990 0.724830 0.043319 -0.565399
C88   C     C_3   0.734060 0.775089 0.055176 0.143705
H36   H     H_    0.772607 0.870217 0.052965 0.174560
H37   H     H_    0.784669 0.751780 0.030418 0.154124
C89   C     C_3   0.745968 0.743445 0.105497 -0.305302
H38   H     H_    0.685725 0.755130 0.129116 0.213329
H39   H     H_    0.723877 0.651848 0.106562 0.248263
C90   C     C_3   0.868170 0.817010 0.123634 -0.750919
H40   H     H_    0.932226 0.823148 0.096924 0.247770
H41   H     H_    0.878849 0.777798 0.155972 0.252751
H42   H     H_    0.884039 0.904327 0.132624 0.215336
O33   O     O_3   0.290858 0.935909 0.951111 -0.529611
C91   C     C_3   0.265867 0.832933 0.927271 0.101928
H43   H     H_    0.205223 0.757916 0.949124 0.125376
H44   H     H_    0.343796 0.824732 0.919775 0.071521
C92   C     C_3   0.207808 0.828852 0.880870 -0.256678
H45   H     H_    0.118547 0.811735 0.887993 0.207174
H46   H     H_    0.256934 0.913649 0.862937 0.215608
C93   C     C_3   0.203131 0.735810 0.848250 -0.867340
H47   H     H_    0.291843 0.757330 0.837364 0.229768
H48   H     H_    0.153135 0.729452 0.816474 0.252167
H49   H     H_    0.160647 0.651389 0.866244 0.224632
O34   O     O_3   0.973128 0.287704 0.546994 -0.528958
C94   C     C_3   0.856492 0.212023 0.559235 0.108936
H50   H     H_    0.814048 0.148205 0.530557 0.177077
H51   H     H_    0.806760 0.257031 0.566008 0.046899
C95   C     C_3   0.851893 0.149201 0.604466 -0.271934
H52   H     H_    0.881076 0.211737 0.634047 0.195328
H53   H     H_    0.761214 0.081096 0.611799 0.188081
C96   C     C_3   0.928627 0.094575 0.601885 -0.604616
H54   H     H_    0.897515 0.026866 0.574350 0.238057
H55   H     H_    0.926890 0.055923 0.636279 0.190924
H56   H     H_    0.019961 0.160389 0.594257 0.265053
O35   O     O_3   0.661730 0.704588 0.948803 -0.552161
C97   C     C_3   0.601492 0.757551 0.930995 0.128970
H57   H     H_    0.627973 0.838263 0.951225 0.169071
H58   H     H_    0.505248 0.703551 0.933514 0.058434
C98   C     C_3   0.636176 0.787062 0.879488 -0.286821
H59   H     H_    0.731835 0.830182 0.875759 0.228826
H60   H     H_    0.597584 0.706499 0.858363 0.177082
C99   C     C_3   0.596142 0.866753 0.860324 -0.834962
H61   H     H_    0.501428 0.828520 0.865551 0.208900
H62   H     H_    0.616291 0.880553 0.822251 0.246697
H63   H     H_    0.642831 0.951397 0.878443 0.262103
O36   O     O_3   0.419616 0.143025 0.546866 -0.561427
C100  C     C_3   0.492434 0.256523 0.529909 0.083034
H64   H     H_    0.456380 0.309908 0.543545 0.124234
H65   H     H_    0.489064 0.261916 0.491095 0.129316
C101  C     C_3   0.617713 0.309381 0.547023 -0.357276
H66   H     H_    0.640177 0.386690 0.568571 0.190741
H67   H     H_    0.628127 0.249626 0.570265 0.179968
C102  C     C_3   0.703188 0.343385 0.506051 -0.714966
H68   H     H_    0.697615 0.265168 0.489644 0.213810
H69   H     H_    0.791756 0.400417 0.519003 0.207426
H70   H     H_    0.685832 0.391985 0.479152 0.271452
O37   O     O_3   0.116195 0.424463 0.938259 -0.545817
C103  C     C_3   0.233984 0.508578 0.932537 0.132946
H71   H     H_    0.286382 0.495610 0.959207 0.135808
H72   H     H_    0.250197 0.598610 0.935802 0.049541
C104  C     C_3   0.274492 0.495607 0.883595 -0.370783
H73   H     H_    0.229092 0.517435 0.856743 0.197202
H74   H     H_    0.368567 0.557112 0.879758 0.143763
C105  C     C_3   0.250670 0.372938 0.874411 -0.583971
H75   H     H_    0.289826 0.346033 0.902077 0.241248
H76   H     H_    0.288137 0.369448 0.839907 0.200432
H77   H     H_    0.156145 0.311365 0.873601 0.257201
O38   O     O_3   0.742034 0.591402 0.533599 -0.562876
C106  C     C_3   0.784875 0.640261 0.578156 0.052936
H78   H     H_    0.876722 0.663659 0.577967 0.200511
H79   H     H_    0.746607 0.574836 0.606128 0.123473
C107  C     C_3   0.782578 0.751784 0.589379 -0.307237
H80   H     H_    0.836914 0.819350 0.563497 0.198471
H81   H     H_    0.693947 0.738222 0.587862 0.265446
C108  C     C_3   0.827840 0.794041 0.638656 -0.759967
H82   H     H_    0.922382 0.826984 0.639845 0.245978
H83   H     H_    0.783073 0.723159 0.664493 0.241866
H84   H     H_    0.810259 0.863883 0.648920 0.238790
N1    N     N_R   0.128374 0.698924 0.555597 0.120761
O39   O     O_R   0.240151 0.761319 0.551321 -0.305520
O40   O     O_R   0.077803 0.719578 0.590519 -0.411687
N2    N     N_R   0.714000 0.150004 0.958145 0.127319
O41   O     O_R   0.735613 0.234770 0.930095 -0.354523
O42   O     O_R   0.794202 0.124033 0.965657 -0.376029
N3    N     N_R   0.339538 0.510188 0.564804 0.158430
O43   O     O_R   0.356024 0.570669 0.602829 -0.308354
O44   O     O_R   0.236144 0.426406 0.555389 -0.366681
N4    N     N_R   0.828893 0.545124 0.966005 -0.200337
O45   O     O_R   0.841777 0.598168 0.926468 -0.000004
O46   O     O_R   0.841778 0.598168 0.926468 -0.000004
N5    N     N_R   0.586465 0.893321 0.552408 0.098374
O47   O     O_R   0.535816 0.835685 0.590274 -0.336311
O48   O     O_R   0.682055 0.898790 0.538323 -0.409957
N6    N     N_R   0.425331 0.285150 0.958892 0.121492
O49   O     O_R   0.481866 0.261266 0.927535 -0.355634
O50   O     O_R   0.320797 0.206240 0.970500 -0.378668
N7    N     N_R   0.699438 0.117948 0.057001 0.133181
O51   O     O_R   0.718389 0.055176 0.086191 -0.396072
O52   O     O_R   0.775141 0.227148 0.052960 -0.345205
N8    N     N_R   0.112106 0.706400 0.456127 0.087830
O53   O     O_R   0.047820 0.722350 0.426697 -0.416959
O54   O     O_R   0.223273 0.775826 0.454931 -0.332644
N9    N     N_R   0.421767 0.304951 0.058026 0.122736
O55   O     O_R   0.345364 0.287426 0.090422 -0.415568
O56   O     O_R   0.459782 0.232828 0.053423 -0.360527
N10   N     N_R   0.589623 0.889527 0.452551 0.122972
O57   O     O_R   0.698526 0.951209 0.441375 -0.392740
O58   O     O_R   0.527259 0.789137 0.433005 -0.363846
N11   N     N_R   0.856541 0.538315 0.062521 0.105738
O59   O     O_R   0.901587 0.608504 0.097789 -0.409437
O60   O     O_R   0.745263 0.486660 0.056534 -0.352680
N12   N     N_R   0.324584 0.545544 0.467905 0.140051
O61   O     O_R   0.271536 0.491244 0.430033 -0.422456
O62   O     O_R   0.296016 0.615528 0.487833 -0.299660

loop_
_geom_bond_atom_site_label_1
_geom_bond_atom_site_label_2
_geom_bond_distance
_ccdc_geom_bond_type
O16   C4    1.288814 A    
C24   C63   1.205453 T    
C97   H58   1.117621 S    
O33   C91   1.414843 S    
N7    O52   1.301010 A    
C9    C23   1.415567 S    
N9    O55   1.300079 A    
C98   C99   1.519490 S    
O24   Cr6   1.901655 S    
C50   C67   1.428533 S    
C25   O27   1.385502 S    
C103  C104  1.530555 S    
C8    C22   1.421154 S    
O37   C103  1.412039 S    
C80   C81   1.524878 S    
O19   C7    1.283315 A    
C79   H15   1.111702 S    
C88   C89   1.532906 S    
C81   H21   1.109920 S    
C75   H6    1.110399 S    
C93   H47   1.110699 S    
O31   C85   1.424509 S    
C78   H12   1.105602 S    
C34   C58   1.408429 A    
C100  H64   1.107797 S    
C91   H43   1.112082 S    
C10   C24   1.431176 S    
C30   C54   1.405214 A    
O9    Cr6   2.023046 S    
O24   C12   1.292599 A    
C45   N9    1.435496 S    
C107  C108  1.525970 S    
C42   C57   1.408548 A    
O10   Cr4   2.010866 S    
C89   H38   1.111503 S    
C103  H72   1.115345 S    
C41   C58   1.404667 A    
C48   N12   1.437248 S    
C40   C47   1.404182 A    
C43   N7    1.438137 S    
C76   H9    1.115467 S    
C47   C52   1.409413 A    
C82   C83   1.528301 S    
C36   O38   1.398925 S    
C78   H13   1.110450 S    
C97   C98   1.529561 S    
O21   C9    1.289720 A    
C73   H1    1.110147 S    
C27   O29   1.387824 S    
N3    O43   1.301207 A    
C55   C62   1.436065 S    
N7    O51   1.301148 A    
O17   C5    1.290347 A    
O28   C76   1.418425 S    
C92   H46   1.111848 S    
C37   C44   1.408820 A    
C96   H55   1.107738 S    
C40   N4    1.442092 S    
C98   H60   1.109948 S    
O18   Cr3   1.899070 S    
O34   C94   1.410046 S    
C75   H5    1.111028 S    
O12   Cr6   2.026495 S    
C84   H27   1.105677 S    
C59   C64   1.429898 S    
C56   C61   1.444493 S    
C4    C18   1.411658 S    
C29   C34   1.424772 A    
C39   C60   1.408688 A    
C92   H45   1.111827 S    
C28   C35   1.408660 A    
C91   H44   1.117420 S    
N10   O57   1.300039 A    
N3    O44   1.300789 A    
C42   C45   1.402183 A    
C99   H61   1.110467 S    
C47   N11   1.439472 S    
O7    Cr4   2.035741 S    
C22   C65   1.198355 T    
O18   C6    1.288931 A    
C42   N6    1.439264 S    
C90   H42   1.106290 S    
C108  H82   1.110808 S    
C1    C15   1.431716 S    
C58   C65   1.434822 S    
O13   Cr1   1.912691 S    
C12   C20   1.435751 S    
C77   C78   1.522738 S    
O1    Cr1   2.018844 S    
O16   Cr1   1.898060 S    
C32   O34   1.380429 S    
C97   H57   1.112134 S    
O3    Cr3   2.016912 S    
N1    O39   1.300373 A    
O12   C8    1.280980 A    
C26   O28   1.387934 S    
O36   C100  1.417468 S    
O7    C9    1.280285 A    
C83   C84   1.523399 S    
O13   C1    1.290677 A    
C107  H80   1.109326 S    
C38   N2    1.438339 S    
C48   C51   1.408964 A    
O20   Cr5   1.896060 S    
C38   C55   1.410171 A    
N2    O42   1.301163 A    
C39   C48   1.407731 A    
C88   H37   1.116837 S    
C77   H11   1.108514 S    
C84   H26   1.110297 S    
C92   C93   1.524169 S    
C41   N5    1.440370 S    
C100  H65   1.113377 S    
O22   C10   1.290587 A    
N4    O46   1.300922 A    
N5    O48   1.299992 A    
C83   H24   1.111600 S    
C51   C72   1.445740 S    
C82   H23   1.114636 S    
O8    Cr5   2.035501 S    
C26   C50   1.407335 A    
C90   H41   1.110602 S    
O30   C82   1.417595 S    
C94   C95   1.529920 S    
C90   H40   1.110389 S    
N9    O56   1.300593 A    
C40   C59   1.416187 A    
C31   O33   1.383642 S    
C101  H66   1.105084 S    
C78   H14   1.103891 S    
Cr3   O25   1.988074 S    
C105  H77   1.110531 S    
C105  H76   1.109648 S    
C16   C71   1.199218 T    
C44   N8    1.433550 S    
C85   C86   1.541602 S    
C60   C63   1.445930 S    
C7    C21   1.413490 S    
C5    C13   1.431386 S    
Cr1   O25   1.986697 S    
C96   H56   1.110340 S    
N8    O54   1.299338 A    
C94   H50   1.111723 S    
C102  H68   1.110890 S    
C81   H20   1.106510 S    
C85   H30   1.102917 S    
C27   C36   1.407841 A    
C104  H74   1.109820 S    
C94   H51   1.111435 S    
C108  H84   1.107493 S    
O2    Cr2   2.010175 S    
O15   C3    1.287315 A    
C106  H78   1.103794 S    
C87   H34   1.109655 S    
N10   O58   1.299665 A    
C41   C46   1.402119 A    
C103  H71   1.111927 S    
O22   Cr4   1.915765 S    
O29   C79   1.416623 S    
C35   C59   1.399108 A    
N5    O47   1.301175 A    
C20   C61   1.206392 T    
C35   O37   1.384256 S    
O8    C10   1.286212 A    
O14   C2    1.288806 A    
C86   C87   1.526729 S    
C107  H81   1.105510 S    
C108  H83   1.110758 S    
O15   Cr3   1.909716 S    
C37   C56   1.406879 A    
C29   C53   1.408831 A    
O5    C1    1.287025 A    
C96   H54   1.109183 S    
C46   C53   1.407430 A    
C101  H67   1.104914 S    
C102  H69   1.105405 S    
C37   N1    1.437085 S    
C45   C54   1.405381 A    
O38   C106  1.414777 S    
O23   C11   1.286297 A    
N1    O40   1.299732 A    
C11   C19   1.422425 S    
Cr5   O26   1.986584 S    
N12   O62   1.299032 A    
C74   C75   1.523060 S    
C86   H32   1.103343 S    
C106  C107  1.538323 S    
C95   H53   1.110770 S    
O14   Cr2   1.916348 S    
C79   C80   1.532307 S    
C17   C70   1.201125 T    
C84   H28   1.110178 S    
N11   O60   1.301086 A    
C77   H10   1.110965 S    
C25   C32   1.409791 A    
N6    O50   1.301279 A    
O20   C8    1.288377 A    
C100  C101  1.539472 S    
C26   C31   1.401826 A    
C104  H73   1.110331 S    
N4    O45   1.300925 A    
C87   H33   1.110674 S    
C15   C72   1.205146 T    
C30   C33   1.400089 A    
C31   C55   1.409125 A    
N12   O61   1.299658 A    
C46   N10   1.431844 S    
C6    C14   1.415901 S    
C87   H35   1.109567 S    
C27   C51   1.406214 A    
C23   C64   1.195899 T    
C80   H18   1.110605 S    
C13   C68   1.204427 T    
C79   H16   1.111112 S    
C44   C49   1.408610 A    
C93   H48   1.110285 S    
C82   H22   1.110784 S    
C91   C92   1.529782 S    
C43   C50   1.407399 A    
C81   H19   1.110555 S    
O6    Cr3   2.031020 S    
C49   C68   1.442745 S    
C2    C16   1.422381 S    
C21   C66   1.194546 T    
O27   C73   1.416162 S    
C33   C57   1.402398 A    
C39   N3    1.438673 S    
O23   Cr5   1.914280 S    
C57   C66   1.426392 S    
N11   O59   1.300339 A    
O32   C88   1.415151 S    
C14   C67   1.195878 T    
C74   H4    1.106520 S    
N8    O53   1.301055 A    
C95   H52   1.111099 S    
Cr6   O26   1.988276 S    
C34   O36   1.385802 S    
Cr2   O25   1.990183 S    
O1    C3    1.288084 A    
C106  H79   1.103805 S    
C88   H36   1.110857 S    
C76   H8    1.110706 S    
C104  C105  1.528255 S    
C28   C52   1.406840 A    
O3    C5    1.287139 A    
O6    C2    1.285699 A    
C73   H2    1.116609 S    
C95   C96   1.528129 S    
C99   H63   1.109326 S    
C89   H39   1.108330 S    
N2    O41   1.300822 A    
C36   C60   1.430869 A    
C76   C77   1.537033 S    
O11   Cr5   2.014086 S    
C30   O32   1.385843 S    
O17   Cr2   1.891048 S    
C89   C90   1.518894 S    
C33   O35   1.381738 S    
C98   H59   1.112042 S    
C25   C49   1.405822 A    
O4    C6    1.276628 A    
C93   H49   1.105758 S    
O2    C4    1.279362 A    
O19   Cr4   1.891327 S    
C19   C62   1.199785 T    
O11   C7    1.284682 A    
O21   Cr6   1.907847 S    
C3    C17   1.426415 S    
Cr4   O26   1.990093 S    
C102  H70   1.108785 S    
O4    Cr1   2.031670 S    
C18   C69   1.193372 T    
C99   H62   1.110286 S    
O35   C97   1.412086 S    
C101  C102  1.526920 S    
C74   H3    1.111679 S    
C38   C43   1.405568 A    
O9    C11   1.287500 A    
C52   C71   1.434538 S    
C85   H29   1.105680 S    
O10   C12   1.288944 A    
C86   H31   1.105648 S    
O5    Cr2   2.037115 S    
C54   C69   1.424767 S    
C29   O31   1.401927 S    
C105  H75   1.109041 S    
C32   C56   1.408713 A    
C75   H7    1.106825 S    
C83   H25   1.109761 S    
C53   C70   1.438277 S    
C80   H17   1.110142 S    
C28   O30   1.387802 S    
N6    O49   1.300390 A    
C73   C74   1.532409 S    
