data_mof_unit_45173.cif
_audit_creation_date              2012-12-10T20:55:44-0500
_audit_creation_method            fapswitch 2.2
_symmetry_space_group_name_H-M    P1
_symmetry_Int_Tables_number       1
_space_group_crystal_system       triclinic
_cell_length_a                    15.847202
_cell_length_b                    15.081517
_cell_length_c                    10.66703
_cell_angle_alpha                 89.999529
_cell_angle_beta                  89.966863
_cell_angle_gamma                 89.880551
_cell_volume                      2549.41256447

loop_
_atom_site_label
_atom_site_type_symbol
_atom_type_description
_atom_site_fract_x
_atom_site_fract_y
_atom_site_fract_z
_atom_type_partial_charge
C1    C     C_1   0.251027 0.500398 0.497658 -0.179686
C2    C     C_1   0.748958 0.499574 0.496972 -0.179451
C3    C     C_R   0.499955 0.499966 0.871762 -0.187292
C4    C     C_R   0.499988 0.499993 0.128264 -0.187300
C5    C     C_R   0.500093 0.905042 0.499882 0.088608
C6    C     C_R   0.500085 0.094968 0.499866 0.090829
C7    C     C_R   0.428674 0.953300 0.460640 -0.171920
C8    C     C_R   0.571530 0.046718 0.539052 -0.171021
C9    C     C_R   0.571532 0.952989 0.539058 -0.173035
C10   C     C_R   0.428672 0.047022 0.460610 -0.171430
C11   C     C_R   0.955309 0.581248 0.487305 -0.062352
C12   C     C_R   0.044675 0.418383 0.493853 -0.062370
C13   C     C_R   0.043717 0.581667 0.488128 -0.060431
C14   C     C_R   0.956251 0.417979 0.493745 -0.060421
C15   C     C_R   0.339048 0.500110 0.500051 0.875436
C16   C     C_R   0.660947 0.499888 0.499790 0.875432
C17   C     C_R   0.500005 0.500000 0.260269 0.875172
C18   C     C_R   0.499943 0.499995 0.739739 0.873935
C19   C     C_R   0.912793 0.499452 0.491151 0.027769
C20   C     C_R   0.087187 0.500232 0.491957 0.027685
C21   C     C_1   0.500050 0.807153 0.499951 0.042668
C22   C     C_1   0.500040 0.192850 0.499943 0.043036
C23   C     C_1   0.823584 0.499319 0.494078 -0.039768
C24   C     C_1   0.176396 0.500538 0.495001 -0.040148
C25   C     C_R   0.653788 0.529265 0.130153 -0.143811
C26   C     C_R   0.346152 0.470740 0.869881 -0.144587
C27   C     C_R   0.653808 0.528834 0.869503 -0.145611
C28   C     C_R   0.346229 0.470491 0.130528 -0.144323
C29   C     C_R   0.728819 0.543088 0.064865 -0.147381
C30   C     C_R   0.271180 0.456513 0.935154 -0.145536
C31   C     C_R   0.728835 0.542845 0.934585 -0.146998
C32   C     C_R   0.271222 0.456368 0.065442 -0.148091
C33   C     C_R   0.576825 0.514881 0.934492 0.069684
C34   C     C_R   0.423150 0.484869 0.065540 0.069882
C35   C     C_R   0.576826 0.515009 0.065357 0.069663
C36   C     C_R   0.423120 0.484938 0.934675 0.069150
H1    H     H_    0.213009 0.445507 0.116303 0.127468
H2    H     H_    0.787110 0.553334 0.883724 0.132484
H3    H     H_    0.212932 0.445757 0.884434 0.133044
H4    H     H_    0.787085 0.553738 0.115541 0.126531
H5    H     H_    0.372731 0.082108 0.429704 0.122993
H6    H     H_    0.627489 0.917902 0.569896 0.127245
H7    H     H_    0.627496 0.081569 0.569865 0.123819
H8    H     H_    0.372729 0.918451 0.429801 0.126736
N1    N     N_1   0.500000 0.270550 0.500000 -0.084121
N2    N     N_1   0.500000 0.729450 0.500000 -0.084118
O1    O     O_R   0.378020 0.573650 0.500040 -0.604256
O2    O     O_R   0.621980 0.426350 0.499960 -0.604036
O3    O     O_R   0.621980 0.573650 0.499960 -0.611500
O4    O     O_R   0.378020 0.426350 0.500040 -0.611596
O5    O     O_R   0.499990 0.573670 0.316780 -0.611697
O6    O     O_R   0.500010 0.426330 0.683220 -0.611962
O7    O     O_R   0.500010 0.573670 0.683220 -0.612047
O8    O     O_R   0.499990 0.426330 0.316780 -0.611743
Zn1   Zn    Zn3+2 0.500000 0.598370 0.500000 0.977888
Zn2   Zn    Zn3+2 0.500000 0.401630 0.500000 0.978073
C37   C     C_R   0.090698 0.666928 0.483302 0.140136
C38   C     C_R   0.138214 0.695208 0.586957 -0.152205
C39   C     C_R   0.182100 0.775481 0.582316 -0.126259
C40   C     C_R   0.178598 0.828090 0.474563 -0.112871
C41   C     C_R   0.131412 0.800365 0.371113 -0.132466
C42   C     C_R   0.087639 0.720007 0.375218 -0.132436
H9    H     H_    0.140987 0.655187 0.671176 0.123821
H10   H     H_    0.218670 0.797005 0.662348 0.130416
H11   H     H_    0.212339 0.890369 0.471282 0.113982
H12   H     H_    0.128773 0.841145 0.287716 0.125979
H13   H     H_    0.051422 0.699075 0.294425 0.120701
C43   C     C_R   0.909227 0.332653 0.494091 0.140027
C44   C     C_R   0.860475 0.308164 0.598512 -0.149671
C45   C     C_R   0.816134 0.228092 0.598313 -0.130891
C46   C     C_R   0.820450 0.171881 0.494311 -0.111301
C47   C     C_R   0.868998 0.195737 0.390241 -0.128751
C48   C     C_R   0.913198 0.275888 0.389873 -0.133909
H14   H     H_    0.856969 0.351047 0.679812 0.123385
H15   H     H_    0.778512 0.209557 0.678833 0.127580
H16   H     H_    0.786240 0.109835 0.494367 0.115066
H17   H     H_    0.872287 0.152163 0.309764 0.126681
H18   H     H_    0.950354 0.293859 0.308531 0.120785
C49   C     C_R   0.907149 0.666067 0.485026 0.141778
C50   C     C_R   0.858457 0.688808 0.379764 -0.153537
C51   C     C_R   0.812709 0.768167 0.378044 -0.124669
C52   C     C_R   0.815486 0.825384 0.481036 -0.113012
C53   C     C_R   0.863853 0.803199 0.586053 -0.135067
C54   C     C_R   0.909488 0.723750 0.588316 -0.135399
H19   H     H_    0.856080 0.645095 0.299308 0.116205
H20   H     H_    0.775184 0.785347 0.296818 0.131537
H21   H     H_    0.780215 0.886909 0.479441 0.115322
H22   H     H_    0.865880 0.847515 0.665790 0.125810
H23   H     H_    0.946419 0.707013 0.670408 0.120003
C55   C     C_R   0.092801 0.333605 0.499140 0.140847
C56   C     C_R   0.142634 0.306749 0.396921 -0.148820
C57   C     C_R   0.188342 0.227438 0.402513 -0.131506
C58   C     C_R   0.184369 0.174377 0.509786 -0.110375
C59   C     C_R   0.134863 0.200669 0.611772 -0.128997
C60   C     C_R   0.089291 0.280078 0.606744 -0.139555
H24   H     H_    0.145974 0.347238 0.313204 0.117109
H25   H     H_    0.226784 0.207072 0.323664 0.127189
H26   H     H_    0.219614 0.112898 0.513919 0.115413
H27   H     H_    0.131920 0.159580 0.694835 0.126591
H28   H     H_    0.051495 0.300028 0.686574 0.120117
H29   H     H_    0.656873 0.529593 0.231375 0.127660
H30   H     H_    0.343038 0.470686 0.768658 0.127550
H31   H     H_    0.656908 0.528773 0.768274 0.127295
H32   H     H_    0.343165 0.470240 0.231755 0.127521

loop_
_geom_bond_atom_site_label_1
_geom_bond_atom_site_label_2
_ccdc_geom_bond_type
C7    C10   A    
C58   C59   A    
C8    H7    S    
C15   O1    A    
C17   O5    A    
C51   C52   A    
C55   C56   A    
C18   O6    A    
C55   C60   A    
C27   C33   A    
C11   C19   A    
C9    H6    S    
C50   H19   S    
C42   H13   S    
C3    C36   A    
C12   C55   S    
C49   C54   A    
C50   C51   A    
C13   C37   S    
C3    C33   A    
C52   H21   S    
C6    C22   S    
C3    C18   S    
C15   O4    A    
C18   O7    A    
C56   H24   S    
C41   H12   S    
C20   C24   S    
N1    Zn2   S    
C8    C9    A    
N2    Zn1   S    
C48   H18   S    
C45   C46   A    
C1    C15   S    
C2    C16   S    
C34   C36   A    
C51   H20   S    
C53   H22   S    
C4    C35   A    
C28   C34   A    
C39   C40   A    
C10   H5    S    
C16   O2    A    
C44   C45   A    
C57   H25   S    
O8    Zn2   S    
O7    Zn1   S    
C25   C29   A    
C4    C34   A    
C27   C31   A    
C28   C32   A    
C16   O3    A    
C56   C57   A    
C5    C7    A    
C60   H28   S    
C43   C44   A    
C6    C8    A    
C37   C42   A    
C38   C39   A    
C7    H8    S    
O4    Zn2   S    
C40   C41   A    
C19   C23   S    
C5    C9    A    
C47   H17   S    
C28   H32   S    
C53   C54   A    
C12   C20   A    
C39   H10   S    
C44   H14   S    
C32   H1    S    
C11   C49   S    
C25   C35   A    
C4    C17   S    
C26   C36   A    
C12   C14   A    
C40   H11   S    
C26   C30   A    
C59   C60   A    
C54   H23   S    
C45   H15   S    
O1    Zn1   S    
C21   N2    T    
C38   H9    S    
O2    Zn2   S    
C13   C20   A    
C14   C19   A    
C47   C48   A    
C6    C10   A    
C31   H2    S    
C43   C48   A    
C46   C47   A    
C29   C31   A    
O3    Zn1   S    
C26   H30   S    
C30   C32   A    
C11   C13   A    
C25   H29   S    
C37   C38   A    
C46   H16   S    
C59   H27   S    
C58   H26   S    
C29   H4    S    
C27   H31   S    
C57   C58   A    
C33   C35   A    
C30   H3    S    
O5    Zn1   S    
C41   C42   A    
C49   C50   A    
C22   N1    T    
C5    C21   S    
C1    C24   T    
C52   C53   A    
C2    C23   T    
C14   C43   S    
C17   O8    A    
O6    Zn2   S    
