data_mof_unit_67435.cif
_audit_creation_date              2013-03-05T15:40:10-0500
_audit_creation_method            fapswitch 2.2
_symmetry_space_group_name_H-M    P1
_symmetry_Int_Tables_number       1
_space_group_crystal_system       triclinic
_cell_length_a                    7.722514
_cell_length_b                    8.892047
_cell_length_c                    13.026023
_cell_angle_alpha                 78.970545
_cell_angle_beta                  77.832322
_cell_angle_gamma                 103.197808
_cell_volume                      823.912761557

loop_
_atom_site_label
_atom_site_type_symbol
_atom_site_description
_atom_site_fract_x
_atom_site_fract_y
_atom_site_fract_z
_atom_type_partial_charge
O1    O     O_R   0.621060 0.286250 0.492350 -0.587016
O2    O     O_R   0.378940 0.713750 0.507650 -0.587022
O3    O     O_R   0.306310 0.256580 0.512240 -0.621889
O4    O     O_R   0.693690 0.743420 0.487760 -0.621902
C1    C     C_R   0.453086 0.200433 0.503254 0.781426
C2    C     C_R   0.546914 0.799567 0.496746 0.781425
O5    O     O_R   0.631800 0.512400 0.642670 -0.603041
O6    O     O_R   0.368200 0.487600 0.357330 -0.603027
O7    O     O_R   0.317060 0.482730 0.662570 -0.600073
O8    O     O_R   0.682940 0.517270 0.337430 -0.600073
C3    C     C_R   0.464070 0.496195 0.701471 0.754568
C4    C     C_R   0.535930 0.503806 0.298529 0.754572
Cu1   Cu    Cu3+1 0.686350 0.517570 0.488220 0.910184
Cu2   Cu    Cu3+1 0.313650 0.482430 0.511780 0.910191
N1    N     N_2   0.033570 0.455950 0.529530 -0.143967
N2    N     N_2   0.966430 0.544050 0.470470 -0.143970
C5    C     C_R   0.555819 0.504704 0.183797 -0.043976
C6    C     C_R   0.444179 0.495298 0.816203 -0.043976
C7    C     C_R   0.269978 0.518315 0.987387 -0.251254
C8    C     C_R   0.730019 0.481688 0.012613 -0.251259
C9    C     C_R   0.281470 0.508794 0.880684 -0.199027
C10   C     C_R   0.718530 0.491214 0.119315 -0.199042
C11   C     C_R   0.593142 0.485983 0.860951 -0.272039
C12   C     C_R   0.406854 0.514016 0.139050 -0.272016
C13   C     C_R   0.581028 0.490974 0.968338 0.162093
C14   C     C_R   0.418967 0.509026 0.031662 0.162089
H1    H     H_    0.279062 0.522264 0.188010 0.185023
H2    H     H_    0.720933 0.477734 0.811991 0.185023
H3    H     H_    0.835061 0.484863 0.152068 0.175035
H4    H     H_    0.164941 0.515150 0.847929 0.175034
H5    H     H_    0.144677 0.531929 0.035536 0.142595
H6    H     H_    0.855322 0.468077 0.964463 0.142595
C15   C     C_2   0.429803 0.028724 0.521930 -0.213449
C16   C     C_2   0.570200 0.971276 0.478071 -0.213440
C17   C     C_R   0.928521 0.326930 0.633319 0.303588
C18   C     C_R   0.026017 0.247939 0.698266 -0.108431
C19   C     C_R   0.952001 0.160340 0.806508 -0.209634
C20   C     C_R   0.765840 0.122140 0.853548 -0.105747
C21   C     C_R   0.655926 0.165816 0.789712 -0.244362
C22   C     C_R   0.734356 0.259525 0.682651 -0.158583
H7    H     H_    0.162465 0.244763 0.672651 0.192699
H8    H     H_    0.039848 0.116560 0.852529 0.137954
H9    H     H_    0.706316 0.051861 0.936590 0.128317
H10   H     H_    0.507540 0.128727 0.823814 0.131389
H11   H     H_    0.625478 0.270492 0.651307 0.192975
C23   C     C_R   0.071480 0.673071 0.366681 0.303578
C24   C     C_R   0.973984 0.752060 0.301733 -0.108437
C25   C     C_R   0.048001 0.839662 0.193492 -0.209640
C26   C     C_R   0.234164 0.877870 0.146455 -0.105749
C27   C     C_R   0.344077 0.834195 0.210292 -0.244361
C28   C     C_R   0.265645 0.740478 0.317351 -0.158592
H12   H     H_    0.837536 0.755236 0.327349 0.192701
H13   H     H_    0.960155 0.883442 0.147472 0.137957
H14   H     H_    0.293690 0.948153 0.063414 0.128315
H15   H     H_    0.492464 0.871291 0.176193 0.131392
H16   H     H_    0.374524 0.729508 0.348694 0.192976
C29   C     C_R   0.269977 0.929166 0.612419 0.144573
C30   C     C_R   0.290215 0.896355 0.718183 -0.175471
C31   C     C_R   0.134504 0.835610 0.806692 -0.179157
C32   C     C_R   0.958761 0.805807 0.789519 -0.137142
C33   C     C_R   0.938168 0.828423 0.684109 -0.109901
C34   C     C_R   0.093958 0.888498 0.595499 -0.072153
H17   H     H_    0.425954 0.923660 0.731848 0.128660
H18   H     H_    0.149805 0.816739 0.888515 0.138722
H19   H     H_    0.838817 0.769715 0.857899 0.152096
H20   H     H_    0.801684 0.804618 0.671263 0.154513
H21   H     H_    0.078423 0.908036 0.513892 0.119916
C35   C     C_R   0.730027 0.070835 0.387582 0.144571
C36   C     C_R   0.906054 0.111466 0.404494 -0.072179
C37   C     C_R   0.061835 0.171533 0.315879 -0.109861
C38   C     C_R   0.041227 0.194184 0.210472 -0.137151
C39   C     C_R   0.865480 0.164417 0.193308 -0.179175
C40   C     C_R   0.709776 0.103678 0.281821 -0.175438
H22   H     H_    0.921600 0.091899 0.486097 0.119922
H23   H     H_    0.198322 0.195300 0.328717 0.154476
H24   H     H_    0.161162 0.230269 0.142086 0.152092
H25   H     H_    0.850167 0.183308 0.111487 0.138731
H26   H     H_    0.574033 0.076397 0.268162 0.128653

loop_
_geom_bond_atom_site_label_1
_geom_bond_atom_site_label_2
_geom_bond_distance
_ccdc_geom_bond_type
C3    C6    1.468093 S    
C10   H3    1.082074 S    
C6    C9    1.400453 A    
C17   C18   1.434782 A    
C12   H1    1.082437 S    
C7    H5    1.082153 S    
C29   C34   1.399787 A    
O5    C3    1.318920 A    
C31   H18   1.082513 S    
C39   H25   1.082510 S    
C34   H21   1.080361 S    
O1    C1    1.309203 A    
C18   C19   1.399352 A    
C7    C9    1.394050 A    
C12   C14   1.392102 A    
C36   C37   1.396517 A    
C38   H24   1.077703 S    
C8    C13   1.402908 A    
C26   H14   1.082825 S    
O4    Cu1   1.994910 S    
C28   H16   1.024744 S    
C19   H8    1.083447 S    
C7    C14   1.402910 A    
C33   H20   1.081546 S    
C35   C36   1.399780 A    
C1    C15   1.461796 S    
C4    C5    1.468092 S    
C15   C29   1.478168 S    
C40   H26   1.080935 S    
C37   C38   1.397156 A    
C31   C32   1.395933 A    
Cu1   Cu2   2.766956 S    
C18   H7    1.044718 S    
O2    C2    1.309207 A    
N1    C17   1.523581 S    
C13   C14   1.407008 A    
C15   C16   1.366133 D    
C25   H13   1.083447 S    
C5    C12   1.406291 A    
C6    C11   1.406288 A    
O4    C2    1.331378 A    
C16   C35   1.478176 S    
C21   C22   1.405302 A    
C30   C31   1.395585 A    
C23   C28   1.434077 A    
C2    C16   1.461800 S    
C32   C33   1.397162 A    
O7    Cu2   1.970416 S    
C19   C20   1.372464 A    
C24   C25   1.399351 A    
O6    C4    1.318917 A    
C27   C28   1.405303 A    
C36   H22   1.080355 S    
C11   H2    1.082437 S    
O7    C3    1.328017 A    
C24   H12   1.044719 S    
O3    Cu2   1.994910 S    
O8    C4    1.328020 A    
C25   C26   1.372464 A    
C8    C10   1.394048 A    
C32   H19   1.077706 S    
C20   H9    1.082823 S    
O1    Cu1   1.990136 S    
N2    C23   1.523582 S    
C8    H6    1.082154 S    
C30   H17   1.080938 S    
C23   C24   1.434780 A    
O6    Cu2   1.955937 S    
C5    C10   1.400451 A    
C39   C40   1.395581 A    
O3    C1    1.331380 A    
O8    Cu1   1.970414 S    
C21   H10   1.084438 S    
C9    H4    1.082075 S    
C27   H15   1.084440 S    
C17   C22   1.434074 A    
C35   C40   1.401918 A    
C38   C39   1.395919 A    
C29   C30   1.401921 A    
C20   C21   1.373767 A    
C11   C13   1.392101 A    
C33   C34   1.396522 A    
O2    Cu2   1.990137 S    
O5    Cu1   1.955938 S    
C22   H11   1.024746 S    
C26   C27   1.373767 A    
Cu1   N2    2.079167 S    
C37   H23   1.081529 S    
Cu2   N1    2.079167 S    
N1    N2    1.263882 D    
