data_mof_unit_55921.cif
_audit_creation_date              2012-12-11T17:41:39-0500
_audit_creation_method            fapswitch 2.2
_symmetry_space_group_name_H-M    P1
_symmetry_Int_Tables_number       1
_space_group_crystal_system       triclinic
_cell_length_a                    15.553801
_cell_length_b                    14.930096
_cell_length_c                    15.026192
_cell_angle_alpha                 109.453683
_cell_angle_beta                  120.767831
_cell_angle_gamma                 59.537117
_cell_volume                      2571.53034683

loop_
_atom_site_label
_atom_site_type_symbol
_atom_type_description
_atom_site_fract_x
_atom_site_fract_y
_atom_site_fract_z
_atom_type_partial_charge
C1    C     C_R   0.775384 0.977168 0.788029 -0.119591
C2    C     C_R   0.204414 0.412949 0.117585 -0.138755
C3    C     C_R   0.605924 0.812681 0.946357 -0.158623
C4    C     C_R   0.306408 0.337653 0.118222 -0.101784
C5    C     C_R   0.660071 0.879473 0.993409 0.187627
C6    C     C_R   0.313869 0.242818 0.055444 0.210897
C7    C     C_R   0.773532 0.836854 0.020549 -0.120335
C8    C     C_R   0.218291 0.224383 0.992334 -0.125315
C9    C     C_R   0.830972 0.729554 0.000390 -0.179040
C10   C     C_R   0.117448 0.298707 0.994143 -0.119215
C11   C     C_R   0.776326 0.663982 0.953986 -0.078632
C12   C     C_R   0.203466 0.055183 0.223172 -0.125754
C13   C     C_R   0.110454 0.393150 0.056546 -0.083779
C14   C     C_R   0.607887 0.035887 0.112330 0.480955
C15   C     C_R   0.422457 0.147537 0.951500 0.433934
C16   C     C_R   0.203429 0.276457 0.444564 -0.139130
C17   C     C_R   0.787215 0.716736 0.539410 -0.197236
C18   C     C_R   0.511767 0.105309 0.128756 -0.078191
C19   C     C_R   0.504265 0.053764 0.930491 -0.144063
C20   C     C_R   0.418388 0.165901 0.047219 -0.160003
C21   C     C_R   0.595113 0.993604 0.011969 -0.162498
C22   C     C_2   0.030256 0.356100 0.472660 -0.172665
C23   C     C_R   0.140492 0.276942 0.484554 0.082022
C24   C     C_2   0.908361 0.607852 0.446860 -0.203816
C25   C     C_2   0.971221 0.424003 0.402114 -0.082083
C26   C     C_2   0.888135 0.523572 0.420128 -0.133715
C27   C     C_2   0.874399 0.095235 0.893126 -0.233744
C28   C     C_2   0.027288 0.033352 0.148694 -0.180874
C29   C     C_R   0.099158 0.744820 0.219293 -0.230314
C30   C     C_R   0.886172 0.180049 0.530133 -0.236177
C31   C     C_R   0.197925 0.680396 0.291901 0.444708
C32   C     C_R   0.783970 0.250863 0.468532 0.491345
C33   C     C_R   0.294169 0.630458 0.274846 -0.054119
C34   C     C_R   0.834205 0.707698 0.478224 0.131511
C35   C     C_R   0.715215 0.330806 0.515100 -0.063346
C36   C     C_R   0.289666 0.647594 0.185843 -0.190177
C37   C     C_R   0.752908 0.343651 0.623772 -0.207322
C38   C     C_R   0.190666 0.711638 0.113785 -0.057569
C39   C     C_R   0.856997 0.274581 0.685171 -0.105094
C40   C     C_R   0.593525 0.219720 0.496043 -0.130602
C41   C     C_R   0.406580 0.770048 0.440624 -0.092703
C42   C     C_R   0.095465 0.759489 0.130091 -0.189969
C43   C     C_R   0.923197 0.192168 0.638356 -0.174347
C44   C     C_R   0.405264 0.468664 0.362924 -0.194263
C45   C     C_R   0.504178 0.309002 0.451494 0.074324
C46   C     C_R   0.597546 0.488009 0.428862 -0.181630
C47   C     C_R   0.506016 0.392927 0.422130 0.050280
C48   C     C_R   0.496743 0.573568 0.395241 0.020838
C49   C     C_R   0.604146 0.401555 0.451168 0.116219
C50   C     C_R   0.399664 0.558406 0.347048 0.120277
C51   C     C_2   0.880705 0.089485 0.983260 -0.080321
C52   C     C_2   0.971286 0.101701 0.078687 -0.099449
C53   C     C_R   0.409229 0.036941 0.733237 -0.074053
C54   C     C_R   0.589422 0.031038 0.294454 -0.120154
C55   C     C_R   0.410677 0.295761 0.424509 -0.092437
C56   C     C_R   0.496849 0.676623 0.443194 0.070588
C57   C     C_R   0.589471 0.695256 0.515889 -0.118875
C58   C     C_R   0.591914 0.965802 0.805789 -0.104411
C59   C     C_R   0.409986 0.090374 0.212168 -0.154516
C60   C     C_R   0.197395 0.185169 0.531263 0.201201
C61   C     C_R   0.785935 0.805690 0.444437 0.148093
C62   C     C_R   0.767760 0.075556 0.697542 -0.147441
C63   C     C_R   0.200296 0.963624 0.311257 -0.159252
C64   C     C_R   0.808797 0.051037 0.796512 0.157457
C65   C     C_R   0.141020 0.014099 0.222145 0.155264
C66   C     C_3   0.143973 0.145357 0.562002 -0.468040
C67   C     C_R   0.500956 0.020995 0.826930 0.144666
C68   C     C_3   0.172248 0.027290 0.535713 -0.256665
C69   C     C_3   0.171505 0.979448 0.611052 -0.896526
C70   C     C_3   0.815719 0.843620 0.386927 -0.452964
C71   C     C_3   0.926111 0.776276 0.378844 -0.158109
C72   C     C_3   0.916216 0.697203 0.281810 -0.869359
C73   C     C_R   0.501759 0.082255 0.210117 0.100488
C74   C     C_R   0.663881 0.705521 0.926926 -0.097763
Cl1   Cl    Cl    0.743832 0.998806 0.211041 -0.712794
Cl2   Cl    Cl    0.325189 0.242304 0.860904 -0.688276
Cl3   Cl    Cl    0.201040 0.670503 0.407127 -0.754966
Cl4   Cl    Cl    0.742400 0.236176 0.333359 -0.625185
H1    H     H_    0.806458 0.930894 0.848233 0.081102
H2    H     H_    0.378489 0.354264 0.164633 0.140733
H3    H     H_    0.816728 0.886792 0.054466 0.149010
H4    H     H_    0.222325 0.152128 0.942184 0.106349
H5    H     H_    0.917863 0.696904 0.020464 0.135174
H6    H     H_    0.044592 0.283519 0.946371 0.097653
H7    H     H_    0.818630 0.526252 0.423443 0.147477
H8    H     H_    0.998847 0.417547 0.346063 0.128330
H9    H     H_    0.982166 0.600100 0.448525 0.169492
H10   H     H_    0.002434 0.366214 0.530073 0.146833
H11   H     H_    0.018841 0.808499 0.073658 0.120811
H12   H     H_    0.179583 0.108245 0.172229 0.084985
H13   H     H_    0.002973 0.138027 0.686290 0.143852
H14   H     H_    0.179903 0.329832 0.394085 0.103469
H15   H     H_    0.816109 0.659373 0.588286 0.118117
H16   H     H_    0.025290 0.784358 0.232219 0.179450
H17   H     H_    0.936098 0.115899 0.493119 0.177004
H18   H     H_    0.362669 0.610052 0.171558 0.148003
H19   H     H_    0.701038 0.406111 0.660424 0.142974
H20   H     H_    0.187631 0.723828 0.044970 0.125459
H21   H     H_    0.885529 0.283884 0.768786 0.112396
H22   H     H_    0.329538 0.460818 0.331190 0.139802
H23   H     H_    0.992875 0.984125 0.145539 0.147112
H24   H     H_    0.673313 0.493781 0.453160 0.122729
H25   H     H_    0.677341 0.190432 0.509475 0.117077
H26   H     H_    0.321323 0.785448 0.398255 0.129413
H27   H     H_    0.326589 0.071688 0.723440 0.157669
H28   H     H_    0.664643 0.040906 0.335015 0.177940
H29   H     H_    0.326165 0.341797 0.376597 0.097102
H30   H     H_    0.673159 0.638731 0.544809 0.090709
H31   H     H_    0.675960 0.937667 0.860679 0.101189
H32   H     H_    0.324811 0.134133 0.164862 0.106771
H33   H     H_    0.781926 0.127112 0.675620 0.117891
H34   H     H_    0.923134 0.126378 0.891043 0.126668
H35   H     H_    0.170069 0.930607 0.336850 0.109135
H36   H     H_    0.003728 0.152274 0.081078 0.120583
H37   H     H_    0.832173 0.058266 0.985549 0.141392
H38   H     H_    0.223006 0.893999 0.607458 0.275852
H39   H     H_    0.204511 0.013153 0.692728 0.245994
H40   H     H_    0.087586 0.989710 0.588620 0.252505
H41   H     H_    0.110602 0.014889 0.456942 0.206960
H42   H     H_    0.253858 0.982798 0.535165 0.209185
H43   H     H_    0.159515 0.172131 0.644849 0.223054
H44   H     H_    0.053611 0.185919 0.519678 0.192851
H45   H     H_    0.821059 0.581013 0.938652 0.103715
H46   H     H_    0.869784 0.655180 0.272137 0.259241
H47   H     H_    0.871749 0.738563 0.211485 0.277065
H48   H     H_    0.999104 0.639359 0.286681 0.270537
H49   H     H_    0.952894 0.828662 0.371221 0.235910
H50   H     H_    0.991549 0.739572 0.451570 0.202296
H51   H     H_    0.749466 0.855376 0.307089 0.239489
H52   H     H_    0.818433 0.919597 0.429112 0.173762
H53   H     H_    0.032055 0.451482 0.056868 0.104146
H54   H     H_    0.621517 0.654687 0.890689 0.119509
H55   H     H_    0.197146 0.487455 0.163102 0.128162
H56   H     H_    0.518666 0.843803 0.924768 0.114202
N1    N     N_R   0.705410 0.966550 0.689210 -0.041298
N2    N     N_R   0.556610 0.796750 0.548620 -0.040843
N3    N     N_R   0.556610 0.951620 0.703500 -0.048454
N4    N     N_R   0.443390 0.048380 0.296500 -0.039432
N5    N     N_R   0.294590 0.131500 0.522480 -0.058357
N6    N     N_R   0.705410 0.868500 0.477520 -0.069312
N7    N     N_R   0.705410 0.023370 0.632390 -0.045506
N8    N     N_R   0.294590 0.976630 0.367610 -0.054173
N9    N     N_R   0.294590 0.033450 0.310790 -0.043197
N10   N     N_R   0.294590 0.188320 0.465660 -0.053780
N11   N     N_R   0.705410 0.811680 0.534340 -0.050497
N12   N     N_R   0.556610 0.157790 0.497330 -0.044376
N13   N     N_R   0.443390 0.842210 0.502670 -0.058188
N14   N     N_R   0.443390 0.997080 0.657540 -0.057573
N15   N     N_R   0.556610 0.002920 0.342460 -0.056678
N16   N     N_R   0.443390 0.203250 0.451380 -0.039538
Ni1   Ni    Ni4+2 0.629830 0.882720 0.617850 0.220959
Ni2   Ni    Ni4+2 0.370170 0.117280 0.382150 0.211367
Ni3   Ni    Ni4+2 0.629830 0.013030 0.487540 0.207987
Ni4   Ni    Ni4+2 0.370170 0.986970 0.512460 0.219934

loop_
_geom_bond_atom_site_label_1
_geom_bond_atom_site_label_2
_ccdc_geom_bond_type
C61   C70   S    
C66   C68   S    
C63   C65   A    
C69   H38   S    
C74   H54   S    
C29   C42   A    
C58   H31   S    
C28   C52   D    
C14   C18   A    
N3    N14   A    
C17   N11   A    
C38   H20   S    
C59   H32   S    
C37   H19   S    
C47   C49   A    
C15   C19   A    
C46   H24   S    
C46   C49   A    
C8    H4    S    
C14   C21   A    
C12   H12   S    
C35   C37   A    
C24   C26   D    
C4    H2    S    
C68   H41   S    
C29   H16   S    
C69   H40   S    
C70   H52   S    
C33   C36   A    
C56   C57   A    
C48   C56   S    
C10   H6    S    
C2    C13   A    
N13   Ni4   S    
N15   Ni3   S    
C62   C64   A    
N12   N16   A    
C28   H23   S    
C62   H33   S    
C68   C69   S    
C22   C25   D    
C24   C34   S    
C35   C49   S    
C31   C33   A    
C57   N2    A    
C19   C67   S    
C70   C71   S    
C22   H10   S    
C59   C73   A    
C44   C47   A    
N6    Ni3   S    
C48   C50   A    
C15   Cl2   S    
C60   C66   S    
C72   H46   S    
C71   H49   S    
C23   C60   A    
N14   Ni4   S    
C27   C51   D    
C31   Cl3   S    
C54   N15   A    
C45   C47   S    
N4    N15   A    
C40   C45   A    
C46   C48   A    
C2    H55   S    
C54   H28   S    
C51   C52   S    
C32   C35   A    
C4    C6    A    
C5    C7    A    
C39   C43   A    
N5    Ni4   S    
N4    Ni2   S    
C25   C26   S    
C10   C13   A    
C53   N14   A    
C51   H37   S    
C55   H29   S    
C15   C20   A    
C3    C74   A    
C2    C4    A    
C41   C56   A    
C30   H17   S    
C54   C73   A    
N5    N10   A    
C36   H18   S    
C39   H21   S    
C41   N13   A    
C66   H44   S    
C13   H53   S    
C66   H43   S    
N8    Ni4   S    
C9    C11   A    
N11   Ni1   S    
C9    H5    S    
C58   N3    A    
C8    C10   A    
N9    Ni2   S    
C7    H3    S    
C27   H34   S    
C16   H14   S    
C16   C23   A    
C1    H1    S    
N16   Ni2   S    
C30   C43   A    
C17   H15   S    
C17   C34   A    
C62   N7    A    
C1    C64   A    
N2    Ni1   S    
C55   N16   A    
C44   C50   A    
C7    C9    A    
C16   N10   A    
C22   C23   S    
C11   H45   S    
C71   H50   S    
C3    C5    A    
C11   C74   A    
N6    N11   A    
C6    C8    A    
C41   H26   S    
C61   N6    A    
C38   C42   A    
C52   H36   S    
C18   C73   S    
C6    C20   S    
C12   C65   A    
C59   N4    A    
C12   N9    A    
C40   N12   A    
C72   H47   S    
C42   H11   S    
C14   Cl1   S    
C3    H56   S    
C36   C38   A    
C28   C65   S    
C33   C50   S    
C71   C72   S    
C29   C31   A    
C68   H42   S    
C40   H25   S    
C30   C32   A    
C44   H22   S    
N7    Ni3   S    
N12   Ni3   S    
C26   H7    S    
N1    Ni1   S    
C69   H39   S    
C25   H8    S    
C63   N8    A    
C18   C20   A    
C70   H51   S    
C53   C67   A    
C24   H9    S    
C43   H13   S    
N2    N13   A    
C27   C64   S    
C60   N5    A    
C32   Cl4   S    
C63   H35   S    
C53   H27   S    
C58   C67   A    
N1    N7    A    
C57   H30   S    
C5    C21   S    
C45   C55   A    
C37   C39   A    
C34   C61   A    
C72   H48   S    
N8    N9    A    
N3    Ni1   S    
C1    N1    A    
N10   Ni2   S    
C19   C21   A    
