data_mof_unit_15028.cif
_audit_creation_date              2012-12-10T18:18:27-0500
_audit_creation_method            fapswitch 2.2
_symmetry_space_group_name_H-M    P1
_symmetry_Int_Tables_number       1
_space_group_crystal_system       triclinic
_cell_length_a                    14.025345
_cell_length_b                    14.957995
_cell_length_c                    15.523994
_cell_angle_alpha                 90.239363
_cell_angle_beta                  66.346026
_cell_angle_gamma                 90.391417
_cell_volume                      2983.10255234

loop_
_atom_site_label
_atom_site_type_symbol
_atom_type_description
_atom_site_fract_x
_atom_site_fract_y
_atom_site_fract_z
_atom_type_partial_charge
C1    C     C_R   0.501571 0.673110 0.497146 0.914447
C2    C     C_R   0.504833 0.768573 0.492226 -0.176929
C3    C     C_R   0.458276 0.186380 0.448547 -0.263833
C4    C     C_R   0.541495 0.813610 0.551647 -0.261120
C5    C     C_R   0.459603 0.094191 0.445278 0.121323
C6    C     C_R   0.540019 0.905798 0.555029 0.119708
C7    C     C_R   0.498551 0.046619 0.502267 0.006134
C8    C     C_R   0.501031 0.953372 0.498069 0.006048
C9    C     C_R   0.534718 0.092146 0.563603 0.079729
C10   C     C_R   0.464887 0.907849 0.436715 0.080161
C11   C     C_R   0.423912 0.049157 0.384797 -0.208247
C12   C     C_R   0.498427 0.326888 0.502846 0.905978
C13   C     C_R   0.575651 0.950833 0.615552 -0.209034
C14   C     C_R   0.426641 0.956525 0.380362 -0.130930
C15   C     C_R   0.572906 0.043467 0.619998 -0.127963
C16   C     C_R   0.434053 0.502504 0.676920 0.954526
C17   C     C_R   0.565896 0.496974 0.323142 0.935323
C18   C     C_R   0.174822 0.445914 0.561245 0.025295
C19   C     C_R   0.824982 0.554543 0.439217 0.043430
C20   C     C_R   0.229507 0.552972 0.438352 -0.008417
C21   C     C_R   0.770540 0.446897 0.561529 0.016112
C22   C     C_R   0.129754 0.554005 0.437074 -0.056666
C23   C     C_R   0.380583 0.520108 0.107724 -0.249508
C24   C     C_R   0.870215 0.446040 0.562988 -0.058761
C25   C     C_R   0.050640 0.499195 0.499989 0.041507
C26   C     C_R   0.949281 0.500973 0.500194 0.041946
C27   C     C_R   0.073065 0.442696 0.562465 -0.098363
C28   C     C_R   0.926800 0.557613 0.437857 -0.098461
C29   C     C_R   0.107845 0.609374 0.374789 -0.202685
C30   C     C_R   0.892104 0.390710 0.625315 -0.203093
C31   C     C_R   0.007532 0.613492 0.375546 0.459386
C32   C     C_R   0.992350 0.386776 0.624736 0.468487
C33   C     C_R   0.390165 0.506832 0.780255 -0.237014
C34   C     C_R   0.618543 0.469687 0.893064 -0.250134
C35   C     C_R   0.609599 0.489855 0.220002 -0.222522
C36   C     C_R   0.259412 0.541277 0.936339 0.350145
C37   C     C_R   0.739135 0.449853 0.065094 0.354794
C38   C     C_R   0.291418 0.542955 0.837353 0.331766
C39   C     C_R   0.707185 0.450957 0.164100 0.243992
C40   C     C_R   0.456191 0.478309 0.821643 -0.321330
C41   C     C_R   0.543836 0.517136 0.177861 -0.311370
C42   C     C_R   0.435379 0.496818 0.915366 0.035381
C43   C     C_R   0.564006 0.495484 0.084954 0.032828
C44   C     C_R   0.333404 0.523844 0.974376 0.048306
C45   C     C_R   0.306543 0.532172 0.070841 -0.113944
C46   C     C_R   0.665525 0.467065 0.026582 0.058521
C47   C     C_R   0.513327 0.488494 0.951551 0.118413
C48   C     C_R   0.485938 0.502583 0.048877 0.113999
C49   C     C_R   0.692234 0.457133 0.930302 -0.116724
C50   C     C_R   0.530758 0.185270 0.568261 0.391195
C51   C     C_R   0.468979 0.814736 0.431959 0.378218
C52   C     C_R   0.495049 0.231427 0.507886 -0.167271
H1    H     H_    0.227896 0.548636 0.118744 0.217124
H2    H     H_    0.526014 0.443572 0.777995 0.179860
H3    H     H_    0.352062 0.524028 0.183264 0.150947
H4    H     H_    0.647401 0.464640 0.817626 0.148881
H5    H     H_    0.430916 0.223578 0.403051 0.175619
H6    H     H_    0.568908 0.776403 0.597100 0.176675
H7    H     H_    0.394191 0.085625 0.340703 0.160981
H8    H     H_    0.605379 0.914364 0.659640 0.160476
H9    H     H_    0.398644 0.923383 0.332762 0.206627
H10   H     H_    0.600897 0.076610 0.667602 0.206499
H11   H     H_    0.920637 0.694607 0.341844 0.325821
H12   H     H_    0.770623 0.439484 0.882759 0.221022
H13   H     H_    0.079307 0.305819 0.658542 0.328186
H14   H     H_    0.893531 0.501999 0.191661 0.352632
H15   H     H_    0.243482 0.683877 0.667003 0.388932
H16   H     H_    0.111445 0.536429 0.968182 0.377572
H17   H     H_    0.887223 0.451514 0.033218 0.363287
H18   H     H_    0.524771 0.286820 0.649565 0.323488
H19   H     H_    0.475099 0.713267 0.350520 0.325732
H20   H     H_    0.195606 0.406846 0.609338 0.150901
H21   H     H_    0.804031 0.593971 0.391469 0.143260
H22   H     H_    0.291021 0.595020 0.390604 0.143665
H23   H     H_    0.709098 0.404676 0.609106 0.139048
H24   H     H_    0.168657 0.651670 0.326310 0.175947
H25   H     H_    0.831326 0.348330 0.673712 0.175149
H26   H     H_    0.474629 0.553480 0.220210 0.178314
N1    N     N_R   0.249980 0.499930 0.499960 -0.103586
N2    N     N_R   0.750020 0.500070 0.500040 -0.095077
O1    O     O_R   0.419720 0.632140 0.499980 -0.588582
O2    O     O_3   0.006812 0.327460 0.686196 -0.724155
O3    O     O_2   0.712980 0.341162 0.299221 -0.248534
O4    O     O_2   0.857707 0.329768 0.146742 -0.237988
O5    O     O_3   0.850514 0.468856 0.249497 -0.533403
O6    O     O_2   0.156128 0.531655 0.755375 -0.307701
O7    O     O_2   0.136780 0.660623 0.858694 -0.247361
O8    O     O_3   0.290162 0.662396 0.696282 -0.547541
O9    O     O_3   0.158238 0.559505 0.997031 -0.720378
O10   O     O_3   0.839699 0.428898 0.004961 -0.706204
O11   O     O_3   0.560736 0.228608 0.632456 -0.776343
O12   O     O_R   0.580280 0.367860 0.500020 -0.566035
O13   O     O_3   0.439007 0.771414 0.367751 -0.779605
O14   O     O_R   0.580270 0.632160 0.499970 -0.639266
O15   O     O_R   0.419730 0.367840 0.500030 -0.640374
O16   O     O_R   0.373870 0.499980 0.632250 -0.548949
O17   O     O_R   0.626130 0.500020 0.367750 -0.545558
O18   O     O_R   0.534420 0.500000 0.632240 -0.649745
O19   O     O_R   0.465580 0.500000 0.367760 -0.644639
O20   O     O_3   0.993071 0.672832 0.314106 -0.735317
S1    S     S_3+6 0.782965 0.393903 0.215232 0.060672
S2    S     S_3+6 0.213864 0.599627 0.787912 0.041947
Zn1   Zn    Zn3+2 0.392800 0.499980 0.500010 0.990417
Zn2   Zn    Zn3+2 0.607200 0.500020 0.499990 1.013887

loop_
_geom_bond_atom_site_label_1
_geom_bond_atom_site_label_2
_ccdc_geom_bond_type
C36   O9    S    
O19   Zn1   S    
C34   H4    S    
C23   C45   A    
C22   C29   A    
C2    C4    A    
H18   O11   S    
H14   O5    S    
C7    C8    A    
C13   H8    S    
C46   C49   A    
H15   O8    S    
C37   O10   S    
N2    Zn2   S    
C24   C26   A    
C5    C11   A    
C11   C14   A    
C1    O1    A    
C1    C2    S    
C30   H25   S    
C1    O14   A    
C22   C25   A    
C50   C52   A    
C12   O15   A    
C43   C48   A    
C38   S2    S    
C40   C42   A    
C45   H1    S    
C49   H12   S    
O4    S1    D    
C41   C43   A    
N1    Zn1   S    
C42   C44   A    
C11   H7    S    
C10   C51   A    
C12   C52   S    
O15   Zn1   S    
C39   S1    S    
C18   H20   S    
C37   C39   A    
C16   O16   A    
C33   C40   A    
C18   C27   A    
C19   H21   S    
C4    C6    A    
C10   C14   A    
C41   H26   S    
C5    C7    A    
C18   N1    A    
C6    C8    A    
C25   C26   A    
C14   H9    S    
C35   C39   A    
H11   O20   S    
C16   C33   S    
O7    S2    D    
C47   C48   A    
H16   O9    S    
C20   H22   S    
C31   O20   S    
C19   C28   A    
C17   O19   A    
C51   O13   S    
C3    H5    S    
C20   C22   A    
C40   H2    S    
C13   C15   A    
C36   C44   A    
H17   O10   S    
O6    S2    D    
O5    S1    S    
C44   C45   A    
O1    Zn1   S    
C7    C9    A    
C34   C49   A    
C23   C48   A    
O3    S1    D    
C20   N1    A    
C27   C32   A    
C12   O12   A    
C28   C31   A    
C9    C50   A    
C3    C5    A    
O8    S2    S    
C3    C52   A    
C23   H3    S    
H19   O13   S    
C25   C27   A    
C32   O2    S    
C21   H23   S    
C26   C28   A    
C33   C38   A    
C36   C38   A    
C9    C15   A    
C29   C31   A    
C6    C13   A    
C30   C32   A    
C16   O18   A    
H13   O2    S    
O18   Zn2   S    
C21   N2    A    
C15   H10   S    
C42   C47   A    
C19   N2    A    
C35   C41   A    
C43   C46   A    
C24   C30   A    
O17   Zn2   S    
C2    C51   A    
O12   Zn2   S    
O14   Zn2   S    
C50   O11   S    
C29   H24   S    
C8    C10   A    
C21   C24   A    
C4    H6    S    
C34   C47   A    
C17   C35   S    
C37   C46   A    
O16   Zn1   S    
C17   O17   A    
