data_mof_unit_5051.cif
_audit_creation_date              2012-10-26T20:26:20-0400
_audit_creation_method            fapswitch 2.2
_symmetry_space_group_name_H-M    P1
_symmetry_Int_Tables_number       1
_space_group_crystal_system       triclinic
_cell_length_a                    19.393593
_cell_length_b                    15.901808
_cell_length_c                    14.659365
_cell_angle_alpha                 89.930414
_cell_angle_beta                  89.947997
_cell_angle_gamma                 90.019285
_cell_volume                      4520.84291565

loop_
_atom_site_label
_atom_site_type_symbol
_atom_type_description
_atom_site_fract_x
_atom_site_fract_y
_atom_site_fract_z
_atom_type_partial_charge
C1    C     C_R   0.499979 0.339577 0.500049 0.547523
C2    C     C_3   0.483012 0.972429 0.414577 -0.124181
C3    C     C_3   0.500199 0.083428 0.501581 0.029631
C4    C     C_3   0.500280 0.916551 0.498633 0.027714
C5    C     C_1   0.500014 0.174817 0.500819 -0.006046
C6    C     C_1   0.500251 0.825169 0.499266 -0.004538
C7    C     C_3   0.501730 0.577850 0.969203 0.098999
C8    C     C_3   0.498265 0.421812 0.030787 0.097539
C9    C     C_3   0.443237 0.542424 0.030715 -0.119567
C10   C     C_3   0.556749 0.457226 0.969263 -0.119692
C11   C     C_3   0.556327 0.536844 0.030485 0.121798
C12   C     C_R   0.500028 0.660420 0.499953 0.550266
C13   C     C_3   0.443674 0.462809 0.969484 0.121509
C14   C     C_3   0.499228 0.500373 0.092454 0.021387
C15   C     C_3   0.500771 0.499302 0.907533 0.021616
C16   C     C_R   0.367249 0.500247 0.499978 0.547917
C17   C     C_R   0.632753 0.500259 0.500033 0.546556
C18   C     C_1   0.499707 0.500117 0.194505 0.156123
C19   C     C_1   0.500294 0.499733 0.805491 0.154942
C20   C     C_R   0.254188 0.488448 0.579750 -0.147921
C21   C     C_R   0.745899 0.488761 0.420412 -0.150796
C22   C     C_R   0.182483 0.489014 0.578245 -0.167708
C23   C     C_3   0.562737 0.972182 0.522060 0.270720
C24   C     C_R   0.817611 0.489059 0.422091 -0.168567
C25   C     C_R   0.146407 0.501216 0.496048 0.046165
C26   C     C_R   0.853723 0.500651 0.504421 0.043723
C27   C     C_R   0.183765 0.512179 0.413909 0.270114
C28   C     C_R   0.816125 0.510944 0.586541 0.269838
C29   C     C_R   0.256169 0.513646 0.417057 -0.122531
C30   C     C_R   0.743767 0.512734 0.583193 -0.121158
C31   C     C_R   0.291528 0.500662 0.499166 -0.028217
C32   C     C_R   0.708480 0.500541 0.500943 -0.030206
C33   C     C_R   0.930111 0.500957 0.502626 0.351290
C34   C     C_3   0.437875 0.027624 0.478303 0.308981
C35   C     C_R   0.070165 0.501481 0.497846 0.354334
C36   C     C_3   0.169176 0.475966 0.261459 0.016455
C37   C     C_3   0.201260 0.527411 0.183887 -0.264599
C38   C     C_3   0.226695 0.470901 0.106816 -0.483111
C39   C     C_3   0.830963 0.469808 0.737411 0.013353
C40   C     C_3   0.799060 0.517892 0.817448 -0.260395
C41   C     C_3   0.775049 0.458260 0.892703 -0.483520
C42   C     C_3   0.668501 0.994386 0.589952 0.008149
C43   C     C_3   0.743307 0.964391 0.590386 -0.246752
C44   C     C_3   0.789050 0.022892 0.646386 -0.484767
C45   C     C_3   0.545435 0.028023 0.439934 0.092308
C46   C     C_3   0.326255 0.998332 0.430101 0.022121
C47   C     C_3   0.311087 0.009502 0.328432 -0.271110
C48   C     C_3   0.260725 0.942903 0.294228 -0.482369
C49   C     C_3   0.455137 0.971909 0.560441 0.079736
C50   C     C_1   0.499973 0.250143 0.500306 -0.011901
C51   C     C_1   0.500149 0.749847 0.499713 -0.009116
C52   C     C_3   0.517513 0.027643 0.585824 -0.172867
Cu1   Cu    Cu3+1 0.500010 0.500000 0.590220 0.993347
Cu2   Cu    Cu3+1 0.499990 0.500000 0.409780 0.996517
H1    H     H_    0.280348 0.478338 0.644086 0.151197
H2    H     H_    0.603281 0.422448 0.946464 0.103623
H3    H     H_    0.355092 0.398538 0.993672 0.240041
H4    H     H_    0.397642 0.368024 0.899643 0.232071
H5    H     H_    0.645432 0.599981 0.006085 0.240720
H6    H     H_    0.602542 0.632182 0.099243 0.234178
H7    H     H_    0.121917 0.444773 0.235241 0.164014
H8    H     H_    0.204789 0.424227 0.282360 0.114486
H9    H     H_    0.162201 0.571915 0.156533 0.180843
H10   H     H_    0.245384 0.564777 0.210017 0.161416
H11   H     H_    0.267203 0.427435 0.132255 0.152651
H12   H     H_    0.719796 0.479275 0.355947 0.150458
H13   H     H_    0.249102 0.510174 0.051543 0.161074
H14   H     H_    0.183281 0.433707 0.078341 0.153189
H15   H     H_    0.878511 0.437956 0.761749 0.162051
H16   H     H_    0.795350 0.418743 0.714668 0.106959
H17   H     H_    0.837864 0.562129 0.845869 0.182525
H18   H     H_    0.754244 0.555289 0.793466 0.166919
H19   H     H_    0.734771 0.414981 0.866319 0.143364
H20   H     H_    0.752789 0.495157 0.949854 0.162796
H21   H     H_    0.819172 0.420886 0.918948 0.151568
H22   H     H_    0.623113 0.008846 0.349448 0.247909
H23   H     H_    0.155257 0.479335 0.641924 0.146593
H24   H     H_    0.629956 0.098453 0.409251 0.223739
H25   H     H_    0.382293 0.991295 0.657505 0.242834
H26   H     H_    0.431157 0.905647 0.674471 0.234032
H27   H     H_    0.649358 0.996320 0.661522 0.135896
H28   H     H_    0.666852 0.058900 0.560195 0.120077
H29   H     H_    0.745922 0.899963 0.619704 0.184796
H30   H     H_    0.762939 0.962078 0.519160 0.174962
H31   H     H_    0.787989 0.087500 0.617510 0.146448
H32   H     H_    0.843003 0.999584 0.644993 0.156574
H33   H     H_    0.771202 0.024751 0.718384 0.148748
H34   H     H_    0.844740 0.480104 0.358258 0.148223
H35   H     H_    0.277387 0.005990 0.468806 0.160335
H36   H     H_    0.344416 0.932831 0.443525 0.141707
H37   H     H_    0.288657 0.072904 0.316609 0.181352
H38   H     H_    0.359800 0.004838 0.288872 0.165623
H39   H     H_    0.282867 0.879033 0.303451 0.152420
H40   H     H_    0.250512 0.953041 0.220515 0.153148
H41   H     H_    0.211137 0.947175 0.331925 0.155845
H42   H     H_    0.503248 0.703501 0.992985 0.223892
H43   H     H_    0.461058 0.675306 0.897996 0.235337
H44   H     H_    0.496616 0.296164 0.007004 0.223576
H45   H     H_    0.284888 0.525857 0.355171 0.129354
H46   H     H_    0.538990 0.324314 0.101869 0.237627
H47   H     H_    0.715067 0.524320 0.645213 0.132921
H48   H     H_    0.469983 0.949426 0.345274 0.105566
H49   H     H_    0.530184 0.050582 0.655297 0.094383
H50   H     H_    0.396673 0.577135 0.053534 0.105429
N1    N     N_R   0.032994 0.494130 0.419943 -0.165973
N2    N     N_3   0.404375 0.939556 0.624741 -0.629614
N3    N     N_3   0.505624 0.664061 0.936107 -0.626388
N4    N     N_3   0.494367 0.335605 0.063891 -0.625027
N5    N     N_R   0.967350 0.507809 0.580547 -0.159101
N6    N     N_R   0.964463 0.493981 0.422261 -0.251799
N7    N     N_R   0.035877 0.508070 0.578254 -0.249198
N8    N     N_1   0.499980 0.500000 0.274190 -0.194992
N9    N     N_1   0.500020 0.500000 0.725810 -0.195606
N10   N     N_3   0.381824 0.420757 0.936611 -0.626580
N11   N     N_3   0.618240 0.578823 0.063257 -0.625184
N12   N     N_3   0.595189 0.060213 0.374110 -0.614652
O1    O     O_R   0.500010 0.379080 0.576170 -0.497775
O2    O     O_3   0.850277 0.527300 0.667845 -0.545804
O3    O     O_3   0.628468 0.937417 0.538823 -0.558971
O4    O     O_3   0.372303 0.061827 0.459288 -0.556490
O5    O     O_R   0.499990 0.620920 0.423830 -0.495532
O6    O     O_R   0.500000 0.379080 0.423800 -0.481571
O7    O     O_R   0.500000 0.620920 0.576200 -0.483039
O8    O     O_R   0.400150 0.499990 0.576210 -0.492264
O9    O     O_R   0.599850 0.500010 0.423790 -0.492125
O10   O     O_R   0.400140 0.499990 0.423840 -0.503760
O11   O     O_R   0.599860 0.500010 0.576160 -0.504791
O12   O     O_3   0.149188 0.530469 0.333318 -0.548287

loop_
_geom_bond_atom_site_label_1
_geom_bond_atom_site_label_2
_ccdc_geom_bond_type
N1    N6    A    
C52   H49   S    
C8    C13   S    
C23   C45   S    
C48   H41   S    
C21   H12   S    
C27   C29   A    
C43   H29   S    
C47   H38   S    
C14   C18   S    
C42   H28   S    
C43   C44   S    
C37   H10   S    
C35   N7    A    
C46   H35   S    
Cu1   Cu2   S    
C16   C31   S    
C15   C19   S    
Cu2   O10   S    
C48   H40   S    
C36   C37   S    
C40   H17   S    
C18   N8    T    
C10   C15   S    
N5    N7    A    
C23   O3    S    
C11   C14   S    
Cu1   O1    S    
C42   O3    S    
C19   N9    T    
H26   N2    S    
H44   N4    S    
C9    C13   S    
C1    O6    A    
Cu1   O11   S    
C41   H20   S    
C12   O5    A    
C22   C25   A    
C6    C51   T    
C44   H33   S    
C11   N11   S    
C1    C50   S    
C13   N10   S    
C2    C34   S    
C7    C15   S    
Cu2   O6    S    
C43   H30   S    
C36   O12   S    
C42   H27   S    
C20   H1    S    
C44   H32   S    
C8    N4    S    
C37   H9    S    
Cu1   N9    S    
C7    C11   S    
C2    C45   S    
C34   O4    S    
Cu2   O9    S    
H46   N4    S    
C48   H39   S    
C29   H45   S    
Cu2   N8    S    
C4    C6    S    
Cu1   O7    S    
C39   C40   S    
C4    C23   S    
C17   O11   A    
C3    C34   S    
C3    C45   S    
H25   N2    S    
C36   H8    S    
C2    C4    S    
C9    C14   S    
C37   C38   S    
C35   N1    A    
C41   H21   S    
C27   O12   S    
C26   C33   S    
C47   C48   S    
C38   H11   S    
C49   C52   S    
C39   H15   S    
C46   O4    S    
C1    O1    A    
C24   H34   S    
C49   N2    S    
C25   C35   S    
C8    C10   S    
C40   C41   S    
H42   N3    S    
C38   H14   S    
C13   C15   S    
C7    N3    S    
C5    C50   T    
C33   N5    A    
C42   C43   S    
C20   C22   A    
C44   H31   S    
C12   C51   S    
C10   H2    S    
C7    C9    S    
C46   C47   S    
C34   C49   S    
C8    C14   S    
C40   H18   S    
C47   H37   S    
Cu2   O5    S    
H24   N12   S    
C22   H23   S    
C24   C26   A    
C3    C5    S    
Cu1   O8    S    
C3    C52   S    
H3    N10   S    
C46   H36   S    
C25   C27   A    
C39   O2    S    
C26   C28   A    
C4    C49   S    
C28   C30   A    
C16   O8    A    
C29   C31   A    
C28   O2    S    
C21   C32   A    
C30   C32   A    
C45   N12   S    
C17   O9    A    
C23   C52   S    
C12   O7    A    
C9    H50   S    
C30   H47   S    
H22   N12   S    
C39   H16   S    
C10   C11   S    
C41   H19   S    
H43   N3    S    
C38   H13   S    
H5    N11   S    
C21   C24   A    
H4    N10   S    
C17   C32   S    
C2    H48   S    
H6    N11   S    
C33   N6    A    
C16   O10   A    
C36   H7    S    
C20   C31   A    
