data_mof_unit_54546.cif
_audit_creation_date              2012-10-26T18:50:22-0400
_audit_creation_method            fapswitch 2.2
_symmetry_space_group_name_H-M    P1
_symmetry_Int_Tables_number       1
_space_group_crystal_system       triclinic
_cell_length_a                    9.608225
_cell_length_b                    10.77542
_cell_length_c                    15.423588
_cell_angle_alpha                 87.394381
_cell_angle_beta                  73.911487
_cell_angle_gamma                 90.03558
_cell_volume                      1532.57256557

loop_
_atom_site_label
_atom_site_type_symbol
_atom_type_description
_atom_site_fract_x
_atom_site_fract_y
_atom_site_fract_z
_atom_type_partial_charge
C1    C     C_R   0.998595 0.262585 0.503165 0.542120
C2    C     C_R   0.219997 0.509051 0.039066 0.025624
C3    C     C_R   0.320993 0.536853 0.087217 0.023632
C4    C     C_R   0.917877 0.502393 0.672107 0.531031
C5    C     C_R   0.074492 0.483051 0.085269 -0.122808
C6    C     C_R   0.028179 0.482314 0.179192 -0.133913
C7    C     C_R   0.272751 0.530486 0.182274 -0.134633
C8    C     C_R   0.078076 0.119615 0.647938 -0.111635
C9    C     C_R   0.117627 0.050100 0.715620 -0.127135
C10   C     C_R   0.117714 0.921030 0.715456 -0.124556
C11   C     C_R   0.078571 0.860702 0.647497 -0.100274
C12   C     C_R   0.667037 0.553896 0.901147 0.005672
C13   C     C_R   0.039840 0.929210 0.577450 0.029413
C14   C     C_R   0.039599 0.060469 0.577668 0.024953
C15   C     C_R   0.995721 0.128357 0.509237 0.001487
C16   C     C_R   0.998880 0.737076 0.502604 0.526483
C17   C     C_R   0.946828 0.067670 0.444992 -0.148870
C18   C     C_R   0.947027 0.939654 0.444793 -0.155463
C19   C     C_R   0.996122 0.870449 0.508842 0.005298
C20   C     C_R   0.697885 0.665749 0.380518 -0.092550
C21   C     C_R   0.651492 0.749789 0.323967 -0.184133
C22   C     C_R   0.507969 0.750919 0.324283 -0.179646
C23   C     C_R   0.764535 0.601779 0.946165 0.066626
C24   C     C_R   0.409772 0.668240 0.381390 -0.088922
C25   C     C_R   0.451527 0.582303 0.441581 0.158761
C26   C     C_R   0.601148 0.581667 0.441327 0.154735
C27   C     C_R   0.548766 0.422636 0.556216 -0.000073
C28   C     C_R   0.082175 0.500702 0.327622 0.532629
C29   C     C_R   0.400991 0.422564 0.556122 -0.008831
C30   C     C_R   0.871679 0.523790 0.769067 -0.014061
C31   C     C_R   0.127552 0.504534 0.228286 -0.006715
C32   C     C_R   0.913250 0.613428 0.900517 -0.139514
C33   C     C_R   0.965814 0.576935 0.812078 -0.171185
C34   C     C_R   0.515048 0.549835 0.944418 0.040272
C35   C     C_R   0.725806 0.505884 0.815743 -0.111256
C36   C     C_3   0.825489 0.817989 0.071169 -0.317971
C37   C     C_3   0.459878 0.680691 0.768827 -0.291154
C38   C     C_R   0.467581 0.565299 0.039146 -0.024401
C39   C     C_R   0.567099 0.611962 0.082517 -0.133984
C40   C     C_R   0.712270 0.634591 0.036309 0.130447
C41   C     C_R   0.408229 0.533402 0.896999 0.127839
C42   C     C_R   0.264038 0.509684 0.945219 -0.126491
Cu1   Cu    Cu3+1 0.140660 0.499990 0.500010 0.907785
Cu2   Cu    Cu3+1 0.859340 0.500010 0.499990 0.919262
H1    H     H_    0.996401 0.462857 0.048690 0.126738
H2    H     H_    0.728046 0.813962 0.279068 0.115030
H3    H     H_    0.347221 0.541898 0.222242 0.120867
H4    H     H_    0.472367 0.815746 0.279344 0.118352
H5    H     H_    0.302958 0.676148 0.375036 0.181458
H6    H     H_    0.325317 0.359060 0.602162 0.108196
H7    H     H_    0.915351 0.462042 0.213351 0.129204
H8    H     H_    0.185041 0.493604 0.908521 0.099369
H9    H     H_    0.989445 0.652225 0.932436 0.145840
H10   H     H_    0.079346 0.592101 0.777062 0.119183
H11   H     H_    0.660058 0.452106 0.784416 0.166315
H12   H     H_    0.911414 0.119942 0.393408 0.127732
H13   H     H_    0.533635 0.638210 0.151719 0.111337
H14   H     H_    0.783512 0.654242 0.149765 0.253505
H15   H     H_    0.907063 0.848322 0.104896 0.138855
H16   H     H_    0.721246 0.864298 0.101904 0.139761
H17   H     H_    0.864575 0.846857 0.998317 0.156637
H18   H     H_    0.372625 0.504130 0.772530 0.239160
H19   H     H_    0.491175 0.685665 0.693805 0.160186
H20   H     H_    0.547305 0.725574 0.791191 0.167281
H21   H     H_    0.357334 0.731912 0.794153 0.127874
H22   H     H_    0.075151 0.219420 0.652588 0.124898
H23   H     H_    0.146484 0.096576 0.769092 0.106172
H24   H     H_    0.146383 0.867319 0.768857 0.101239
H25   H     H_    0.076382 0.760404 0.651674 0.141733
H26   H     H_    0.911754 0.894320 0.393063 0.109592
H27   H     H_    0.583211 0.359198 0.602372 0.119398
H28   H     H_    0.810688 0.670909 0.373626 0.179509
N1    N     N_R   0.648320 0.501210 0.499140 -0.243186
N2    N     N_R   0.352470 0.501290 0.499110 -0.242194
N3    N     N_2   0.806864 0.684547 0.082842 -0.534084
N4    N     N_2   0.440158 0.552066 0.801335 -0.541041
O1    O     O_R   0.118810 0.319640 0.500010 -0.495595
O2    O     O_R   0.881240 0.319660 0.500000 -0.497356
O3    O     O_R   0.055570 0.499980 0.629840 -0.516400
O4    O     O_R   0.818000 0.500010 0.629830 -0.493861
O5    O     O_R   0.118760 0.680340 0.500000 -0.525594
O6    O     O_R   0.881190 0.680360 0.499990 -0.513074
O7    O     O_R   0.182000 0.499990 0.370170 -0.516075
O8    O     O_R   0.944430 0.500020 0.370160 -0.520858

loop_
_geom_bond_atom_site_label_1
_geom_bond_atom_site_label_2
_ccdc_geom_bond_type
C18   H26   S    
C22   H4    S    
C8    H22   S    
C28   O8    A    
Cu1   O7    S    
C41   C42   A    
C36   H15   S    
C12   C23   A    
C30   C35   A    
C21   C22   A    
C4    O4    A    
C3    C7    A    
C5    C6    A    
C27   C29   A    
Cu1   O3    S    
C23   C40   A    
C39   H13   S    
C33   H10   S    
C26   N1    A    
C1    O1    A    
C25   N2    A    
C3    C38   A    
C8    C9    A    
C37   H21   S    
C1    C15   S    
C6    H7    S    
C9    C10   A    
Cu1   N2    S    
C6    C31   A    
C13   C14   A    
C28   O7    A    
C1    O2    A    
H18   N4    S    
C34   C41   A    
C37   H19   S    
H14   N3    S    
C29   H6    S    
C7    C31   A    
C13   C19   A    
C35   H11   S    
Cu2   O4    S    
C24   C25   A    
C4    O3    A    
C39   C40   A    
C18   C19   A    
C29   N2    A    
Cu2   O8    S    
C25   C26   A    
C5    H1    S    
C7    H3    S    
Cu1   Cu2   S    
C9    H23   S    
C36   N3    S    
C16   O6    A    
C17   C18   A    
C12   C35   A    
C17   H12   S    
C37   N4    S    
Cu1   O5    S    
C22   C24   A    
C2    C5    A    
C12   C34   A    
C36   H17   S    
C32   H9    S    
C37   H20   S    
C27   H27   S    
C21   H2    S    
C24   H5    S    
C15   C17   A    
C8    C14   A    
C30   C33   A    
C34   C38   A    
C28   C31   S    
C36   H16   S    
C11   H25   S    
C10   H24   S    
Cu1   O1    S    
Cu2   O6    S    
C40   N3    S    
C23   C32   A    
Cu2   O2    S    
C2    C3    A    
C32   C33   A    
C41   N4    S    
C11   C13   A    
C38   C39   A    
C20   C26   A    
C2    C42   A    
C16   C19   S    
C16   O5    A    
Cu2   N1    S    
C10   C11   A    
C20   C21   A    
C14   C15   A    
C20   H28   S    
C27   N1    A    
C4    C30   S    
C42   H8    S    
