data_mof_unit_16847.cif
_audit_creation_date              2013-03-05T15:45:24-0500
_audit_creation_method            fapswitch 2.2
_symmetry_space_group_name_H-M    P1
_symmetry_Int_Tables_number       1
_space_group_crystal_system       triclinic
_cell_length_a                    29.451555
_cell_length_b                    17.094647
_cell_length_c                    19.114676
_cell_angle_alpha                 90.303225
_cell_angle_beta                  140.048152
_cell_angle_gamma                 90.155826
_cell_volume                      6179.27029692

loop_
_atom_site_label
_atom_site_type_symbol
_atom_site_description
_atom_site_fract_x
_atom_site_fract_y
_atom_site_fract_z
_atom_type_partial_charge
C1    C     C_R   0.181075 0.414249 0.812668 -0.048478
C2    C     C_R   0.809477 0.602771 0.205461 -0.037736
C3    C     C_R   0.825755 0.420834 0.185724 -0.055945
C4    C     C_R   0.190600 0.602478 0.796465 -0.110383
C5    C     C_R   0.677437 0.918884 0.813761 -0.048986
C6    C     C_R   0.310230 0.101031 0.202519 -0.022536
C7    C     C_R   0.325731 0.920403 0.185703 -0.062916
C8    C     C_R   0.690650 0.103180 0.795432 -0.104464
H1    H     H_    0.230223 0.446536 0.875500 0.116688
H2    H     H_    0.759541 0.572625 0.152285 0.149447
H3    H     H_    0.778848 0.455035 0.124347 0.146666
H4    H     H_    0.239669 0.572000 0.848445 0.158198
H5    H     H_    0.720077 0.959093 0.874058 0.152478
H6    H     H_    0.259154 0.072403 0.145828 0.127726
H7    H     H_    0.278385 0.953813 0.123836 0.139858
H8    H     H_    0.739890 0.073472 0.846020 0.168882
N1    N     N_R   0.127770 0.430660 0.707120 -0.050178
N2    N     N_R   0.872230 0.569340 0.292880 -0.057502
N3    N     N_R   0.872230 0.430660 0.292880 -0.055343
N4    N     N_R   0.127770 0.569340 0.707120 -0.057653
N5    N     N_R   0.627770 0.930660 0.707120 -0.055798
N6    N     N_R   0.372230 0.069340 0.292880 -0.060760
N7    N     N_R   0.372230 0.930660 0.292880 -0.053907
N8    N     N_R   0.627770 0.069340 0.707120 -0.060028
C9    C     C_R   0.833233 0.604940 0.416073 -0.213906
C10   C     C_R   0.144617 0.416571 0.527235 -0.166945
C11   C     C_R   0.167069 0.606050 0.584351 -0.204884
C12   C     C_R   0.857520 0.418612 0.476787 -0.206934
C13   C     C_R   0.333456 0.104395 0.416851 -0.202386
C14   C     C_R   0.644142 0.917360 0.526360 -0.190740
C15   C     C_R   0.666794 0.105521 0.583357 -0.207218
C16   C     C_R   0.357269 0.918776 0.476380 -0.209488
H9    H     H_    0.781974 0.576711 0.353335 0.160832
H10   H     H_    0.187356 0.453682 0.559871 0.152195
H11   H     H_    0.217942 0.578150 0.645247 0.166817
H12   H     H_    0.815810 0.456090 0.445694 0.145372
H13   H     H_    0.282115 0.076350 0.353644 0.155872
H14   H     H_    0.686571 0.954926 0.558761 0.149279
H15   H     H_    0.717960 0.078269 0.645610 0.167662
H16   H     H_    0.315246 0.956045 0.444495 0.145206
N9    N     N_R   0.889730 0.573880 0.452970 -0.070745
N10   N     N_R   0.110270 0.426120 0.547030 -0.061738
N11   N     N_R   0.110270 0.573880 0.547030 -0.070739
N12   N     N_R   0.889730 0.426120 0.452970 -0.065617
N13   N     N_R   0.389730 0.073880 0.452970 -0.071602
N14   N     N_R   0.610270 0.926120 0.547030 -0.062899
N15   N     N_R   0.610270 0.073880 0.547030 -0.069100
N16   N     N_R   0.389730 0.926120 0.452970 -0.066175
C17   C     C_R   0.935535 0.324234 0.555988 0.496163
C18   C     C_R   0.082600 0.693242 0.489529 0.531851
C19   C     C_R   0.066227 0.321252 0.448601 0.490532
C20   C     C_R   0.918561 0.692785 0.513059 0.529497
C21   C     C_R   0.436456 0.825553 0.558023 0.513548
C22   C     C_R   0.582030 0.192393 0.487067 0.529185
C23   C     C_R   0.566948 0.821147 0.449122 0.486443
C24   C     C_R   0.418629 0.192551 0.513650 0.530720
N17   N     N_R   0.941150 0.372910 0.507880 -0.113952
N18   N     N_R   0.058850 0.627090 0.492120 -0.089396
N19   N     N_R   0.058850 0.372910 0.492120 -0.096942
N20   N     N_R   0.941150 0.627090 0.507880 -0.091212
N21   N     N_R   0.441150 0.872910 0.507880 -0.100786
N22   N     N_R   0.558850 0.127090 0.492120 -0.088419
N23   N     N_R   0.558850 0.872910 0.492120 -0.111555
N24   N     N_R   0.441150 0.127090 0.507880 -0.089837
C25   C     C_R   0.110755 0.698134 0.706508 -0.122069
C26   C     C_R   0.906053 0.324759 0.271520 -0.173934
C27   C     C_R   0.890707 0.698179 0.298399 -0.128264
C28   C     C_R   0.100109 0.315622 0.724373 -0.139172
C29   C     C_R   0.610517 0.198282 0.706220 -0.125788
C30   C     C_R   0.406351 0.824789 0.271813 -0.191484
C31   C     C_R   0.391517 0.197132 0.294399 -0.140631
C32   C     C_R   0.600633 0.817125 0.727118 -0.160462
H17   H     H_    0.086872 0.754658 0.672742 0.161904
H18   H     H_    0.930709 0.271090 0.286156 0.182878
H19   H     H_    0.915953 0.754223 0.336586 0.161634
H20   H     H_    0.078409 0.258280 0.708272 0.182206
H21   H     H_    0.586330 0.254693 0.672471 0.159265
H22   H     H_    0.431251 0.771307 0.286718 0.173567
H23   H     H_    0.415497 0.254554 0.323028 0.174831
H24   H     H_    0.579359 0.759522 0.710853 0.184618
N25   N     N_R   0.076340 0.631640 0.652210 -0.053032
N26   N     N_R   0.923660 0.368360 0.347790 -0.062755
N27   N     N_R   0.923660 0.631640 0.347790 -0.050984
N28   N     N_R   0.076340 0.368360 0.652210 -0.069527
N29   N     N_R   0.576340 0.131640 0.652210 -0.052595
N30   N     N_R   0.423660 0.868360 0.347790 -0.061946
N31   N     N_R   0.423660 0.131640 0.347790 -0.052951
N32   N     N_R   0.576340 0.868360 0.652210 -0.066735
C33   C     C_R   0.162805 0.344970 0.823527 0.122427
C34   C     C_R   0.819286 0.683107 0.207656 0.085973
C35   C     C_R   0.848632 0.359021 0.170407 0.102137
C36   C     C_R   0.182207 0.682776 0.797019 0.080025
C37   C     C_R   0.661206 0.849307 0.829136 0.104996
C38   C     C_R   0.321877 0.179140 0.202356 0.140785
C39   C     C_R   0.348917 0.858797 0.170682 0.112236
C40   C     C_R   0.682046 0.183327 0.796194 0.083559
C41   C     C_R   0.848212 0.681806 0.450070 -0.061301
C42   C     C_R   0.115359 0.351544 0.459777 -0.055657
C43   C     C_R   0.153108 0.683293 0.553025 -0.061139
C44   C     C_R   0.887684 0.355885 0.546784 -0.015974
C45   C     C_R   0.348562 0.180883 0.451749 -0.055439
C46   C     C_R   0.614937 0.852672 0.458475 -0.006638
C47   C     C_R   0.652220 0.181980 0.549397 -0.071580
C48   C     C_R   0.387642 0.856619 0.547123 -0.056213
Ni1   Ni    Ni4+2 0.119340 0.500000 0.625930 0.245457
Ni2   Ni    Ni4+2 0.880660 0.500000 0.374070 0.224519
Ni3   Ni    Ni4+2 0.619340 0.000000 0.625930 0.241062
Ni4   Ni    Ni4+2 0.380660 1.000000 0.374070 0.221467
Ni5   Ni    Ni4+2 1.000000 0.373980 0.500000 0.210017
Ni6   Ni    Ni4+2 1.000000 0.626020 0.500000 0.270634
Ni7   Ni    Ni4+2 0.500000 0.873980 0.500000 0.204437
Ni8   Ni    Ni4+2 0.500000 0.126020 0.500000 0.276037
C49   C     C_R   0.807990 0.222614 0.972951 0.351728
C50   C     C_R   0.257273 0.864022 0.965759 0.369306
C51   C     C_R   0.211303 0.248772 0.045017 0.372501
C52   C     C_R   0.764978 0.843552 0.033881 0.363683
C53   C     C_R   0.308206 0.721790 0.973682 0.349025
C54   C     C_R   0.756538 0.364210 0.965281 0.368978
C55   C     C_R   0.696495 0.722867 0.027502 0.360976
C56   C     C_R   0.271504 0.278831 0.982327 0.379490
C57   C     C_R   0.846877 0.265248 0.068208 -0.281618
C58   C     C_R   0.215840 0.817905 0.872303 -0.301411
C59   C     C_R   0.173721 0.289309 0.950605 -0.283865
C60   C     C_R   0.796043 0.810394 0.128335 -0.284052
C61   C     C_R   0.347209 0.764592 0.068858 -0.294889
C62   C     C_R   0.715272 0.318271 0.871745 -0.299227
C63   C     C_R   0.661547 0.761264 0.932188 -0.273533
C64   C     C_R   0.308839 0.238956 0.075984 -0.279876
H25   H     H_    0.899643 0.246058 0.142780 0.182595
H26   H     H_    0.166169 0.840949 0.795896 0.168951
H27   H     H_    0.120980 0.309932 0.900132 0.185130
H28   H     H_    0.848073 0.831270 0.202965 0.155614
H29   H     H_    0.399897 0.745263 0.143459 0.183871
H30   H     H_    0.665435 0.341200 0.795445 0.167838
H31   H     H_    0.606780 0.746179 0.857436 0.186710
H32   H     H_    0.360052 0.215840 0.122443 0.178347
C65   C     C_R   0.817573 0.330971 0.066958 -0.064508
C66   C     C_R   0.237143 0.742149 0.878617 -0.043195
C67   C     C_R   0.204187 0.304649 0.921278 -0.105041
C68   C     C_R   0.767836 0.741992 0.124418 -0.040364
C69   C     C_R   0.318052 0.830611 0.067449 -0.064021
C70   C     C_R   0.736859 0.242804 0.877832 -0.044613
C71   C     C_R   0.697290 0.817213 0.933050 -0.071505
C72   C     C_R   0.279474 0.224459 0.107326 -0.087850
C73   C     C_R   0.133044 0.321844 0.410929 0.070468
C74   C     C_R   0.795754 0.737710 0.414779 0.079927
C75   C     C_R   0.870083 0.328348 0.596831 0.057763
C76   C     C_R   0.206238 0.740877 0.590352 0.088262
C77   C     C_R   0.633138 0.823796 0.409901 0.068591
C78   C     C_R   0.295855 0.235751 0.416903 0.114320
C79   C     C_R   0.369887 0.829256 0.597051 0.069428
C80   C     C_R   0.705169 0.238795 0.585578 0.077474
C81   C     C_R   0.771142 0.863710 0.438361 0.348978
C82   C     C_R   0.129770 0.216041 0.322528 0.330869
C83   C     C_R   0.232525 0.867629 0.569834 0.343719
C84   C     C_R   0.875679 0.226513 0.691130 0.324535
C85   C     C_R   0.267843 0.362469 0.432847 0.344832
C86   C     C_R   0.628236 0.720509 0.317006 0.318329
C87   C     C_R   0.733712 0.367055 0.572071 0.341311
C88   C     C_R   0.375484 0.728246 0.691953 0.334989
C89   C     C_R   0.810420 0.817834 0.438619 -0.272544
C90   C     C_R   0.102608 0.252230 0.349712 -0.233809
C91   C     C_R   0.190911 0.820456 0.564304 -0.289057
C92   C     C_R   0.903126 0.262647 0.664153 -0.196285
C93   C     C_R   0.308258 0.316463 0.435558 -0.248514
C94   C     C_R   0.601338 0.755837 0.345137 -0.197646
C95   C     C_R   0.691431 0.319023 0.564445 -0.284928
C96   C     C_R   0.403677 0.764573 0.666338 -0.235845
C97   C     C_R   0.731548 0.708278 0.364677 -0.082341
C98   C     C_R   0.180986 0.363347 0.425553 -0.155771
C99   C     C_R   0.272516 0.714163 0.646484 -0.109396
C100  C     C_R   0.819015 0.367492 0.576352 -0.155092
C101  C     C_R   0.233125 0.204782 0.370555 -0.068424
C102  C     C_R   0.682887 0.864694 0.428173 -0.173379
C103  C     C_R   0.770062 0.210816 0.637692 -0.086763
C104  C     C_R   0.317408 0.867354 0.573710 -0.147660
C105  C     C_R   0.689242 0.753406 0.357868 -0.033030
C106  C     C_R   0.211670 0.327038 0.404045 -0.035888
C107  C     C_R   0.313733 0.758731 0.649695 -0.051470
C108  C     C_R   0.790884 0.333040 0.603190 -0.015434
C109  C     C_R   0.189588 0.249969 0.360761 -0.029900
C110  C     C_R   0.713449 0.829028 0.406117 -0.028717
C111  C     C_R   0.814149 0.257619 0.649175 -0.041621
C112  C     C_R   0.289398 0.833181 0.600826 -0.014226
H33   H     H_    0.197957 0.421350 0.460805 0.172532
H34   H     H_    0.717950 0.647337 0.342495 0.159858
H35   H     H_    0.796370 0.420957 0.530612 0.166297
H36   H     H_    0.289051 0.655819 0.678039 0.181581
H37   H     H_    0.701152 0.921727 0.466254 0.171966
H38   H     H_    0.221744 0.143029 0.353783 0.148740
H39   H     H_    0.294008 0.920109 0.526405 0.164080
H40   H     H_    0.783017 0.149913 0.657983 0.165042
H41   H     H_    0.058549 0.224739 0.323967 0.215964
H42   H     H_    0.855130 0.844114 0.465334 0.206085
H43   H     H_    0.949195 0.237741 0.694279 0.219648
H44   H     H_    0.146532 0.846145 0.538232 0.210139
H45   H     H_    0.556091 0.729200 0.316736 0.213766
H46   H     H_    0.351971 0.343308 0.459854 0.200732
H47   H     H_    0.449669 0.739050 0.696613 0.207547
H48   H     H_    0.646904 0.344263 0.538589 0.212463
O1    O     O_3   0.957251 0.247245 0.582117 -0.664730
C113  C     C_3   0.941846 0.211053 0.499035 0.204552
H49   H     H_    0.976312 0.235078 0.497712 0.108382
H50   H     H_    0.885272 0.218975 0.417653 0.123855
C114  C     C_3   0.955304 0.123786 0.520842 -0.749001
H51   H     H_    0.923588 0.098760 0.526926 0.295475
H52   H     H_    0.939811 0.093811 0.453134 0.205994
H53   H     H_    0.012283 0.113498 0.598274 0.248478
O2    O     O_3   0.048284 0.763638 0.454360 -0.652363
C115  C     C_3   0.019728 0.781464 0.354269 0.095078
H54   H     H_    0.974406 0.741765 0.288457 0.137139
H55   H     H_    0.059357 0.775874 0.358185 0.130455
C116  C     C_3   0.993818 0.865487 0.324196 -0.655038
H56   H     H_    0.039049 0.906858 0.381057 0.267430
H57   H     H_    0.964100 0.877310 0.240299 0.269281
H58   H     H_    0.959511 0.876175 0.329605 0.233584
O3    O     O_3   0.048123 0.243113 0.433025 -0.684338
C117  C     C_3   0.099797 0.205326 0.534600 0.220308
H59   H     H_    0.097269 0.225483 0.586988 0.115195
H60   H     H_    0.154108 0.216125 0.577928 0.151092
C118  C     C_3   0.085835 0.117616 0.515871 -0.728041
H61   H     H_    0.089931 0.095953 0.466013 0.297807
H62   H     H_    0.125240 0.087066 0.595224 0.228206
H63   H     H_    0.032001 0.104334 0.472280 0.235495
O4    O     O_3   0.954481 0.763210 0.552756 -0.649350
C119  C     C_3   0.981545 0.779620 0.652305 0.100789
H64   H     H_    0.025359 0.739133 0.716654 0.122127
H65   H     H_    0.940444 0.773857 0.645296 0.128465
C120  C     C_3   0.009939 0.863277 0.688225 -0.679160
H66   H     H_    0.965991 0.905294 0.630537 0.259756
H67   H     H_    0.036665 0.874439 0.770651 0.233979
H68   H     H_    0.048363 0.873093 0.690673 0.246774
O5    O     O_3   0.459638 0.749449 0.585643 -0.681339
C121  C     C_3   0.409199 0.701669 0.491536 0.169749
H69   H     H_    0.408472 0.714757 0.433700 0.102030
H70   H     H_    0.355084 0.709727 0.449552 0.132931
C122  C     C_3   0.428853 0.616399 0.524578 -0.710059
H71   H     H_    0.425137 0.600720 0.576413 0.285288
H72   H     H_    0.392243 0.578186 0.450826 0.228578
H73   H     H_    0.483735 0.606515 0.571206 0.235948
O6    O     O_3   0.545492 0.261712 0.443742 -0.655230
C123  C     C_3   0.521915 0.275041 0.346729 0.144517
H74   H     H_    0.482078 0.229993 0.284016 0.119549
H75   H     H_    0.566022 0.273331 0.360253 0.128895
C124  C     C_3   0.488370 0.355496 0.302672 -0.698110
H76   H     H_    0.526436 0.401214 0.365526 0.273672
H77   H     H_    0.473303 0.367720 0.229913 0.257500
H78   H     H_    0.440237 0.358288 0.278831 0.220921
O7    O     O_3   0.548988 0.742394 0.430463 -0.664202
C125  C     C_3   0.557600 0.713175 0.508963 0.225409
H79   H     H_    0.516737 0.737223 0.496345 0.102181
H80   H     H_    0.611295 0.727614 0.593179 0.126527
C126  C     C_3   0.549535 0.624593 0.497439 -0.755792
H81   H     H_    0.587351 0.599310 0.503924 0.294360
H82   H     H_    0.560811 0.600119 0.563175 0.205058
H83   H     H_    0.494783 0.608073 0.417169 0.242612
O8    O     O_3   0.453658 0.263468 0.551319 -0.646436
C127  C     C_3   0.480297 0.281739 0.650145 0.098146
H84   H     H_    0.524644 0.242269 0.715891 0.124759
H85   H     H_    0.439168 0.276199 0.643085 0.125393
C128  C     C_3   0.507573 0.365861 0.683345 -0.675979
H86   H     H_    0.463153 0.406973 0.623563 0.253749
H87   H     H_    0.533408 0.378799 0.764847 0.240586
H88   H     H_    0.546525 0.375115 0.686765 0.245697
N33   N     N_R   0.841817 0.162043 0.973303 0.234286
O9    O     O_R   0.830329 0.156254 0.892744 -0.361094
O10   O     O_R   0.892267 0.121315 0.060619 -0.300681
N34   N     N_R   0.238411 0.944128 0.955242 0.223088
O11   O     O_R   0.286527 0.998812 0.006962 -0.393549
O12   O     O_R   0.172238 0.963893 0.880554 -0.410612
N35   N     N_R   0.180294 0.233725 0.075981 0.243176
O13   O     O_R   0.219761 0.225427 0.177746 -0.403940
O14   O     O_R   0.111921 0.234614 0.003041 -0.332428
N36   N     N_R   0.807704 0.895289 0.043142 0.209576
O15   O     O_R   0.836067 0.957239 0.105397 -0.390149
O16   O     O_R   0.829828 0.872407 0.008103 -0.379852
N37   N     N_R   0.341815 0.660854 0.974032 0.230306
O17   O     O_R   0.329851 0.654328 0.893040 -0.380538
O18   O     O_R   0.392466 0.620434 0.061583 -0.339603
N38   N     N_R   0.737164 0.444018 0.954779 0.223894
O19   O     O_R   0.784642 0.499256 0.004834 -0.391934
O20   O     O_R   0.670880 0.462971 0.881502 -0.398252
N39   N     N_R   0.659012 0.666638 0.025075 0.237032
O21   O     O_R   0.670749 0.663049 0.105947 -0.366270
O22   O     O_R   0.607909 0.624810 0.937705 -0.313696
N40   N     N_R   0.300777 0.288732 0.947872 0.242337
O23   O     O_R   0.368802 0.296538 0.020097 -0.381693
O24   O     O_R   0.261354 0.278709 0.846101 -0.392339
N41   N     N_R   0.288264 0.442573 0.467784 0.228472
O25   O     O_R   0.314544 0.464274 0.558805 -0.355584
O26   O     O_R   0.296525 0.488123 0.423802 -0.406315
N42   N     N_R   0.594949 0.650374 0.250928 0.244149
O27   O     O_R   0.587736 0.640089 0.175258 -0.301404
O28   O     O_R   0.563502 0.601827 0.256123 -0.298587
N43   N     N_R   0.716764 0.448530 0.544861 0.239038
O29   O     O_R   0.767025 0.500872 0.599896 -0.381932
O30   O     O_R   0.651839 0.471746 0.475292 -0.382266
N44   N     N_R   0.408560 0.659204 0.756942 0.243924
O31   O     O_R   0.378731 0.591160 0.711891 -0.323752
O32   O     O_R   0.474170 0.662671 0.854672 -0.271787
N45   N     N_R   0.794165 0.942617 0.478982 0.229229
O33   O     O_R   0.819266 0.961539 0.569870 -0.375383
O34   O     O_R   0.805963 0.989260 0.440544 -0.392148
N46   N     N_R   0.098072 0.144143 0.260223 0.246481
O35   O     O_R   0.091773 0.131057 0.185918 -0.306280
O36   O     O_R   0.066985 0.096619 0.267007 -0.301325
N47   N     N_R   0.215673 0.948899 0.541415 0.236109
O37   O     O_R   0.265934 0.001383 0.597980 -0.385908
O38   O     O_R   0.150383 0.971771 0.466910 -0.398203
N48   N     N_R   0.909001 0.157462 0.757235 0.252335
O39   O     O_R   0.912972 0.146137 0.829088 -0.291113
O40   O     O_R   0.943470 0.111182 0.756123 -0.312752

loop_
_geom_bond_atom_site_label_1
_geom_bond_atom_site_label_2
_geom_bond_distance
_ccdc_geom_bond_type
C86   N42   1.439784 S    
C92   H43   1.077791 S    
N45   O33   1.301144 A    
C11   C43   1.380227 A    
C98   C106  1.393180 A    
C103  C111  1.389188 A    
C87   N43   1.439777 S    
C24   C45   1.396409 A    
C75   C92   1.402020 A    
N24   Ni8   1.851347 S    
C125  H80   1.115252 S    
C105  C110  1.415735 A    
C49   C70   1.408697 A    
C14   H14   1.078117 S    
N36   O15   1.301224 A    
C2    C34   1.396372 A    
N11   N18   1.342780 A    
N17   Ni5   1.851270 S    
C24   O8    1.377509 S    
C18   O2    1.376601 S    
C6    C38   1.378319 A    
C123  H75   1.113784 S    
C95   H48   1.077880 S    
C16   C48   1.386922 A    
C3    N3    1.339341 A    
C4    H4    1.074836 S    
N3    N26   1.453725 A    
N8    N29   1.453727 A    
C5    H5    1.070393 S    
N13   Ni4   1.816937 S    
C125  C126  1.520615 S    
C7    H7    1.073473 S    
C8    H8    1.074832 S    
C124  H76   1.109651 S    
C121  H70   1.115602 S    
C84   C111  1.411178 A    
C116  H57   1.109533 S    
C74   C89   1.399523 A    
N48   O40   1.301629 A    
C123  C124  1.523456 S    
C51   C59   1.384565 A    
C113  H49   1.112148 S    
C22   C47   1.397394 A    
N15   Ni3   1.829003 S    
C9    N9    1.325732 A    
C55   N39   1.435263 S    
N31   Ni8   1.871942 S    
C11   H11   1.078501 S    
C12   N12   1.336304 A    
C81   C89   1.396239 A    
C121  C122  1.520700 S    
N26   Ni5   1.869733 S    
C120  H66   1.110125 S    
C50   N34   1.435290 S    
C26   N26   1.333105 A    
N12   N17   1.342781 A    
C14   C46   1.383801 A    
N8    Ni3   1.806468 S    
C63   C71   1.410992 A    
N6    N31   1.439481 A    
C64   C72   1.401081 A    
C47   C80   1.478044 S    
N34   O12   1.301318 A    
N44   O31   1.300115 A    
C80   C95   1.402177 A    
C126  H82   1.109368 S    
C104  C112  1.395187 A    
C73   C98   1.400858 A    
C79   C104  1.401197 A    
N18   Ni6   1.851267 S    
C34   C68   1.473010 S    
C38   C72   1.414761 S    
N42   O28   1.301563 A    
C93   H46   1.077777 S    
N40   O24   1.301609 A    
C91   H44   1.075316 S    
C98   H33   1.077442 S    
N19   Ni5   1.851344 S    
C87   C95   1.400320 A    
C88   C96   1.392285 A    
N23   Ni7   1.851344 S    
C3    H3    1.074001 S    
C46   C77   1.467205 S    
C4    N4    1.341859 A    
N3    Ni2   1.806467 S    
C5    N5    1.330329 A    
N25   Ni6   1.869730 S    
C62   H30   1.078071 S    
C124  H78   1.108894 S    
C44   C75   1.472822 S    
N35   O13   1.300875 A    
C27   N27   1.318951 A    
C96   H47   1.078938 S    
C45   C78   1.470492 S    
C29   H21   1.076712 S    
C87   C108  1.414393 A    
N29   Ni8   1.869730 S    
C102  C110  1.393474 A    
N15   N22   1.342780 A    
C31   H23   1.076944 S    
N43   O30   1.301292 A    
N16   Ni4   1.829004 S    
C56   N40   1.441049 S    
O7    C125  1.410833 S    
C55   C68   1.405569 A    
C120  H68   1.108449 S    
C128  H86   1.110264 S    
C51   N35   1.442070 S    
C21   C48   1.392253 A    
C26   H18   1.068714 S    
C59   C67   1.399845 A    
C17   N17   1.343815 A    
C60   H28   1.072687 S    
O6    C123  1.415622 S    
C57   C65   1.407702 A    
C20   N20   1.348130 A    
N32   Ni7   1.871940 S    
C21   N21   1.343087 A    
C2    H2    1.077086 S    
C61   C69   1.407822 A    
C23   N23   1.345131 A    
C24   N24   1.348785 A    
O5    C121  1.410881 S    
N46   O36   1.301603 A    
N5    N32   1.439482 A    
N37   O17   1.301893 A    
C99   C107  1.392118 A    
C97   C105  1.386429 A    
N41   O25   1.300280 A    
C114  H52   1.109993 S    
C17   O1    1.382906 S    
C50   C69   1.411184 A    
N38   O19   1.301701 A    
C85   C93   1.396028 A    
C103  H40   1.076790 S    
C104  H39   1.078185 S    
C102  H37   1.076587 S    
C83   C91   1.399518 A    
O3    C117  1.411183 S    
C113  C114  1.520797 S    
C27   C34   1.377696 A    
N2    Ni2   1.818093 S    
C118  H61   1.110285 S    
C6    H6    1.080632 S    
C117  H60   1.115472 S    
C23   O7    1.386072 S    
O2    C115  1.414633 S    
N27   Ni6   1.871942 S    
C81   C110  1.415446 A    
N33   O10   1.301495 A    
C9    C41   1.375416 A    
C115  H55   1.115212 S    
C27   H19   1.077098 S    
C29   N29   1.328501 A    
C75   C100  1.403100 A    
C10   N10   1.334248 A    
C117  C118  1.520068 S    
C107  C112  1.413194 A    
C51   C72   1.402093 A    
C14   N14   1.333470 A    
N9    N20   1.329611 A    
N10   N19   1.329609 A    
C128  H88   1.108708 S    
C42   C73   1.463876 S    
C28   H20   1.075115 S    
C115  C116  1.522490 S    
N13   N24   1.329611 A    
C1    N1    1.328928 A    
N28   Ni5   1.871940 S    
N14   N23   1.329609 A    
N1    N28   1.439482 A    
N37   O18   1.301442 A    
C127  H84   1.112525 S    
C32   H24   1.074045 S    
N21   Ni7   1.851270 S    
C7    N7    1.340391 A    
C90   H41   1.077964 S    
C8    N8    1.343394 A    
N36   O16   1.301479 A    
C85   C106  1.414752 A    
C81   N45   1.434882 S    
C78   C101  1.399540 A    
C49   C57   1.393713 A    
C119  H64   1.112420 S    
C74   C97   1.399758 A    
N39   O21   1.301812 A    
C53   C61   1.393532 A    
C13   N13   1.322786 A    
C9    H9    1.079019 S    
C55   C63   1.396729 A    
C53   C66   1.408290 A    
C36   C66   1.478484 S    
C116  H56   1.105876 S    
C19   O3    1.380484 S    
C23   C46   1.388314 A    
C113  H50   1.115362 S    
C99   H36   1.074435 S    
C63   H31   1.081735 S    
C97   H34   1.076170 S    
C118  H63   1.109162 S    
C64   H32   1.083117 S    
N39   O22   1.301306 A    
C100  H35   1.078096 S    
C6    N6    1.338235 A    
C82   C109  1.410752 A    
C101  H38   1.076681 S    
C76   C99   1.403208 A    
C3    C35   1.399723 A    
C77   C102  1.401727 A    
O1    C113  1.412110 S    
C80   C103  1.401722 A    
N7    N30   1.453725 A    
C100  C108  1.395958 A    
C19   C42   1.388693 A    
C101  C109  1.383737 A    
C15   N15   1.328502 A    
C16   N16   1.336344 A    
N44   O32   1.300369 A    
C82   C90   1.388956 A    
N45   O34   1.300954 A    
N9    Ni2   1.816937 S    
N47   O37   1.301488 A    
C18   N18   1.349064 A    
C22   O6    1.378033 S    
C1    H1    1.079634 S    
C58   C66   1.405435 A    
N43   O29   1.301468 A    
C22   N22   1.348949 A    
C125  H79   1.110969 S    
C62   C70   1.405250 A    
C28   N28   1.319709 A    
C126  H83   1.110771 S    
C25   N25   1.328538 A    
C82   N46   1.440207 S    
N2    N27   1.439481 A    
C13   C45   1.373007 A    
C31   N31   1.314448 A    
C32   C37   1.391970 A    
C39   C69   1.479756 S    
C124  H77   1.110056 S    
C121  H69   1.113130 S    
C21   O5    1.377267 S    
C86   C94   1.390569 A    
N4    Ni1   1.806468 S    
C116  H58   1.107234 S    
N48   O39   1.301583 A    
C52   C60   1.378092 A    
C59   H27   1.084806 S    
C60   C68   1.400510 A    
C57   H25   1.079808 S    
C56   C64   1.370252 A    
N12   Ni2   1.829004 S    
C94   H45   1.078323 S    
C120  H67   1.110390 S    
C126  H81   1.110906 S    
N6    Ni4   1.818093 S    
N7    Ni4   1.806467 S    
N30   Ni7   1.869733 S    
N10   Ni1   1.816938 S    
C106  C109  1.414938 A    
N20   Ni6   1.851347 S    
C11   N11   1.330735 A    
N22   Ni8   1.851267 S    
N34   O11   1.301737 A    
C12   H12   1.077815 S    
C13   H13   1.079329 S    
C4    C36   1.396827 A    
C25   C36   1.384352 A    
C43   C76   1.482934 S    
C30   H22   1.068129 S    
C41   C74   1.473856 S    
C8    C40   1.396021 A    
C29   C40   1.383453 A    
C117  H59   1.112593 S    
C31   C38   1.361991 A    
C114  H51   1.110827 S    
C18   C43   1.397886 A    
C48   C79   1.473622 S    
N42   O27   1.301591 A    
C86   C105  1.411653 A    
N38   O20   1.301486 A    
O8    C127  1.414812 S    
N40   O23   1.301382 A    
C73   C90   1.400082 A    
C79   C96   1.402783 A    
C20   C41   1.395888 A    
C25   H17   1.076688 S    
N11   Ni1   1.829003 S    
C88   N44   1.432339 S    
C53   N37   1.435421 S    
C35   C65   1.480257 S    
C10   H10   1.078691 S    
C33   C67   1.406599 S    
C54   C65   1.411503 A    
N33   O9    1.301886 A    
C37   C71   1.467679 S    
C108  C111  1.413433 A    
C12   C44   1.388239 A    
N4    N25   1.453727 A    
C32   N32   1.332373 A    
C123  H74   1.111558 S    
C85   N41   1.432782 S    
C128  H87   1.110391 S    
C83   C112  1.411059 A    
C78   C93   1.398803 A    
N47   O38   1.300004 A    
C15   C47   1.377975 A    
C127  H85   1.114947 S    
C88   C107  1.410312 A    
N1    Ni1   1.818096 S    
C52   C71   1.409508 A    
N14   Ni3   1.816938 S    
O4    C119  1.415143 S    
C56   C67   1.396546 A    
C52   N36   1.431003 S    
N5    Ni3   1.818096 S    
C10   C42   1.384546 A    
N46   O35   1.301607 A    
C119  H65   1.115113 S    
C122  H72   1.110252 S    
C122  H73   1.109028 S    
C127  C128  1.522648 S    
C19   N19   1.337669 A    
C30   N30   1.332353 A    
C114  H53   1.110856 S    
C61   H29   1.079698 S    
N35   O14   1.301926 A    
C84   N48   1.440130 S    
C1    C33   1.380404 A    
C76   C91   1.402929 A    
C77   C94   1.400196 A    
C83   N47   1.438729 S    
C2    N2    1.347421 A    
C5    C37   1.394826 A    
C26   C35   1.394504 A    
C119  C120  1.522720 S    
C7    C39   1.399705 A    
C30   C39   1.392853 A    
C118  H62   1.110454 S    
C17   C44   1.390954 A    
C54   N38   1.434811 S    
N16   N21   1.342781 A    
N41   O26   1.300684 A    
C15   H15   1.079010 S    
C89   H42   1.077013 S    
C16   H16   1.077528 S    
C49   N33   1.435300 S    
C40   C70   1.478830 S    
C50   C58   1.392646 A    
C20   O4    1.377302 S    
C84   C92   1.393064 A    
C115  H54   1.111919 S    
C54   C62   1.392433 A    
C28   C33   1.368479 A    
C122  H71   1.111024 S    
C58   H26   1.077874 S    
