data_mof_unit_28486.cif
_audit_creation_date              2013-03-05T15:52:28-0500
_audit_creation_method            fapswitch 2.2
_symmetry_space_group_name_H-M    P1
_symmetry_Int_Tables_number       1
_space_group_crystal_system       triclinic
_cell_length_a                    27.822265
_cell_length_b                    10.870449
_cell_length_c                    9.575046
_cell_angle_alpha                 91.547971
_cell_angle_beta                  90.290653
_cell_angle_gamma                 92.72116
_cell_volume                      2891.50224603

loop_
_atom_site_label
_atom_site_type_symbol
_atom_site_description
_atom_site_fract_x
_atom_site_fract_y
_atom_site_fract_z
_atom_type_partial_charge
O1    O     O_R   0.500000 0.319640 0.618810 -0.586990
O2    O     O_R   0.500000 0.319660 0.381240 -0.517051
C1    C     C_R   0.504339 0.263293 0.497984 0.834785
O3    O     O_R   0.430260 0.500010 0.618770 -0.580132
O4    O     O_R   0.430270 0.500030 0.381200 -0.583372
C2    C     C_R   0.407504 0.499988 0.499613 0.863817
Cu1   Cu    Cu3+1 0.500000 0.499990 0.640660 0.939787
Cu2   Cu    Cu3+1 0.500000 0.500010 0.359340 0.985240
O5    O     O_R   0.500000 0.680340 0.618760 -0.615349
O6    O     O_R   0.500000 0.680360 0.381190 -0.603680
O7    O     O_R   0.569730 0.499970 0.618800 -0.611902
O8    O     O_R   0.569740 0.499990 0.381230 -0.593162
C3    C     C_R   0.498424 0.738001 0.502797 0.808932
C4    C     C_R   0.592481 0.500451 0.500441 0.766786
C5    C     C_R   0.175526 0.398465 0.491330 0.660386
O9    O     O_2   0.198046 0.291118 0.487947 -0.498769
N1    N     N_R   0.201952 0.507406 0.494377 -0.435115
C6    C     C_R   0.180625 0.618191 0.496576 0.672984
C7    C     C_R   0.279541 0.523406 0.370710 0.331857
C8    C     C_R   0.329825 0.521751 0.374057 -0.245191
C9    C     C_R   0.328576 0.483076 0.621665 -0.245830
C10   C     C_R   0.278274 0.485514 0.622518 0.337200
C11   C     C_R   0.253536 0.505452 0.495939 0.123186
C12   C     C_R   0.101931 0.510391 0.493540 -0.039746
C13   C     C_R   0.125236 0.397791 0.492529 -0.024644
C14   C     C_R   0.098034 0.286515 0.491625 -0.102772
C15   C     C_R   0.129810 0.622925 0.490610 -0.090210
C16   C     C_R   0.354551 0.501406 0.498476 -0.158034
H1    H     H_    0.347577 0.467945 0.718242 0.203690
H2    H     H_    0.115143 0.199043 0.486440 0.214024
C17   C     C_R   0.645402 0.501353 0.502012 -0.033104
C18   C     C_R   0.972894 0.395988 0.522105 0.029367
C19   C     C_R   0.975914 0.620326 0.491932 0.050373
C20   C     C_R   0.949051 0.507238 0.509443 0.075964
C21   C     C_R   0.945363 0.288326 0.554611 -0.241104
C22   C     C_R   0.895267 0.286507 0.564799 -0.006692
C23   C     C_R   0.870653 0.394340 0.536383 -0.090862
C24   C     C_R   0.897889 0.505384 0.513284 -0.049125
C25   C     C_R   0.873913 0.615024 0.493059 -0.024499
C26   C     C_R   0.823551 0.612443 0.493056 0.541726
N2    N     N_R   0.797768 0.503918 0.508786 -0.471559
C27   C     C_R   0.819844 0.395751 0.526883 0.563449
C28   C     C_R   0.720457 0.489278 0.630336 -0.098941
C29   C     C_R   0.670362 0.488674 0.628494 -0.221775
C30   C     C_R   0.671504 0.515243 0.377620 -0.210916
C31   C     C_R   0.721665 0.516538 0.379939 -0.097197
C32   C     C_R   0.746235 0.503346 0.506238 0.353648
O10   O     O_2   0.792514 0.290107 0.530387 -0.499892
C33   C     C_R   0.023653 0.396017 0.506775 0.051745
C34   C     C_R   0.050771 0.509656 0.498036 0.082350
C35   C     C_R   0.027153 0.622108 0.494463 0.033264
C36   C     C_R   0.048284 0.285381 0.497875 -0.181537
H3    H     H_    0.651237 0.477820 0.725969 0.166188
H4    H     H_    0.739333 0.479187 0.728239 0.147045
H5    H     H_    0.962384 0.204936 0.581345 0.158433
H6    H     H_    0.029999 0.195702 0.491956 0.153352
O11   O     O_2   0.208805 0.722291 0.508722 -0.474606
C37   C     C_R   0.105807 0.734961 0.487011 -0.002288
H7    H     H_    0.349740 0.535505 0.278394 0.206099
C38   C     C_R   0.950363 0.727863 0.471107 -0.185946
C39   C     C_R   0.900502 0.724985 0.471934 -0.117943
O12   O     O_2   0.800393 0.717546 0.476920 -0.522079
C40   C     C_R   0.055618 0.733039 0.492455 -0.228644
H8    H     H_    0.967593 0.816033 0.449825 0.153871
H9    H     H_    0.653250 0.525539 0.278758 0.166257
H10   H     H_    0.882804 0.809988 0.454684 0.220682
H11   H     H_    0.741484 0.527317 0.283660 0.143653
H12   H     H_    0.039760 0.821502 0.494720 0.150401
C41   C     C_R   0.547861 0.133719 0.730184 -0.137527
H13   H     H_    0.565708 0.223269 0.717189 0.157058
C42   C     C_R   0.551009 0.081045 0.860373 -0.092367
H14   H     H_    0.569854 0.130715 0.945032 0.184857
C43   C     C_R   0.528278 0.966853 0.882240 -0.080418
H15   H     H_    0.527651 0.929369 0.985872 0.176922
C44   C     C_R   0.507425 0.899120 0.769895 -0.162694
H16   H     H_    0.488619 0.813953 0.795206 0.181928
C45   C     C_R   0.509115 0.945187 0.632666 0.091086
C46   C     C_R   0.522773 0.070747 0.618639 0.055648
C47   C     C_R   0.510819 0.129842 0.494109 -0.232828
C48   C     C_R   0.498340 0.058072 0.372867 0.346247
H17   H     H_    0.485245 0.878007 0.286168 0.197499
C49   C     C_R   0.493053 0.931333 0.381587 -0.257722
C50   C     C_R   0.498054 0.873098 0.508985 -0.165833
H18   H     H_    0.444283 0.363532 0.124427 0.173304
C51   C     C_R   0.565796 0.660237 0.149413 -0.153002
H19   H     H_    0.568177 0.671086 0.259663 0.197681
C52   C     C_R   0.598861 0.735306 0.079396 -0.220650
H20   H     H_    0.624131 0.796077 0.137558 0.169207
C53   C     C_R   0.599009 0.734229 0.935499 -0.206714
H21   H     H_    0.624181 0.794677 0.881019 0.169449
C54   C     C_R   0.565795 0.658913 0.860888 -0.166814
H22   H     H_    0.567133 0.670240 0.751264 0.205086
C55   C     C_R   0.532384 0.578239 0.927787 0.188987
C56   C     C_R   0.532369 0.578492 0.077502 0.213036
N3    N     N_R   0.500460 0.501210 0.147910 -0.207400
C57   C     C_R   0.469352 0.425001 0.071229 0.023416
H23   H     H_    0.444267 0.363614 0.865510 0.160615
C58   C     C_R   0.469358 0.425055 0.923173 -0.029970
N4    N     N_R   0.500480 0.501290 0.852040 -0.214054
N5    N     N_R   0.255612 0.543463 0.239844 0.166988
O13   O     O_R   0.278408 0.601096 0.140818 -0.277380
O14   O     O_R   0.212605 0.495910 0.213790 -0.299279
C59   C     C_2   0.130904 0.856902 0.469923 0.932152
O15   O     O_2   0.123840 0.941276 0.553250 -0.578461
O16   O     O_R   0.160685 0.876888 0.354731 -0.680590
H24   H     H_    0.175137 0.964250 0.353462 0.364621
N6    N     N_R   0.493219 0.110872 0.238234 0.119030
O17   O     O_R   0.456551 0.077093 0.158972 -0.366867
O18   O     O_R   0.529789 0.170670 0.183624 -0.391134
N7    N     N_R   0.253056 0.467751 0.752223 0.165068
O19   O     O_R   0.272801 0.409247 0.852788 -0.282362
O20   O     O_R   0.212293 0.518187 0.775734 -0.298506
C60   C     C_2   0.871013 0.171816 0.615351 0.936280
O21   O     O_2   0.880141 0.072248 0.561822 -0.602050
O22   O     O_R   0.839605 0.177136 0.728696 -0.718501
H25   H     H_    0.825871 0.092802 0.754593 0.347081

loop_
_geom_bond_atom_site_label_1
_geom_bond_atom_site_label_2
_geom_bond_distance
_ccdc_geom_bond_type
C52   H20   1.083017 S    
C55   C56   1.433455 A    
N6    O18   1.300830 A    
N2    C27   1.366868 A    
N3    C57   1.366403 A    
C12   C15   1.418045 A    
C4    C17   1.471947 S    
C44   H16   1.075657 S    
C1    C47   1.469807 S    
H17   C49   1.084139 S    
Cu1   Cu2   2.693658 S    
C30   C31   1.395042 A    
Cu1   O7    1.952370 S    
C48   N6    1.434381 S    
N1    C11   1.436362 S    
Cu1   N4    2.023614 S    
C22   C23   1.417252 A    
H18   C57   1.081743 S    
O4    C2    1.301534 A    
O7    C4    1.300896 A    
C5    C13   1.398988 A    
C45   C50   1.426365 A    
O22   H25   1.013862 S    
C58   N4    1.367026 A    
H23   C58   1.081719 S    
C26   O12   1.350116 S    
C5    N1    1.363466 A    
C43   H15   1.082731 S    
C23   C27   1.416934 A    
C41   C42   1.389842 A    
O5    C3    1.291275 A    
N7    O19   1.301666 A    
C6    O11   1.347775 S    
C31   C32   1.400227 A    
C29   H3    1.083126 S    
C2    C16   1.474087 S    
C7    C8    1.400200 A    
C10   N7    1.442527 S    
C57   C58   1.417660 A    
N6    O17   1.301207 A    
C53   C54   1.387270 A    
C55   N4    1.379786 A    
O1    Cu1   1.965989 S    
C9    C10   1.401088 A    
C43   C44   1.395054 A    
C41   C46   1.415663 A    
C41   H13   1.082084 S    
Cu2   N3    2.024948 S    
O3    Cu1   1.950569 S    
C22   C60   1.483253 S    
C39   H10   1.083600 S    
N1    C6    1.367269 A    
C51   C52   1.387867 A    
C12   C34   1.423914 A    
C25   C39   1.395554 A    
C17   C29   1.406242 A    
C21   H5    1.078694 S    
C18   C21   1.410766 A    
C35   C40   1.411526 A    
C12   C13   1.411906 A    
C48   C49   1.383406 A    
C54   H22   1.060784 S    
C42   C43   1.387638 A    
C46   C47   1.415172 A    
C8    C16   1.400620 A    
C34   C35   1.416170 A    
C13   C14   1.395870 A    
C45   C46   1.409447 A    
C9    H1    1.083124 S    
O6    C3    1.309217 A    
C38   C39   1.386166 A    
O1    C1    1.303207 A    
C21   C22   1.396926 A    
C18   C20   1.414387 A    
C7    C11   1.416819 A    
C28   C29   1.393488 A    
C23   C24   1.417551 A    
C14   C36   1.385233 A    
C54   C55   1.415087 A    
C51   C56   1.417980 A    
C28   H4    1.082891 S    
Cu2   O8    1.950563 S    
C33   C36   1.413014 A    
N5    O14   1.300935 A    
C19   C20   1.422351 A    
N2    C32   1.433556 S    
C59   O16   1.398355 S    
C27   O10   1.348160 S    
C8    H7    1.083080 S    
C44   C45   1.418953 A    
C51   H19   1.060431 S    
O3    C2    1.302007 A    
C26   N2    1.363575 A    
C9    C16   1.400342 A    
O8    C4    1.302037 A    
C33   C34   1.421252 A    
C19   C38   1.414816 A    
C52   C53   1.377583 A    
C30   H9    1.082948 S    
C25   C26   1.400125 A    
C60   O21   1.223163 D    
C37   C40   1.396797 A    
Cu1   O5    1.977292 S    
C40   H12   1.076633 S    
C20   C24   1.423321 A    
O2    Cu2   1.977293 S    
C6    C15   1.418088 A    
C15   C37   1.417622 A    
O4    Cu2   1.952373 S    
C7    N5    1.442553 S    
C14   H2    1.083448 S    
C19   C35   1.424879 A    
O16   H24   1.013940 S    
C3    C50   1.468687 S    
C38   H8    1.076041 S    
O2    C1    1.297000 A    
C42   H14   1.081045 S    
C24   C25   1.410531 A    
N5    O13   1.301643 A    
C56   N3    1.383561 A    
N7    O20   1.300934 A    
C18   C33   1.420573 A    
C47   C48   1.413554 A    
C36   H6    1.077964 S    
C31   H11   1.082821 S    
Cu2   O6    1.965989 S    
C49   C50   1.398741 A    
C17   C30   1.406025 A    
C59   O15   1.222954 D    
C10   C11   1.417578 A    
C37   C59   1.482023 S    
C53   H21   1.083003 S    
C28   C32   1.399204 A    
C5    O9    1.350143 S    
C60   O22   1.398504 S    
