data_mof_unit_60975.cif
_audit_creation_date              2012-12-10T17:04:18-0500
_audit_creation_method            fapswitch 2.2
_symmetry_space_group_name_H-M    P1
_symmetry_Int_Tables_number       1
_space_group_crystal_system       triclinic
_cell_length_a                    15.12263
_cell_length_b                    15.123291
_cell_length_c                    16.01995
_cell_angle_alpha                 89.687105
_cell_angle_beta                  90.167487
_cell_angle_gamma                 90.213507
_cell_volume                      3663.73008257

loop_
_atom_site_label
_atom_site_type_symbol
_atom_type_description
_atom_site_fract_x
_atom_site_fract_y
_atom_site_fract_z
_atom_type_partial_charge
C1    C     C_R   0.259807 0.484859 0.488837 0.538033
C2    C     C_R   0.979709 0.454937 0.500582 -0.000775
C3    C     C_R   0.019204 0.539486 0.509157 -0.024054
C4    C     C_R   0.739794 0.514930 0.512248 0.547664
C5    C     C_R   0.110878 0.548345 0.504732 -0.177369
C6    C     C_R   0.124400 0.390819 0.479084 0.370517
C7    C     C_R   0.032971 0.381130 0.485381 -0.057354
C8    C     C_R   0.521897 0.163662 0.513702 0.033818
C9    C     C_R   0.478845 0.835317 0.481543 0.038502
C10   C     C_R   0.385728 0.964533 0.470597 -0.092349
C11   C     C_R   0.395614 0.873228 0.468472 -0.138979
C12   C     C_1   0.477844 0.519814 0.886772 -0.032411
C13   C     C_R   0.552608 0.888590 0.497436 -0.112246
C14   C     C_R   0.542740 0.980233 0.502833 -0.006439
C15   C     C_R   0.458710 0.018673 0.488471 0.056389
C16   C     C_R   0.513108 0.259807 0.513002 0.550726
C17   C     C_R   0.449005 0.110379 0.493115 0.377974
C18   C     C_R   0.604313 0.125050 0.530345 -0.175316
C19   C     C_R   0.614932 0.033859 0.524130 -0.147638
C20   C     C_R   0.486393 0.739777 0.486347 0.500624
C21   C     C_R   0.512767 0.488519 0.277267 0.502823
C22   C     C_R   0.487233 0.511347 0.722719 0.506691
C23   C     C_1   0.522185 0.479645 0.113237 -0.030175
C24   C     C_1   0.517946 0.483627 0.188167 0.032270
C25   C     C_2   0.526942 0.475199 0.023693 -0.112678
C26   C     C_2   0.473059 0.524177 0.976318 -0.115143
C27   C     C_1   0.482083 0.515978 0.811835 0.029097
C28   C     C_R   0.163699 0.474461 0.489527 0.029523
C29   C     C_R   0.835547 0.521804 0.515947 0.055506
C30   C     C_R   0.966395 0.614119 0.521069 -0.131825
C31   C     C_R   0.874866 0.605400 0.523098 -0.178225
C32   C     C_R   0.887658 0.446323 0.505845 0.375027
F1    F     F_    0.174508 0.317962 0.465760 -0.569033
F2    F     F_    0.848473 0.365803 0.497018 -0.634416
F3    F     F_    0.368552 0.147668 0.479035 -0.588066
H1    H     H_    0.424961 0.567955 0.004546 0.142299
H2    H     H_    0.004119 0.315928 0.478199 0.203239
H3    H     H_    0.834487 0.663903 0.530239 0.126612
H4    H     H_    0.661088 0.165744 0.545797 0.169911
H5    H     H_    0.320748 0.992351 0.459861 0.189661
H6    H     H_    0.679411 0.005319 0.535993 0.136107
H7    H     H_    0.338226 0.831913 0.456878 0.124829
H8    H     H_    0.616432 0.858393 0.509181 0.114273
H9    H     H_    0.575050 0.431428 0.995471 0.146041
H10   H     H_    0.141212 0.612950 0.512233 0.137739
H11   H     H_    0.995747 0.679253 0.527211 0.132139
O1    O     O_3   0.500000 0.500000 0.500000 -0.466018
O2    O     O_R   0.461330 0.435620 0.316920 -0.533164
O3    O     O_R   0.434750 0.558200 0.677930 -0.532866
O4    O     O_R   0.559650 0.545720 0.316320 -0.533755
O5    O     O_R   0.544270 0.460460 0.688830 -0.536236
O6    O     O_R   0.559890 0.307360 0.561630 -0.545607
O7    O     O_R   0.434610 0.697530 0.534530 -0.541758
O8    O     O_R   0.307380 0.433810 0.444990 -0.461869
O9    O     O_R   0.698130 0.561300 0.458860 -0.549507
O10   O     O_R   0.296270 0.542620 0.535390 -0.560319
O11   O     O_R   0.698230 0.462280 0.560770 -0.496326
O12   O     O_R   0.461480 0.296280 0.460320 -0.461178
O13   O     O_R   0.544020 0.698820 0.443520 -0.541899
Zn1   Zn    Zn3+2 0.574310 0.433680 0.576480 0.985171
Zn2   Zn    Zn3+2 0.433700 0.417860 0.431740 1.039471
Zn3   Zn    Zn3+2 0.574160 0.575160 0.430870 0.947424
Zn4   Zn    Zn3+2 0.417840 0.573310 0.560900 0.944889

loop_
_geom_bond_atom_site_label_1
_geom_bond_atom_site_label_2
_ccdc_geom_bond_type
C4    O11   A    
O1    Zn2   S    
C1    C28   S    
C1    O8    A    
C6    F1    S    
C6    C7    A    
O3    Zn4   S    
O8    Zn2   S    
C3    C30   A    
C5    C28   A    
C9    C11   A    
C9    C20   S    
C8    C17   A    
C31   H3    S    
C23   C24   T    
C21   O2    A    
O1    Zn3   S    
O1    Zn1   S    
C2    C3    A    
C7    H2    S    
O10   Zn4   S    
C8    C16   S    
C16   O12   A    
C13   C14   A    
C20   O13   A    
O7    Zn4   S    
O2    Zn2   S    
C30   C31   A    
O12   Zn2   S    
C22   O3    A    
C25   H9    S    
C2    C32   A    
C21   O4    A    
C1    O10   A    
C29   C32   A    
C10   C15   A    
C23   C25   S    
C4    O9    A    
O1    Zn4   S    
C22   C27   S    
O4    Zn3   S    
C8    C18   A    
C10   C11   A    
C12   C27   T    
C10   H5    S    
O9    Zn3   S    
C19   H6    S    
C13   H8    S    
C17   F3    S    
C11   H7    S    
C29   C31   A    
C18   C19   A    
C21   C24   S    
C26   H1    S    
C15   C17   A    
C18   H4    S    
C9    C13   A    
C14   C15   A    
C22   O5    A    
O11   Zn1   S    
O5    Zn1   S    
O6    Zn1   S    
C2    C7    A    
C3    C5    A    
C25   C26   D    
C5    H10   S    
C14   C19   A    
C30   H11   S    
C6    C28   A    
C4    C29   S    
C16   O6    A    
C12   C26   S    
C20   O7    A    
O13   Zn3   S    
C32   F2    S    
