data_mof_unit_50812.cif
_audit_creation_date              2012-12-10T21:26:08-0500
_audit_creation_method            fapswitch 2.2
_symmetry_space_group_name_H-M    P1
_symmetry_Int_Tables_number       1
_space_group_crystal_system       triclinic
_cell_length_a                    8.687076
_cell_length_b                    16.199485
_cell_length_c                    16.818124
_cell_angle_alpha                 84.93671
_cell_angle_beta                  93.363119
_cell_angle_gamma                 98.230586
_cell_volume                      2330.68733987

loop_
_atom_site_label
_atom_site_type_symbol
_atom_type_description
_atom_site_fract_x
_atom_site_fract_y
_atom_site_fract_z
_atom_type_partial_charge
C1    C     C_R   0.493370 0.486863 0.652567 0.939658
C2    C     C_R   0.371825 0.153491 0.431219 -0.193809
C3    C     C_R   0.617518 0.757623 0.565410 0.456790
C4    C     C_R   0.385062 0.242604 0.433669 0.471398
C5    C     C_R   0.798554 0.520494 0.498011 0.930261
C6    C     C_R   0.201478 0.479564 0.502316 0.916704
C7    C     C_2   0.958236 0.529662 0.482444 -0.130579
C8    C     C_2   0.041892 0.470743 0.518312 -0.138324
C9    C     C_R   0.467606 0.473718 0.737628 -0.164547
C10   C     C_R   0.514525 0.522511 0.259314 -0.163981
C11   C     C_R   0.360656 0.516990 0.772023 -0.024644
C12   C     C_R   0.505199 0.512654 0.346716 0.919091
C13   C     C_R   0.579027 0.463075 0.218082 0.005770
C14   C     C_R   0.353783 0.510886 0.854689 -0.274950
C15   C     C_R   0.565466 0.468823 0.135277 -0.291720
C16   C     C_R   0.443238 0.458681 0.902215 0.228918
C17   C     C_R   0.490214 0.530685 0.092256 0.235901
C18   C     C_R   0.531850 0.406997 0.868059 0.322168
C19   C     C_R   0.442808 0.594438 0.131153 0.319281
C20   C     C_R   0.551855 0.417870 0.785002 0.294468
C21   C     C_R   0.448060 0.588706 0.215680 0.274043
C22   C     C_3   0.022855 0.600730 0.420953 -0.424653
C23   C     C_R   0.438457 0.763992 0.453310 0.392318
C24   C     C_3   0.903500 0.645040 0.367488 -0.329509
C25   C     C_3   0.979244 0.696839 0.296309 -0.808334
C26   C     C_3   0.977369 0.399848 0.579936 -0.419901
C27   C     C_3   0.097934 0.356810 0.633521 -0.326746
C28   C     C_3   0.024779 0.305986 0.705812 -0.824013
C29   C     C_3   0.658586 0.390640 0.257660 -0.353708
C30   C     C_3   0.814178 0.420950 0.300466 -0.352826
C31   C     C_3   0.893098 0.347784 0.338424 -0.828130
C32   C     C_3   0.249132 0.567737 0.723175 -0.359422
C33   C     C_3   0.306536 0.661684 0.722150 -0.318097
C34   C     C_R   0.563271 0.236533 0.546430 0.297103
C35   C     C_3   0.206384 0.711943 0.664260 -0.860181
C36   C     C_3   0.753775 0.893890 0.622530 -0.343039
C37   C     C_3   0.679150 0.924484 0.693245 -0.274599
C38   C     C_3   0.634247 0.854741 0.758060 -0.895745
C39   C     C_3   0.262198 0.107661 0.370720 -0.365752
C40   C     C_3   0.340328 0.109007 0.291014 -0.356634
C41   C     C_3   0.232807 0.061071 0.230624 -0.826893
C42   C     C_R   0.454530 0.851171 0.450567 0.344085
C43   C     C_R   0.556318 0.149091 0.545633 0.361694
C44   C     C_R   0.547310 0.894090 0.509886 0.014876
C45   C     C_R   0.461887 0.106698 0.486861 0.122713
C46   C     C_R   0.634509 0.846983 0.566670 -0.107445
H1    H     H_    0.612765 0.423742 0.103201 0.203741
H2    H     H_    0.983800 0.348270 0.745883 0.262107
H3    H     H_    0.926058 0.259512 0.686660 0.293998
H4    H     H_    0.113338 0.272123 0.739792 0.248195
H5    H     H_    0.150353 0.313299 0.599105 0.255541
H6    H     H_    0.190950 0.404099 0.655795 0.208549
H7    H     H_    0.903158 0.425999 0.620355 0.236219
H8    H     H_    0.906961 0.350419 0.546527 0.245344
H9    H     H_    0.916895 0.307109 0.292058 0.254144
H10   H     H_    0.005366 0.372080 0.368711 0.276680
H11   H     H_    0.817942 0.310206 0.383530 0.254495
H12   H     H_    0.278153 0.546526 0.882466 0.193135
H13   H     H_    0.892983 0.459314 0.257410 0.227957
H14   H     H_    0.794513 0.459943 0.348216 0.227374
H15   H     H_    0.580107 0.348846 0.298071 0.236819
H16   H     H_    0.683667 0.349080 0.212195 0.190913
H17   H     H_    0.211473 0.693572 0.602455 0.267863
H18   H     H_    0.083477 0.701184 0.681989 0.274074
H19   H     H_    0.250603 0.779685 0.665006 0.244809
H20   H     H_    0.303525 0.682710 0.783121 0.223390
H21   H     H_    0.428495 0.674291 0.703427 0.252124
H22   H     H_    0.231791 0.549137 0.661159 0.205673
H23   H     H_    0.073992 0.744753 0.316976 0.315267
H24   H     H_    0.132216 0.554136 0.748879 0.198659
H25   H     H_    0.614318 0.301632 0.887562 0.343331
H26   H     H_    0.410172 0.710740 0.114591 0.345465
H27   H     H_    0.739931 0.365103 0.789541 0.338254
H28   H     H_    0.297119 0.665566 0.222453 0.348153
H29   H     H_    0.664507 0.334543 0.593277 0.406867
H30   H     H_    0.334420 0.666612 0.406859 0.391021
H31   H     H_    0.703966 0.140542 0.638362 0.374014
H32   H     H_    0.458207 0.941540 0.367988 0.336415
H33   H     H_    0.542064 0.807624 0.734362 0.259613
H34   H     H_    0.026651 0.655607 0.257367 0.254997
H35   H     H_    0.737182 0.824463 0.780224 0.260101
H36   H     H_    0.588113 0.881248 0.808971 0.263135
H37   H     H_    0.764022 0.973426 0.720266 0.220728
H38   H     H_    0.573780 0.953232 0.672472 0.275855
H39   H     H_    0.848733 0.857356 0.644234 0.188762
H40   H     H_    0.815115 0.949337 0.587952 0.205611
H41   H     H_    0.202880 0.994612 0.253617 0.284893
H42   H     H_    0.124215 0.089798 0.218612 0.254609
H43   H     H_    0.292282 0.063130 0.173676 0.253480
H44   H     H_    0.372433 0.174403 0.265492 0.214383
H45   H     H_    0.890660 0.729190 0.260592 0.249444
H46   H     H_    0.449044 0.080034 0.300933 0.229036
H47   H     H_    0.226041 0.041627 0.393309 0.246451
H48   H     H_    0.151335 0.134702 0.362171 0.194123
H49   H     H_    0.724773 0.734607 0.667885 0.322221
H50   H     H_    0.257198 0.262423 0.335744 0.319291
H51   H     H_    0.809548 0.598974 0.343875 0.204331
H52   H     H_    0.851259 0.688237 0.402357 0.257760
H53   H     H_    0.093770 0.649685 0.454695 0.246958
H54   H     H_    0.096585 0.574485 0.380350 0.226033
N1    N     N_2   0.451142 0.458971 0.985633 -0.131418
N2    N     N_2   0.466286 0.530884 0.008545 -0.118150
N3    N     N_R   0.519180 0.718290 0.509780 -0.208233
N4    N     N_R   0.480820 0.281710 0.490220 -0.182792
N5    N     N_2   0.563296 0.983723 0.511398 -0.084279
N6    N     N_2   0.446680 0.017010 0.485245 -0.120760
O1    O     O_R   0.493140 0.422050 0.612640 -0.602785
O2    O     O_3   0.388253 0.659843 0.084950 -0.761051
O3    O     O_3   0.658229 0.379095 0.749208 -0.751736
O4    O     O_3   0.380470 0.643177 0.256805 -0.731222
O5    O     O_3   0.650158 0.274322 0.607330 -0.763301
O6    O     O_3   0.346158 0.727061 0.393823 -0.699762
O7    O     O_3   0.636201 0.103294 0.603356 -0.774574
O8    O     O_3   0.383989 0.892193 0.386195 -0.713398
O9    O     O_3   0.702124 0.708376 0.616953 -0.726857
O10   O     O_3   0.299713 0.292161 0.382566 -0.735541
O11   O     O_R   0.506860 0.577950 0.387360 -0.594286
O12   O     O_R   0.505450 0.562230 0.618920 -0.577070
O13   O     O_R   0.494550 0.437770 0.381080 -0.580030
O14   O     O_R   0.723530 0.446300 0.497600 -0.676909
O15   O     O_R   0.276470 0.553700 0.502400 -0.683042
O16   O     O_R   0.735850 0.586490 0.503880 -0.574427
O17   O     O_R   0.264150 0.413510 0.496120 -0.579942
O18   O     O_3   0.602789 0.349861 0.917977 -0.768541
Zn1   Zn    Zn3+2 0.491780 0.406400 0.495810 0.968571
Zn2   Zn    Zn3+2 0.508220 0.593600 0.504190 0.970063

loop_
_geom_bond_atom_site_label_1
_geom_bond_atom_site_label_2
_ccdc_geom_bond_type
C41   H43   S    
N1    N2    D    
C25   H34   S    
C8    C26   S    
C15   H1    S    
C21   O4    S    
C7    C8    D    
C44   N5    S    
C45   N6    S    
C23   O6    S    
C26   C27   S    
C37   C38   S    
C23   C42   A    
C24   H52   S    
C13   C29   S    
C36   C37   S    
C19   C21   A    
C30   C31   S    
C11   C14   A    
O17   Zn1   S    
C38   H33   S    
C35   H19   S    
C41   H41   S    
N3    Zn2   S    
C39   H47   S    
C33   C35   S    
C28   H4    S    
C2    C39   S    
C42   O8    S    
C23   N3    A    
N4    Zn1   S    
H26   O2    S    
C44   C46   A    
C30   H14   S    
C37   H38   S    
C36   C46   S    
C35   H18   S    
C31   H10   S    
O11   Zn2   S    
C18   C20   A    
C32   H22   S    
C19   O2    S    
C10   C21   A    
C38   H36   S    
C34   O5    S    
H32   O8    S    
C42   C44   A    
C6    O17   A    
H31   O7    S    
C26   H8    S    
C27   H5    S    
C33   H20   S    
C2    C45   A    
C14   H12   S    
C29   H15   S    
C25   H45   S    
C22   H54   S    
C5    O14   A    
C24   H51   S    
H25   O18   S    
C1    C9    S    
C24   C25   S    
O1    Zn1   S    
H49   O9    S    
C39   C40   S    
C5    C7    S    
O14   Zn1   S    
C32   H24   S    
C36   H40   S    
C5    O16   A    
C34   N4    A    
C12   O11   A    
O16   Zn2   S    
C2    C4    A    
C17   N2    S    
C39   H48   S    
C29   C30   S    
C12   O13   A    
C9    C11   A    
C28   H3    S    
C9    C20   A    
H30   O6    S    
C30   H13   S    
C40   H46   S    
C43   C45   A    
C10   C12   S    
C1    O1    A    
O13   Zn1   S    
C40   C41   S    
C11   C32   S    
C13   C15   A    
C38   H35   S    
C22   C24   S    
C25   H23   S    
C26   H7    S    
C27   H6    S    
C33   H21   S    
C3    N3    A    
C15   C17   A    
C41   H42   S    
C29   H16   S    
C28   H2    S    
C22   H53   S    
C4    O10   S    
H50   O10   S    
C34   C43   A    
C10   C13   A    
H28   O4    S    
C6    C8    S    
H27   O3    S    
C36   H39   S    
C7    C22   S    
N5    N6    D    
C3    C46   A    
H29   O5    S    
C31   H9    S    
C32   C33   S    
C31   H11   S    
O15   Zn2   S    
C3    O9    S    
C43   O7    S    
C4    N4    A    
C17   C19   A    
C14   C16   A    
C1    O12   A    
C20   O3    S    
C16   N1    S    
C16   C18   A    
C27   C28   S    
C37   H37   S    
C35   H17   S    
O12   Zn2   S    
C6    O15   A    
C40   H44   S    
C18   O18   S    
