data_mof_unit_57747.cif
_audit_creation_date              2012-12-10T17:01:27-0500
_audit_creation_method            fapswitch 2.2
_symmetry_space_group_name_H-M    P1
_symmetry_Int_Tables_number       1
_space_group_crystal_system       triclinic
_cell_length_a                    12.825667
_cell_length_b                    10.70773
_cell_length_c                    10.060787
_cell_angle_alpha                 90.312952
_cell_angle_beta                  97.913606
_cell_angle_gamma                 90.793148
_cell_volume                      1368.35883466

loop_
_atom_site_label
_atom_site_type_symbol
_atom_type_description
_atom_site_fract_x
_atom_site_fract_y
_atom_site_fract_z
_atom_type_partial_charge
C1    C     C_R   0.507219 0.263354 0.501009 0.951755
C2    C     C_2   0.526990 0.133213 0.505371 -0.250556
C3    C     C_2   0.557716 0.575035 0.939437 0.439586
C4    C     C_R   0.298222 0.494947 0.472776 0.968646
C5    C     C_2   0.572842 0.551256 0.087604 -0.199173
C6    C     C_R   0.496251 0.737260 0.499320 0.802869
C7    C     C_R   0.701782 0.501760 0.527280 0.881447
C8    C     C_R   0.814210 0.498680 0.545660 -0.030435
C9    C     C_R   0.185317 0.490045 0.454143 -0.171806
C10   C     C_R   0.024716 0.580518 0.348841 -0.171257
C11   C     C_R   0.131643 0.564335 0.354011 -0.245539
C12   C     C_R   0.026861 0.454344 0.551619 0.031071
C13   C     C_R   0.131687 0.424099 0.545449 0.370178
C14   C     C_R   0.972824 0.529041 0.448986 0.120066
C15   C     C_R   0.866703 0.549601 0.446329 -0.216996
C16   C     C_R   0.868315 0.436124 0.654788 -0.194576
C17   C     C_R   0.974621 0.414241 0.658103 -0.104805
C18   C     C_2   0.528516 0.932529 0.402374 -0.194701
C19   C     C_2   0.482562 0.869548 0.494200 0.335219
C20   C     C_2   0.522082 0.066304 0.393014 -0.109187
H1    H     H_    0.824103 0.602306 0.364844 0.158264
H2    H     H_    0.571781 0.885122 0.331749 0.159033
H3    H     H_    0.512664 0.108652 0.294270 0.182468
H4    H     H_    0.715076 0.862165 0.996349 0.388440
H5    H     H_    0.309398 0.159568 0.610577 0.409448
H6    H     H_    0.383050 0.863073 0.624193 0.362174
H7    H     H_    0.545254 0.091134 0.603798 0.207348
H8    H     H_    0.472811 0.420582 0.890414 0.155719
H9    H     H_    0.642353 0.589238 0.148732 0.219310
H10   H     H_    0.431708 0.476216 0.089393 0.179820
H11   H     H_    0.827632 0.399341 0.733967 0.168727
H12   H     H_    0.983637 0.637862 0.270513 0.170619
H13   H     H_    0.014763 0.366604 0.744364 0.210407
H14   H     H_    0.173100 0.613079 0.282488 0.188862
N1    N     N_2   0.501130 0.501330 0.852280 -0.237681
N2    N     N_2   0.501160 0.501360 0.147950 -0.214763
O1    O     O_R   0.499980 0.319060 0.613040 -0.599986
O2    O     O_2   0.530818 0.806492 0.844399 -0.287767
O3    O     O_3   0.690590 0.780809 0.027918 -0.593582
O4    O     O_2   0.241589 0.340640 0.773938 -0.308852
O5    O     O_2   0.110629 0.195941 0.654497 -0.295820
O6    O     O_3   0.283383 0.232152 0.555722 -0.551042
O7    O     O_3   0.416305 0.927433 0.572604 -0.747033
O8    O     O_R   0.500020 0.319100 0.386900 -0.607382
O9    O     O_R   0.346340 0.499960 0.594380 -0.567588
O10   O     O_R   0.346380 0.500000 0.368250 -0.617180
O11   O     O_R   0.499980 0.680900 0.613100 -0.537442
O12   O     O_R   0.500020 0.680940 0.386960 -0.631681
O13   O     O_R   0.653620 0.500000 0.631750 -0.584818
O14   O     O_R   0.653660 0.500040 0.405620 -0.631002
O15   O     O_2   0.685134 0.695710 0.786580 -0.282478
S1    S     S_3+6 0.616245 0.716514 0.893361 0.045070
S2    S     S_3+6 0.191505 0.295620 0.637952 0.027265
Zn1   Zn    Zn3+2 0.499980 0.499970 0.650990 1.070450
Zn2   Zn    Zn3+2 0.500020 0.500030 0.349010 0.980868

loop_
_geom_bond_atom_site_label_1
_geom_bond_atom_site_label_2
_ccdc_geom_bond_type
H5    O6    S    
C12   C17   A    
O12   Zn2   S    
C3    S1    S    
C2    H7    S    
O10   Zn2   S    
H10   N2    S    
O9    Zn1   S    
C1    O8    A    
C5    H9    S    
O14   Zn2   S    
C20   H3    S    
C3    N1    D    
O3    S1    S    
C7    C8    S    
C8    C16   A    
N2    Zn2   S    
C4    O10   A    
N1    Zn1   S    
C6    C19   S    
C9    C11   A    
O8    Zn2   S    
O5    S2    D    
C6    O12   A    
C17   H13   S    
O11   Zn1   S    
O1    Zn1   S    
C6    O11   A    
C19   O7    S    
H6    O7    S    
C1    C2    S    
C8    C15   A    
C13   S2    S    
C4    O9    A    
O6    S2    S    
C16   C17   A    
O2    S1    D    
C10   C11   A    
C2    C20   D    
O13   Zn1   S    
C5    N2    D    
C10   H12   S    
C15   H1    S    
H4    O3    S    
C12   C13   A    
C7    O13   A    
C18   C20   S    
O4    S2    D    
C10   C14   A    
C7    O14   A    
C9    C13   A    
C14   C15   A    
C18   C19   D    
C3    C5    S    
C4    C9    S    
C18   H2    S    
C11   H14   S    
O15   S1    D    
H8    N1    S    
C12   C14   A    
C1    O1    A    
C16   H11   S    
