data_mof_unit_44276.cif
_audit_creation_date              2012-12-10T17:43:37-0500
_audit_creation_method            fapswitch 2.2
_symmetry_space_group_name_H-M    P1
_symmetry_Int_Tables_number       1
_space_group_crystal_system       triclinic
_cell_length_a                    14.891411
_cell_length_b                    10.709433
_cell_length_c                    9.900676
_cell_angle_alpha                 88.840455
_cell_angle_beta                  89.356876
_cell_angle_gamma                 91.897686
_cell_volume                      1577.64472844

loop_
_atom_site_label
_atom_site_type_symbol
_atom_type_description
_atom_site_fract_x
_atom_site_fract_y
_atom_site_fract_z
_atom_type_partial_charge
C1    C     C_R   0.508577 0.260442 0.502024 0.937937
C2    C     C_R   0.908898 0.595465 0.443468 0.048315
C3    C     C_R   0.952064 0.266043 0.561688 0.458514
C4    C     C_R   0.045373 0.271870 0.562220 -0.269363
C5    C     C_R   0.092578 0.382672 0.530022 0.077445
C6    C     C_R   0.046925 0.489595 0.488470 0.084787
C7    C     C_R   0.095791 0.600048 0.448962 0.062102
C8    C     C_R   0.051560 0.705503 0.404259 -0.236626
C9    C     C_R   0.958487 0.703929 0.400410 0.409334
C10   C     C_R   0.185553 0.387612 0.536393 -0.217740
C11   C     C_R   0.232145 0.497840 0.500361 -0.028548
C12   C     C_R   0.327244 0.499997 0.500497 0.849900
C13   C     C_R   0.188735 0.603114 0.454703 -0.217240
C14   C     C_R   0.509342 0.106180 0.761992 -0.087879
C15   C     C_R   0.472540 0.042200 0.874719 -0.140843
C16   C     C_R   0.424391 0.930371 0.858460 -0.139549
C17   C     C_R   0.421399 0.876394 0.731726 -0.137143
C18   C     C_R   0.466824 0.934801 0.619522 0.086782
C19   C     C_R   0.498638 0.058231 0.630218 0.040952
C20   C     C_R   0.519303 0.126738 0.508350 -0.167104
C21   C     C_R   0.534483 0.063742 0.387172 0.414877
C22   C     C_R   0.518183 0.937311 0.384161 -0.233298
C23   C     C_R   0.492130 0.739191 0.499255 0.901207
C24   C     C_R   0.485595 0.872450 0.498771 -0.184447
C25   C     C_R   0.381920 0.336327 0.145443 -0.207402
C26   C     C_R   0.323671 0.254858 0.078982 0.369905
C27   C     C_R   0.321021 0.257319 0.938110 0.141720
C28   C     C_R   0.380512 0.338093 0.865434 -0.305851
C29   C     C_R   0.441123 0.420156 0.930489 0.124717
C30   C     C_R   0.441349 0.419919 0.074853 0.085719
C31   C     C_R   0.556232 0.577945 0.069063 0.249108
C32   C     C_R   0.556241 0.576407 0.924981 -0.120920
C33   C     C_R   0.672798 0.498174 0.499222 0.965662
C34   C     C_R   0.816184 0.594071 0.445406 -0.251904
C35   C     C_R   0.768109 0.490640 0.496399 -0.170995
C36   C     C_R   0.809240 0.381335 0.540052 0.385323
C37   C     C_R   0.903728 0.375559 0.530177 -0.054836
C38   C     C_R   0.953028 0.486510 0.487018 -0.091449
H1    H     H_    0.779906 0.674902 0.411813 0.203829
H2    H     H_    0.549045 0.189980 0.781141 0.211455
H3    H     H_    0.479770 0.080894 0.974294 0.197078
H4    H     H_    0.392210 0.883222 0.944751 0.167316
H5    H     H_    0.384192 0.788505 0.722663 0.160246
H6    H     H_    0.533887 0.889167 0.292388 0.203242
H7    H     H_    0.378889 0.330280 0.252555 0.234324
H8    H     H_    0.378171 0.333149 0.758294 0.222240
H9    H     H_    0.602416 0.636453 0.866602 0.169683
H10   H     H_    0.081552 0.188345 0.586787 0.186139
H11   H     H_    0.221975 0.305869 0.567370 0.134289
H12   H     H_    0.227496 0.686887 0.424419 0.142759
H13   H     H_    0.089398 0.789574 0.372824 0.200591
N1    N     N_R   0.499150 0.498800 0.142780 -0.120124
N2    N     N_R   0.499120 0.498720 0.857170 -0.124160
O1    O     O_R   0.500000 0.316780 0.614690 -0.659213
O2    O     O_R   0.499990 0.316750 0.385360 -0.586850
O3    O     O_R   0.367850 0.499980 0.614680 -0.645618
O4    O     O_R   0.367840 0.499960 0.385350 -0.635585
O5    O     O_R   0.500010 0.683250 0.614640 -0.625974
O6    O     O_R   0.500000 0.683220 0.385310 -0.605030
O7    O     O_R   0.632160 0.500040 0.614650 -0.587726
O8    O     O_R   0.632150 0.500020 0.385320 -0.607594
Zn1   Zn    Zn3+2 0.500010 0.500020 0.653130 0.955990
Zn2   Zn    Zn3+2 0.499990 0.499980 0.346870 0.996075
N3    N     N_2   0.618022 0.657054 0.138653 -0.282487
H14   H     H_    0.675660 0.612744 0.165887 0.253910
C39   C     C_3   0.635494 0.781917 0.083588 -0.726416
H15   H     H_    0.670032 0.839563 0.160508 0.283622
H16   H     H_    0.571550 0.826418 0.056692 0.243270
H17   H     H_    0.680274 0.779474 0.993319 0.245774
Cl1   Cl    Cl    0.257891 0.145835 0.176004 -0.610832
N4    N     N_2   0.261043 0.175415 0.868643 -0.271480
H18   H     H_    0.283070 0.152682 0.773325 0.218865
C40   C     C_3   0.168651 0.213252 0.868933 -0.647969
H19   H     H_    0.163146 0.304219 0.814335 0.215484
H20   H     H_    0.142662 0.222526 0.973557 0.290396
H21   H     H_    0.126157 0.141458 0.818494 0.242883
Cl2   Cl    Cl    0.738819 0.259983 0.611906 -0.527471
Cl3   Cl    Cl    0.904602 0.114723 0.591658 -0.442665
Cl4   Cl    Cl    0.907376 0.841322 0.343004 -0.519501
Cl5   Cl    Cl    0.581783 0.135143 0.238978 -0.583932

loop_
_geom_bond_atom_site_label_1
_geom_bond_atom_site_label_2
_ccdc_geom_bond_type
O5    Zn1   S    
C23   O5    A    
C39   H16   S    
C25   H7    S    
C40   H19   S    
C35   C36   A    
C31   N1    A    
C7    C8    A    
C23   O6    A    
C28   H8    S    
C26   C27   A    
C29   C30   A    
C18   C24   A    
C36   C37   A    
C18   C19   A    
C36   Cl2   S    
C5    C6    A    
C39   H17   S    
C15   C16   A    
O7    Zn1   S    
C34   C35   A    
C9    Cl4   S    
O8    Zn2   S    
C33   C35   S    
C22   H6    S    
C19   C20   A    
C8    C9    A    
O2    Zn2   S    
C23   C24   S    
C6    C38   A    
C2    C34   A    
C39   H15   S    
C21   C22   A    
C40   H20   S    
C14   C19   A    
O4    Zn2   S    
C3    Cl3   S    
C34   H1    S    
C15   H3    S    
N4    C40   S    
C16   C17   A    
O1    Zn1   S    
C25   C26   A    
N3    C39   S    
C2    C9    A    
C1    O1    A    
C17   H5    S    
C37   C38   A    
N2    Zn1   S    
C2    C38   A    
C31   C32   A    
C17   C18   A    
C8    H13   S    
C12   O3    A    
C12   O4    A    
C33   O7    A    
C26   Cl1   S    
C40   H21   S    
C22   C24   A    
C3    C4    A    
C16   H4    S    
C32   N2    A    
C27   N4    S    
C4    H10   S    
C25   C30   A    
C30   N1    A    
C28   C29   A    
C1    C20   S    
C31   N3    S    
C4    C5    A    
N1    Zn2   S    
C11   C12   S    
C6    C7    A    
O6    Zn2   S    
N3    H14   S    
C1    O2    A    
C5    C10   A    
C11   C13   A    
C29   N2    A    
C21   Cl5   S    
C32   H9    S    
O3    Zn1   S    
C10   C11   A    
C14   H2    S    
C13   H12   S    
C7    C13   A    
N4    H18   S    
C20   C21   A    
C3    C37   A    
C33   O8    A    
C27   C28   A    
C14   C15   A    
C10   H11   S    
