data_mof_unit_5357.cif
_audit_creation_date              2012-12-10T17:53:19-0500
_audit_creation_method            fapswitch 2.2
_symmetry_space_group_name_H-M    P1
_symmetry_Int_Tables_number       1
_space_group_crystal_system       triclinic
_cell_length_a                    23.046562
_cell_length_b                    10.719184
_cell_length_c                    9.921026
_cell_angle_alpha                 90.576902
_cell_angle_beta                  90.297048
_cell_angle_gamma                 92.579106
_cell_volume                      2448.24788064

loop_
_atom_site_label
_atom_site_type_symbol
_atom_type_description
_atom_site_fract_x
_atom_site_fract_y
_atom_site_fract_z
_atom_type_partial_charge
C1    C     C_R   0.507506 0.262346 0.499789 0.894741
C2    C     C_R   0.969756 0.575556 0.230932 0.063458
C3    C     C_R   0.030891 0.577067 0.229127 -0.064815
C4    C     C_R   0.063114 0.603916 0.349100 -0.068018
C5    C     C_R   0.033620 0.642184 0.466268 -0.029461
C6    C     C_R   0.065275 0.676927 0.583861 -0.026536
C7    C     C_R   0.036589 0.720665 0.697627 -0.191175
C8    C     C_R   0.976090 0.722914 0.700511 0.117250
C9    C     C_R   0.123735 0.590383 0.358744 0.509031
C10   C     C_R   0.125290 0.664728 0.586407 0.516711
C11   C     C_R   0.229734 0.493971 0.568752 -0.090246
C12   C     C_R   0.389325 0.503003 0.499404 0.853380
C13   C     C_R   0.287790 0.463653 0.573427 -0.230923
C14   C     C_R   0.328508 0.531114 0.496107 -0.029430
C15   C     C_R   0.311387 0.629582 0.415193 -0.243977
C16   C     C_R   0.253582 0.660245 0.411071 -0.097298
C17   C     C_R   0.212617 0.592093 0.487199 0.306748
C18   C     C_R   0.771635 0.461408 0.509375 -0.035721
C19   C     C_R   0.711688 0.432518 0.513161 -0.096930
C20   C     C_R   0.672860 0.529243 0.500744 -0.133786
C21   C     C_R   0.693390 0.654485 0.486612 0.005640
C22   C     C_R   0.753127 0.682348 0.481451 0.161848
C23   C     C_R   0.496394 0.740348 0.501154 0.856643
C24   C     C_R   0.791905 0.586103 0.491883 0.219195
C25   C     C_R   0.551769 0.126633 0.735485 -0.186796
C26   C     C_R   0.547360 0.071240 0.861836 0.049552
C27   C     C_R   0.517300 0.956517 0.874113 -0.206301
C28   C     C_R   0.496185 0.893168 0.759230 -0.157991
C29   C     C_R   0.505631 0.942725 0.628255 0.079602
C30   C     C_R   0.525815 0.067370 0.620476 0.078841
C31   C     C_R   0.516498 0.130654 0.499259 -0.157689
C32   C     C_R   0.503142 0.066046 0.380276 -0.148351
C33   C     C_R   0.491904 0.940038 0.380931 0.084053
C34   C     C_R   0.610658 0.502242 0.500287 0.877935
C35   C     C_R   0.494732 0.875351 0.504699 -0.174129
C36   C     C_R   0.400296 0.400638 0.132759 -0.005860
C37   C     C_R   0.347864 0.405796 0.060094 0.020026
C38   C     C_R   0.350140 0.401331 0.920577 -0.150328
C39   C     C_R   0.403772 0.390186 0.858811 0.129042
C40   C     C_R   0.453282 0.444715 0.926404 0.092039
C41   C     C_R   0.452610 0.446288 0.070685 0.021353
C42   C     C_R   0.544519 0.554309 0.072374 0.167439
C43   C     C_R   0.544377 0.553630 0.929095 -0.167849
C44   C     C_R   0.882626 0.659362 0.591766 0.544079
C45   C     C_R   0.879402 0.592145 0.361466 0.550704
C46   C     C_R   0.940312 0.603812 0.351656 -0.026312
C47   C     C_R   0.972434 0.642201 0.467938 -0.091658
C48   C     C_R   0.943404 0.676869 0.587680 -0.033019
H1    H     H_    0.498289 0.114153 0.285579 0.194099
H2    H     H_    0.574692 0.216744 0.728007 0.172152
H3    H     H_    0.510157 0.915701 0.972398 0.148101
H4    H     H_    0.469814 0.809356 0.776989 0.182606
H5    H     H_    0.310664 0.374238 0.866221 0.170293
H6    H     H_    0.580286 0.598428 0.875603 0.157432
H7    H     H_    0.061238 0.751900 0.785935 0.190499
H8    H     H_    0.197850 0.440162 0.626398 0.146865
H9    H     H_    0.300658 0.386034 0.633682 0.135815
H10   H     H_    0.342855 0.682907 0.355735 0.149802
H11   H     H_    0.240410 0.735839 0.347840 0.151476
N1    N     N_R   0.852845 0.615050 0.481046 -0.349549
N2    N     N_R   0.152618 0.618329 0.476629 -0.357107
N3    N     N_R   0.499460 0.498800 0.142780 -0.103826
N4    N     N_R   0.499440 0.498720 0.857170 -0.118661
O1    O     O_R   0.500000 0.316780 0.614690 -0.648187
O2    O     O_2   0.846458 0.555188 0.254245 -0.516257
O3    O     O_2   0.153642 0.545316 0.253797 -0.549149
O4    O     O_2   0.156212 0.696754 0.698459 -0.547150
O5    O     O_R   0.500000 0.316750 0.385360 -0.608044
O6    O     O_R   0.416160 0.499970 0.614690 -0.614480
O7    O     O_R   0.416150 0.499950 0.385360 -0.623683
O8    O     O_R   0.500000 0.683250 0.614640 -0.625739
O9    O     O_R   0.500000 0.683220 0.385310 -0.621185
O10   O     O_R   0.583850 0.500050 0.614640 -0.621471
O11   O     O_R   0.583840 0.500030 0.385310 -0.584867
O12   O     O_2   0.853209 0.681939 0.706030 -0.526637
Zn1   Zn    Zn3+2 0.500000 0.500020 0.653130 0.934150
Zn2   Zn    Zn3+2 0.500000 0.499980 0.346870 0.964856
N5    N     N_3   0.937494 0.543191 0.110165 -0.356983
H12   H     H_    0.948143 0.453749 0.078588 0.198238
H13   H     H_    0.949365 0.606751 0.034978 0.203523
C49   C     C_1   0.690000 0.304188 0.527296 0.175450
N6    N     N_1   0.672737 0.201758 0.538327 -0.204519
N7    N     N_3   0.654190 0.754542 0.477536 -0.461695
H14   H     H_    0.627358 0.739055 0.393262 0.211934
H15   H     H_    0.628316 0.754053 0.563796 0.198223
N8    N     N_3   0.775215 0.808303 0.463981 -0.427462
H16   H     H_    0.760327 0.862692 0.543607 0.222212
H17   H     H_    0.758197 0.841877 0.374145 0.210335
C50   C     C_1   0.570123 0.136213 0.979830 0.141470
N9    N     N_1   0.588297 0.188621 0.074618 -0.189812
N10   N     N_3   0.473444 0.883501 0.255107 -0.463241
H18   H     H_    0.506920 0.832739 0.214374 0.211195
H19   H     H_    0.435816 0.827060 0.269238 0.202883
N11   N     N_3   0.591470 0.616749 0.143835 -0.403201
H20   H     H_    0.593995 0.709945 0.113469 0.153055
H21   H     H_    0.629939 0.575995 0.115101 0.195090
C51   C     C_1   0.059023 0.551883 0.101792 0.252638
N12   N     N_1   0.081164 0.531967 0.999816 -0.150068
C52   C     C_1   0.399686 0.301365 0.229876 0.246799
N13   N     N_1   0.395900 0.220111 0.305713 -0.235395
N14   N     N_3   0.292404 0.388451 0.123943 -0.410273
H22   H     H_    0.290111 0.454551 0.201568 0.226754
H23   H     H_    0.289062 0.299625 0.166435 0.195989
N15   N     N_3   0.407965 0.276750 0.782569 -0.455881
H24   H     H_    0.400213 0.289792 0.680327 0.222270
H25   H     H_    0.447171 0.235051 0.801861 0.220027
N16   N     N_3   0.948193 0.772076 0.817754 -0.385306
H26   H     H_    0.931070 0.856960 0.790426 0.217484
H27   H     H_    0.978388 0.792915 0.894677 0.163171
C53   C     C_1   0.812824 0.364011 0.522446 0.223936
N17   N     N_1   0.845787 0.286315 0.532853 -0.185706

loop_
_geom_bond_atom_site_label_1
_geom_bond_atom_site_label_2
_ccdc_geom_bond_type
C12   O6    A    
C8    N16   S    
C45   N1    A    
N14   H22   S    
C11   C13   A    
N3    Zn2   S    
C19   C20   A    
C7    H7    S    
N15   H25   S    
C51   N12   T    
C43   N4    A    
C7    C8    A    
C10   O4    S    
C2    C46   A    
C26   C50   S    
C5    C47   A    
C26   C27   A    
C37   C38   A    
C40   N4    A    
C18   C24   A    
C22   C24   A    
C28   C29   A    
C33   N10   S    
C30   C31   A    
C33   C35   A    
N8    H17   S    
C13   H9    S    
N4    Zn1   S    
C15   C16   A    
C1    C31   S    
C1    O5    A    
O6    Zn1   S    
C18   C19   A    
C25   H2    S    
O9    Zn2   S    
C17   N2    S    
C53   N17   T    
N7    H14   S    
C16   C17   A    
O11   Zn2   S    
N16   H26   S    
C13   C14   A    
C42   N3    A    
C20   C34   S    
N14   H23   S    
C42   N11   S    
C21   C22   A    
O7    Zn2   S    
N16   H27   S    
C36   C41   A    
C41   N3    A    
N15   H24   S    
C27   H3    S    
C49   N6    T    
C38   C39   A    
O5    Zn2   S    
C23   O8    A    
C39   N15   S    
N10   H18   S    
N5    H12   S    
C25   C26   A    
C45   C46   A    
C16   H11   S    
C44   O12   S    
C8    C48   A    
C29   C30   A    
C2    N5    S    
N10   H19   S    
C3    C51   S    
C43   H6    S    
C47   C48   A    
C24   N1    S    
O1    Zn1   S    
N11   H21   S    
C34   O11   A    
C40   C41   A    
N7    H15   S    
C12   C14   S    
C23   C35   S    
C45   O2    S    
C15   H10   S    
C9    N2    A    
C10   N2    A    
C42   C43   A    
C3    C4    A    
C1    O1    A    
O8    Zn1   S    
C39   C40   A    
C25   C30   A    
C12   O7    A    
C46   C47   A    
C11   C17   A    
N8    H16   S    
C23   O9    A    
C31   C32   A    
C18   C53   S    
C4    C5    A    
C6    C10   A    
C6    C7    A    
C29   C35   A    
C52   N13   T    
C32   C33   A    
C2    C3    A    
C50   N9    T    
C9    O3    S    
C37   N14   S    
C28   H4    S    
C5    C6    A    
C38   H5    S    
C44   N1    A    
O10   Zn1   S    
C36   C52   S    
N5    H13   S    
C22   N8    S    
N11   H20   S    
C32   H1    S    
C34   O10   A    
C20   C21   A    
C36   C37   A    
C21   N7    S    
C14   C15   A    
C4    C9    A    
C19   C49   S    
C11   H8    S    
C44   C48   A    
C27   C28   A    
