data_mof_unit_60495.cif
_audit_creation_date              2013-03-05T16:51:10-0500
_audit_creation_method            fapswitch 2.2
_symmetry_space_group_name_H-M    P1
_symmetry_Int_Tables_number       1
_space_group_crystal_system       triclinic
_cell_length_a                    15.792273
_cell_length_b                    15.07104
_cell_length_c                    10.669053
_cell_angle_alpha                 90.085391
_cell_angle_beta                  90.030273
_cell_angle_gamma                 89.985136
_cell_volume                      2539.29513492

loop_
_atom_site_label
_atom_site_type_symbol
_atom_site_description
_atom_site_fract_x
_atom_site_fract_y
_atom_site_fract_z
_atom_type_partial_charge
O1    O     O_R   0.378020 0.573650 0.500000 -0.594047
O2    O     O_R   0.378020 0.426350 0.500000 -0.596769
C1    C     C_R   0.338673 0.500020 0.500600 0.897473
O3    O     O_R   0.499990 0.573670 0.314770 -0.637966
O4    O     O_R   0.499990 0.426330 0.314770 -0.578970
C2    C     C_R   0.500379 0.500087 0.257058 1.003531
Zn1   Zn    Zn3+2 0.500000 0.598370 0.499960 1.075049
Zn2   Zn    Zn3+2 0.500000 0.401630 0.499960 1.076704
O5    O     O_R   0.621980 0.573680 0.499940 -0.609415
O6    O     O_R   0.621980 0.426320 0.499940 -0.611081
O7    O     O_R   0.500010 0.573660 0.685180 -0.541813
O8    O     O_R   0.500010 0.426340 0.685180 -0.589304
C3    C     C_R   0.661325 0.499992 0.499989 0.922672
C4    C     C_R   0.499627 0.500277 0.742922 1.014186
C5    C     C_3   0.500631 0.597702 0.072265 -0.532529
C6    C     C_3   0.419288 0.453967 0.072807 -0.557776
H1    H     H_    0.557494 0.633680 0.107508 0.249346
H2    H     H_    0.415131 0.385225 0.110358 0.250574
H3    H     H_    0.444051 0.633875 0.108176 0.226317
H4    H     H_    0.362293 0.490162 0.107006 0.209008
C7    C     C_3   0.499986 0.598694 0.929611 1.117514
C8    C     C_3   0.419666 0.451440 0.928741 1.131100
H5    H     H_    0.637976 0.488171 0.892021 0.234161
H6    H     H_    0.583450 0.384484 0.889663 0.252607
C9    C     C_3   0.580501 0.451446 0.070989 1.164721
C10   C     C_3   0.500527 0.500511 0.121003 -0.325120
C11   C     C_3   0.499517 0.501146 0.879088 -0.393732
C12   C     C_3   0.580412 0.453463 0.926881 -0.607041
C13   C     C_R   0.955871 0.581505 0.539818 -0.199444
C14   C     C_R   0.955871 0.420736 0.552714 -0.202590
H7    H     H_    0.920592 0.642990 0.532234 0.201377
H8    H     H_    0.920585 0.359061 0.555013 0.200524
C15   C     C_R   0.913078 0.500866 0.539673 0.030001
C16   C     C_R   0.043905 0.419828 0.561078 0.279555
C17   C     C_R   0.043887 0.583051 0.547982 0.278866
C18   C     C_R   0.087727 0.501414 0.554077 -0.105746
C19   C     C_1   0.824472 0.500313 0.523942 0.030994
C20   C     C_1   0.176349 0.500648 0.534354 0.138289
C21   C     C_1   0.250587 0.500176 0.516760 -0.026018
C22   C     C_1   0.749802 0.500039 0.511174 -0.109925
H9    H     H_    0.435518 0.081704 0.322138 0.162170
H10   H     H_    0.435518 0.917948 0.322139 0.158202
C23   C     C_R   0.463834 0.953024 0.400296 -0.125884
C24   C     C_R   0.463834 0.046780 0.400295 -0.110931
C25   C     C_R   0.499968 0.905037 0.500012 0.048886
C26   C     C_R   0.499970 0.094959 0.500009 0.050545
C27   C     C_R   0.536087 0.953215 0.599740 -0.111306
C28   C     C_R   0.536090 0.046971 0.599737 -0.125327
H11   H     H_    0.564404 0.918288 0.677895 0.167569
H12   H     H_    0.564410 0.082046 0.677890 0.159797
C29   C     C_1   0.499997 0.807170 0.499986 0.135990
C30   C     C_1   0.499998 0.192829 0.499983 0.138342
N1    N     N_1   0.500020 0.270550 0.499960 -0.064504
N2    N     N_1   0.500020 0.729450 0.499960 -0.065175
F1    F     F_    0.428938 0.644540 0.888471 -0.590180
F2    F     F_    0.346392 0.490746 0.883289 -0.601038
F3    F     F_    0.571362 0.643576 0.887634 -0.638072
F4    F     F_    0.420192 0.363577 0.889515 -0.613823
F5    F     F_    0.653299 0.492211 0.115699 -0.648600
F6    F     F_    0.581064 0.363802 0.110748 -0.624580
N3    N     N_R   0.087526 0.667096 0.546273 0.223691
O9    O     O_R   0.158334 0.677606 0.606962 -0.323830
O10   O     O_R   0.052164 0.736179 0.495171 -0.335520
N4    N     N_R   0.087570 0.336185 0.572871 0.223711
O11   O     O_R   0.158529 0.330786 0.634479 -0.320176
O12   O     O_R   0.052119 0.263317 0.533550 -0.335240

loop_
_geom_bond_atom_site_label_1
_geom_bond_atom_site_label_2
_geom_bond_distance
_ccdc_geom_bond_type
Zn2   N1    1.975513 S    
C8    F4    1.388181 S    
O4    Zn2   2.011110 S    
Zn1   O7    2.011450 S    
C23   C24   1.412993 A    
C7    F3    1.389431 S    
C9    F6    1.387957 S    
C26   C30   1.475005 S    
C4    C11   1.452804 S    
H6    C12   1.113316 S    
C13   C17   1.392842 A    
C17   C18   1.413175 A    
C14   C15   1.390842 A    
Zn1   O5    1.961856 S    
C6    H4    1.113700 S    
Zn2   O8    2.010360 S    
C29   N2    1.171318 T    
N4    O11   1.301445 A    
N3    O9    1.301434 A    
C13   H7    1.084219 S    
C18   C20   1.415428 S    
O2    C1    1.272204 A    
C7    C11   1.565123 S    
C1    C21   1.401801 S    
C27   H11   1.083120 S    
O1    Zn1   1.962132 S    
H5    C12   1.113350 S    
C9    C12   1.537847 S    
C14   H8    1.084194 S    
C23   C25   1.407812 A    
C2    C10   1.451613 S    
C17   N3    1.442303 S    
O3    Zn1   2.010019 S    
C28   H12   1.083110 S    
H9    C24   1.083110 S    
C24   C26   1.407816 A    
C16   N4    1.442329 S    
C19   C22   1.186980 T    
C16   C18   1.413220 A    
C8    C11   1.560248 S    
C25   C27   1.407810 A    
C6    C10   1.549554 S    
O4    C2    1.271552 A    
O7    C4    1.266781 A    
C26   C28   1.407825 A    
O3    C2    1.267655 A    
H10   C23   1.083114 S    
C14   C16   1.393126 A    
O5    C3    1.272420 A    
C3    C22   1.402276 S    
C13   C15   1.390728 A    
O8    C4    1.272474 A    
C5    C7    1.522104 S    
C20   C21   1.187438 T    
C30   N1    1.171338 T    
C6    H2    1.113303 S    
O2    Zn2   1.961942 S    
C11   C12   1.551891 S    
C5    H1    1.114036 S    
C25   C29   1.474966 S    
C7    F1    1.388864 S    
C8    F2    1.387444 S    
C9    F5    1.387667 S    
Zn1   N2    1.975514 S    
O1    C1    1.271985 A    
C9    C10   1.557453 S    
C5    H3    1.114393 S    
Zn2   O6    1.962046 S    
C15   C19   1.409257 S    
C27   C28   1.413002 A    
N3    O10   1.301608 A    
C6    C8    1.537483 S    
C5    C10   1.555061 S    
O6    C3    1.272490 A    
N4    O12   1.301604 A    
