data_mof_unit_26098.cif
_audit_creation_date              2012-12-11T15:53:36-0500
_audit_creation_method            fapswitch 2.2
_symmetry_space_group_name_H-M    P1
_symmetry_Int_Tables_number       1
_space_group_crystal_system       triclinic
_cell_length_a                    6.930912
_cell_length_b                    14.552853
_cell_length_c                    15.965876
_cell_angle_alpha                 90.473877
_cell_angle_beta                  89.957112
_cell_angle_gamma                 89.948251
_cell_volume                      1610.33459831

loop_
_atom_site_label
_atom_site_type_symbol
_atom_type_description
_atom_site_fract_x
_atom_site_fract_y
_atom_site_fract_z
_atom_type_partial_charge
O1    O     O_R   0.361600 0.167310 0.164620 -0.544254
O2    O     O_R   0.638400 0.832690 0.835380 -0.544255
O3    O     O_R   0.691080 0.157570 0.338750 -0.545808
O4    O     O_R   0.308920 0.842430 0.661250 -0.545808
O5    O     O_R   0.861410 0.336420 0.339360 -0.540267
O6    O     O_R   0.138590 0.663580 0.660640 -0.540267
C1    C     C_R   0.522025 0.135201 0.367484 0.688221
C2    C     C_R   0.477975 0.864799 0.632516 0.688221
O7    O     O_R   0.691320 0.156280 0.165240 -0.545945
O8    O     O_R   0.308680 0.843720 0.834760 -0.545945
O9    O     O_R   0.861640 0.335130 0.164600 -0.542937
O10   O     O_R   0.138360 0.664870 0.835400 -0.542937
C3    C     C_R   0.522336 0.133796 0.136069 0.681097
C4    C     C_R   0.477664 0.866204 0.863930 0.681098
O11   O     O_R   0.361370 0.168600 0.339370 -0.545160
O12   O     O_R   0.638630 0.831400 0.660630 -0.545160
O13   O     O_3   0.527990 0.310540 0.251980 -0.361810
O14   O     O_3   0.472010 0.689460 0.748020 -0.361810
V1    V     V_3+5 0.802830 0.240980 0.251990 1.424139
V2    V     V_3+5 0.197170 0.759020 0.748010 1.424139
O15   O     O_R   0.191360 0.346160 0.165220 -0.541061
O16   O     O_R   0.808640 0.653840 0.834780 -0.541061
C5    C     C_R   0.022299 0.368234 0.136053 0.701176
C6    C     C_R   0.977701 0.631766 0.863946 0.701176
O17   O     O_R   0.191130 0.347440 0.338740 -0.529118
O18   O     O_R   0.808870 0.652560 0.661260 -0.529118
C7    C     C_R   0.021944 0.369503 0.367617 0.772238
C8    C     C_R   0.978056 0.630497 0.632383 0.772238
V3    V     V_3+5 0.302840 0.262750 0.251990 1.453044
V4    V     V_3+5 0.697160 0.737250 0.748010 1.453044
O19   O     O_3   0.027820 0.193180 0.251990 -0.379687
O20   O     O_3   0.972180 0.806820 0.748010 -0.379687
C9    C     C_3   0.820326 0.472780 0.478984 -0.247046
C10   C     C_3   0.179674 0.527220 0.521016 -0.247046
C11   C     C_3   0.915856 0.462330 0.565650 0.708937
C12   C     C_3   0.084144 0.537670 0.434350 0.708937
H1    H     H_    0.672229 0.449812 0.462626 0.162245
H2    H     H_    0.327771 0.550188 0.537374 0.162245
C13   C     C_3   0.989961 0.561389 0.562020 -0.191391
C14   C     C_3   0.010039 0.438610 0.437980 -0.191390
C15   C     C_3   0.895921 0.573269 0.475062 -0.281228
C16   C     C_3   0.104079 0.426731 0.524938 -0.281228
H3    H     H_    0.812038 0.633953 0.454276 0.157902
H4    H     H_    0.187962 0.366047 0.545724 0.157902
C17   C     C_R   0.820600 0.525021 0.967238 -0.133677
C18   C     C_R   0.179400 0.474979 0.032761 -0.133676
H5    H     H_    0.679845 0.543251 0.943111 0.119509
H6    H     H_    0.320155 0.456749 0.056889 0.119509
C19   C     C_R   0.831619 0.461990 0.032944 -0.138643
C20   C     C_R   0.168381 0.538010 0.967056 -0.138643
H7    H     H_    0.698807 0.433478 0.057203 0.120222
H8    H     H_    0.301193 0.566522 0.942797 0.120222
C21   C     C_R   0.011178 0.436064 0.066686 -0.043099
C22   C     C_R   0.988822 0.563936 0.933314 -0.043099
C23   C     C_R   0.679431 0.025856 0.467820 -0.142040
C24   C     C_R   0.320569 0.974144 0.532180 -0.142040
H9    H     H_    0.820141 0.044646 0.443985 0.117063
H10   H     H_    0.179859 0.955354 0.556015 0.117063
C25   C     C_R   0.668536 0.960697 0.531593 -0.142941
C26   C     C_R   0.331464 0.039303 0.468407 -0.142941
H11   H     H_    0.801363 0.931251 0.554929 0.118086
H12   H     H_    0.198637 0.068749 0.445071 0.118086
C27   C     C_R   0.488961 0.933986 0.564660 -0.044289
C28   C     C_R   0.511039 0.066014 0.435340 -0.044289
C29   C     C_R   0.679510 0.025530 0.032637 -0.148382
C30   C     C_R   0.320490 0.974470 0.967363 -0.148382
H13   H     H_    0.820294 0.044160 0.056682 0.116681
H14   H     H_    0.179706 0.955840 0.943318 0.116681
C31   C     C_R   0.668416 0.961475 0.966890 -0.143975
C32   C     C_R   0.331584 0.038525 0.033110 -0.143975
H15   H     H_    0.801235 0.932568 0.942479 0.118140
H16   H     H_    0.198765 0.067432 0.057521 0.118140
C33   C     C_R   0.488751 0.935061 0.933303 -0.044454
C34   C     C_R   0.511249 0.064939 0.066697 -0.044454
F1    F     F_    0.827826 0.423509 0.634539 -0.681489
F2    F     F_    0.172174 0.576491 0.365461 -0.681489

loop_
_geom_bond_atom_site_label_1
_geom_bond_atom_site_label_2
_ccdc_geom_bond_type
C30   H14   S    
O11   V3    S    
C23   C25   A    
O13   V3    S    
C10   C16   S    
O4    C2    A    
V1    O19   S    
C13   C15   S    
C11   F1    S    
C20   C22   A    
O3    C1    A    
C19   C21   A    
O12   V4    S    
C26   H12   S    
C31   H15   S    
C11   C16   S    
O7    C3    A    
C12   F2    S    
O13   V1    S    
O5    C7    A    
O7    V1    S    
O6    C8    A    
O8    V2    S    
C19   H7    S    
C32   C34   A    
C20   H8    S    
O3    V1    S    
O14   V4    S    
C10   C12   S    
C1    O11   A    
C2    O12   A    
C15   H3    S    
C12   C15   S    
C16   H4    S    
C5    C21   S    
C17   H5    S    
O17   V3    S    
C18   H6    S    
C25   H11   S    
C9    C14   S    
C10   C13   S    
C4    C33   S    
C12   C14   S    
O8    C4    A    
C8    C13   S    
C29   H13   S    
C30   C33   A    
O15   V3    S    
C9    H1    S    
C29   C34   A    
C24   C26   A    
C11   C13   S    
C17   C19   A    
C7    C14   S    
O9    V1    S    
C23   C28   A    
O10   V2    S    
O1    V3    S    
C24   C27   A    
C31   C33   A    
C17   C22   A    
O18   V4    S    
C23   H9    S    
O16   C6    A    
O1    C3    A    
V2    O20   S    
C18   C20   A    
O16   V4    S    
C10   H2    S    
C25   C27   A    
C14   C16   S    
O5    V1    S    
O17   C7    A    
O6    V2    S    
O10   C6    A    
O18   C8    A    
O2    V4    S    
C26   C28   A    
C9    C15   S    
O15   C5    A    
V3    O19   S    
V4    O20   S    
C30   C32   A    
C29   C31   A    
C18   C21   A    
O9    C5    A    
C9    C11   S    
C24   H10   S    
O14   V2    S    
O2    C4    A    
C1    C28   S    
C2    C27   S    
O4    V2    S    
C3    C34   S    
C32   H16   S    
C6    C22   S    
