data_mof_unit_64776.cif
_audit_creation_date              2012-12-10T18:40:27-0500
_audit_creation_method            fapswitch 2.2
_symmetry_space_group_name_H-M    P1
_symmetry_Int_Tables_number       1
_space_group_crystal_system       triclinic
_cell_length_a                    10.774342
_cell_length_b                    11.575433
_cell_length_c                    16.705581
_cell_angle_alpha                 90.002506
_cell_angle_beta                  84.23833
_cell_angle_gamma                 89.975163
_cell_volume                      2072.95544461

loop_
_atom_site_label
_atom_site_type_symbol
_atom_type_description
_atom_site_fract_x
_atom_site_fract_y
_atom_site_fract_z
_atom_type_partial_charge
C1    C     C_R   0.499984 0.718850 0.500005 0.909752
C2    C     C_R   0.500019 0.281147 0.500013 0.915684
C3    C     C_1   0.499966 0.838956 0.500013 -0.156846
C4    C     C_1   0.500052 0.161026 0.500029 -0.161217
C5    C     C_1   0.499996 0.940835 0.500023 0.023701
C6    C     C_1   0.500038 0.059143 0.500032 0.023297
C7    C     C_1   0.930251 0.500011 0.499998 0.085930
C8    C     C_1   0.069749 0.500008 0.499993 0.076846
C9    C     C_R   0.481652 0.502375 0.654067 0.914978
C10   C     C_R   0.518357 0.504127 0.345931 0.900324
C11   C     C_R   0.466899 0.536461 0.738233 -0.126735
C12   C     C_R   0.530904 0.528451 0.259827 -0.136772
C13   C     C_R   0.551472 0.617284 0.763767 -0.251924
C14   C     C_R   0.431248 0.499072 0.216133 -0.245209
C15   C     C_R   0.533953 0.662703 0.840736 -0.138198
C16   C     C_R   0.430234 0.534970 0.137208 -0.127810
C17   C     C_R   0.432816 0.625985 0.893746 0.122170
C18   C     C_R   0.528682 0.602045 0.100812 0.119793
C19   C     C_R   0.345334 0.548874 0.867729 -0.197318
C20   C     C_R   0.630947 0.627492 0.142735 -0.200187
C21   C     C_R   0.361821 0.503413 0.790241 0.383075
C22   C     C_R   0.632833 0.592159 0.222221 0.384754
C23   C     C_2   0.428792 0.649142 0.979765 -0.198337
C24   C     C_2   0.532845 0.635185 0.016243 -0.190511
H1    H     H_    0.623649 0.632487 0.981495 0.159812
H2    H     H_    0.338136 0.651040 0.014664 0.158609
H3    H     H_    0.268035 0.519089 0.909117 0.166877
H4    H     H_    0.708558 0.676723 0.113919 0.171155
N1    N     N_1   0.819370 0.500000 0.500010 -0.060285
N2    N     N_1   0.180630 0.500000 0.499990 -0.065429
O1    O     O_R   0.397470 0.665550 0.500010 -0.612093
O2    O     O_R   0.602530 0.334450 0.499990 -0.609557
O3    O     O_R   0.602530 0.665550 0.499990 -0.594383
O4    O     O_R   0.397470 0.334450 0.500010 -0.597888
O5    O     O_R   0.385350 0.500000 0.615800 -0.564844
O6    O     O_R   0.614650 0.500000 0.384200 -0.556246
O7    O     O_R   0.590410 0.500000 0.615800 -0.625729
O8    O     O_R   0.409590 0.500000 0.384200 -0.622915
Zn1   Zn    Zn3+2 0.363080 0.500000 0.500000 1.026659
Zn2   Zn    Zn3+2 0.636920 0.500000 0.500000 1.031897
H5    H     H_    0.630196 0.647070 0.723605 0.177897
H6    H     H_    0.352942 0.449366 0.243476 0.179250
Cl1   Cl    Cl    0.761278 0.636908 0.272172 -0.595346
Cl2   Cl    Cl    0.252968 0.400942 0.762545 -0.595743
H7    H     H_    0.353222 0.508244 0.104647 0.147973
H8    H     H_    0.601294 0.723822 0.859645 0.151089

loop_
_geom_bond_atom_site_label_1
_geom_bond_atom_site_label_2
_ccdc_geom_bond_type
C16   H7    S    
C2    C4    S    
C23   C24   D    
C7    N1    T    
C21   Cl2   S    
C9    C11   S    
O5    Zn1   S    
C22   Cl1   S    
O1    Zn1   S    
C14   H6    S    
C10   O8    A    
C8    N2    T    
C2    O4    A    
C9    O7    A    
C1    O3    A    
C7    C8    S    
C16   C18   A    
C11   C13   A    
C17   C23   S    
C10   C12   S    
C18   C24   S    
N1    Zn2   S    
C13   H5    S    
C19   C21   A    
C12   C14   A    
N2    Zn1   S    
O7    Zn2   S    
C18   C20   A    
C13   C15   A    
C5    C6    S    
C14   C16   A    
O3    Zn2   S    
C9    O5    A    
O4    Zn1   S    
C12   C22   A    
C1    O1    A    
O2    Zn2   S    
C19   H3    S    
C24   H1    S    
C2    O2    A    
C4    C6    T    
C23   H2    S    
C1    C3    S    
C15   C17   A    
O6    Zn2   S    
C10   O6    A    
C20   H4    S    
C15   H8    S    
C17   C19   A    
C11   C21   A    
C20   C22   A    
C3    C5    T    
O8    Zn1   S    
