data_mof_unit_25568.cif
_audit_creation_date              2012-12-10T17:50:35-0500
_audit_creation_method            fapswitch 2.2
_symmetry_space_group_name_H-M    P1
_symmetry_Int_Tables_number       1
_space_group_crystal_system       triclinic
_cell_length_a                    15.672658
_cell_length_b                    10.604428
_cell_length_c                    9.988518
_cell_angle_alpha                 89.005499
_cell_angle_beta                  89.791064
_cell_angle_gamma                 91.692819
_cell_volume                      1659.09859296

loop_
_atom_site_label
_atom_site_type_symbol
_atom_type_description
_atom_site_fract_x
_atom_site_fract_y
_atom_site_fract_z
_atom_type_partial_charge
C1    C     C_R   0.502175 0.260886 0.501124 0.887607
C2    C     C_R   0.710575 0.070068 0.687945 0.220537
C3    C     C_R   0.711801 0.939030 0.683262 -0.124002
C4    C     C_R   0.338321 0.504228 0.500188 0.926636
C5    C     C_R   0.646162 0.872052 0.619856 -0.198103
C6    C     C_R   0.577050 0.935770 0.561647 0.111753
C7    C     C_R   0.576049 0.067773 0.565231 0.062231
C8    C     C_R   0.507295 0.128478 0.503241 -0.054859
C9    C     C_R   0.442084 0.062554 0.438371 -0.187669
C10   C     C_R   0.443192 0.934065 0.434553 -0.185008
C11   C     C_R   0.509068 0.871672 0.497255 -0.046477
C12   C     C_3   0.083454 0.526099 0.499268 0.128134
C13   C     C_R   0.425203 0.294108 0.142646 0.196892
C14   C     C_R   0.431390 0.177724 0.081315 -0.305669
C15   C     C_R   0.428213 0.174906 0.942409 0.084178
C16   C     C_R   0.502694 0.739122 0.499033 0.851815
C17   C     C_R   0.426060 0.290012 0.870529 0.486770
C18   C     C_R   0.461048 0.400201 0.930757 -0.020551
C19   C     C_R   0.460458 0.401277 0.074503 0.032452
C20   C     C_R   0.541128 0.592115 0.067488 0.215698
C21   C     C_R   0.539218 0.592982 0.925503 -0.099887
C22   C     C_R   0.661844 0.500303 0.499726 0.859796
C23   C     C_3   0.971597 0.627144 0.541597 0.560606
C24   C     C_3   0.972636 0.424099 0.577603 -0.219517
C25   C     C_3   0.030276 0.411343 0.452822 -0.112618
C26   C     C_1   0.249678 0.516013 0.500461 -0.173921
C27   C     C_1   0.750985 0.503857 0.498640 -0.132125
C28   C     C_3   0.027451 0.538672 0.624924 -0.284104
C29   C     C_3   0.287929 0.299380 0.797041 0.090996
C30   C     C_3   0.233899 0.227497 0.694716 -0.317098
C31   C     C_3   0.139178 0.232747 0.728479 -0.959874
C32   C     C_3   0.992570 0.822796 0.640320 0.066447
C33   C     C_3   0.979374 0.825801 0.792122 -0.330586
C34   C     C_3   0.917606 0.514296 0.496126 0.132852
C35   C     C_3   0.033897 0.930214 0.855105 -0.913966
C36   C     C_3   0.028696 0.617026 0.416878 -0.249678
C37   C     C_3   0.973655 0.501727 0.371265 -0.203820
C38   C     C_1   0.174491 0.523858 0.500177 -0.026673
C39   C     C_1   0.826494 0.508257 0.497137 0.015797
C40   C     C_R   0.643909 0.134544 0.628119 -0.209167
H1    H     H_    0.056983 0.322290 0.416451 0.161836
H2    H     H_    0.052150 0.554089 0.727470 0.143015
H3    H     H_    0.389380 0.110717 0.392802 0.169800
H4    H     H_    0.646375 0.236345 0.631083 0.162626
H5    H     H_    0.268371 0.399248 0.799164 0.165989
H6    H     H_    0.273906 0.256198 0.897777 0.152715
H7    H     H_    0.245448 0.268051 0.592900 0.230587
H8    H     H_    0.252509 0.127277 0.693935 0.245394
H9    H     H_    0.126254 0.187946 0.828047 0.279428
H10   H     H_    0.101164 0.181871 0.651693 0.265641
H11   H     H_    0.119283 0.332101 0.730716 0.275879
H12   H     H_    0.763891 0.888846 0.728138 0.168138
H13   H     H_    0.980692 0.918046 0.597451 0.182447
H14   H     H_    0.060431 0.802347 0.616708 0.120861
H15   H     H_    0.911134 0.842084 0.814694 0.246251
H16   H     H_    0.996192 0.733626 0.837630 0.213463
H17   H     H_    0.102469 0.918506 0.831199 0.269039
H18   H     H_    0.025513 0.926558 0.965543 0.274652
H19   H     H_    0.013551 0.023635 0.817307 0.279496
H20   H     H_    0.650650 0.770641 0.615957 0.155683
H21   H     H_    0.391344 0.882808 0.386001 0.155403
H22   H     H_    0.415824 0.091738 0.137319 0.210113
H23   H     H_    0.572388 0.667924 0.869684 0.168553
H24   H     H_    0.948247 0.344656 0.641877 0.194167
H25   H     H_    0.949415 0.485370 0.268538 0.168024
H26   H     H_    0.053649 0.696891 0.353400 0.150215
I1    I     I_    0.620600 0.733768 0.152764 -0.301396
I2    I     I_    0.298798 0.301804 0.218037 -0.450148
I3    I     I_    0.403671 0.000241 0.848544 -0.368021
I4    I     I_    0.809748 0.170624 0.785111 -0.436531
N1    N     N_R   0.499210 0.498800 0.142780 -0.115012
N2    N     N_R   0.499180 0.498720 0.857170 -0.110561
O1    O     O_R   0.500000 0.316780 0.614690 -0.568554
O2    O     O_3   0.932248 0.737678 0.583961 -0.649015
O3    O     O_R   0.499990 0.316750 0.385360 -0.614213
O4    O     O_R   0.376780 0.500000 0.614650 -0.574702
O5    O     O_R   0.376770 0.499980 0.385310 -0.583718
O6    O     O_R   0.500010 0.683250 0.614640 -0.620088
O7    O     O_R   0.500000 0.683220 0.385310 -0.592402
O8    O     O_R   0.623230 0.500020 0.614690 -0.627641
O9    O     O_R   0.623220 0.500000 0.385350 -0.587887
O10   O     O_3   0.375033 0.296563 0.758591 -0.588919
Zn1   Zn    Zn3+2 0.500010 0.500020 0.653130 0.995451
Zn2   Zn    Zn3+2 0.499990 0.499980 0.346870 1.008121

loop_
_geom_bond_atom_site_label_1
_geom_bond_atom_site_label_2
_ccdc_geom_bond_type
C33   H15   S    
C34   C37   S    
C20   I1    S    
C19   N1    A    
C7    C8    A    
C12   C28   S    
C35   H18   S    
C30   H8    S    
C36   C37   S    
C17   O10   S    
C32   O2    S    
O7    Zn2   S    
C36   H26   S    
O3    Zn2   S    
C1    C8    S    
C35   H19   S    
C18   C19   A    
C25   C37   S    
O6    Zn1   S    
C27   C39   T    
C8    C9    A    
C37   H25   S    
C7    C40   A    
C20   N1    A    
C12   C36   S    
C9    C10   A    
C33   H16   S    
C24   H24   S    
C13   C14   A    
C31   H9    S    
O8    Zn1   S    
O4    Zn1   S    
C32   H14   S    
C18   N2    A    
C15   I3    S    
C9    H3    S    
C21   H23   S    
C13   C19   A    
C21   N2    A    
C34   C39   S    
C1    O3    A    
C22   O9    A    
C30   H7    S    
C24   C25   S    
C25   H1    S    
C6    C11   A    
C26   C38   T    
O5    Zn2   S    
C24   C34   S    
C29   H5    S    
C29   C30   S    
C11   C16   S    
C30   C31   S    
C23   C34   S    
C17   C18   A    
C23   C28   S    
C22   C27   S    
C10   H21   S    
C31   H10   S    
C32   H13   S    
O9    Zn2   S    
N1    Zn2   S    
C15   C17   A    
C5    H20   S    
C24   C28   S    
C31   H11   S    
C3    C5    A    
C4    C26   S    
C3    H12   S    
C6    C7    A    
C12   C25   S    
C29   H6    S    
C35   H17   S    
C16   O7    A    
C1    O1    A    
C32   C33   S    
C2    C3    A    
C22   O8    A    
C4    O5    A    
C5    C6    A    
C28   H2    S    
C33   C35   S    
C16   O6    A    
C12   C38   S    
C29   O10   S    
C4    O4    A    
N2    Zn1   S    
C10   C11   A    
C2    C40   A    
C40   H4    S    
C20   C21   A    
C23   C36   S    
C14   C15   A    
C23   O2    S    
C2    I4    S    
O1    Zn1   S    
C13   I2    S    
C14   H22   S    
