data_mof_unit_5643.cif
_audit_creation_date              2012-12-10T20:28:42-0500
_audit_creation_method            fapswitch 2.2
_symmetry_space_group_name_H-M    P1
_symmetry_Int_Tables_number       1
_space_group_crystal_system       triclinic
_cell_length_a                    10.713173
_cell_length_b                    10.61656
_cell_length_c                    9.840144
_cell_angle_alpha                 89.500511
_cell_angle_beta                  90.074566
_cell_angle_gamma                 90.388363
_cell_volume                      1119.11978958

loop_
_atom_site_label
_atom_site_type_symbol
_atom_type_description
_atom_site_fract_x
_atom_site_fract_y
_atom_site_fract_z
_atom_type_partial_charge
C1    C     C_R   0.499736 0.260314 0.500490 0.946745
C2    C     C_R   0.061187 0.523328 0.628850 0.004377
C3    C     C_R   0.126445 0.520307 0.503623 -0.124213
C4    C     C_R   0.063096 0.503105 0.380977 -0.115052
C5    C     C_R   0.936553 0.485618 0.381456 -0.191145
C6    C     C_R   0.873190 0.475965 0.504994 -0.131989
C7    C     C_R   0.603400 0.064611 0.549364 -0.133817
C8    C     C_R   0.500148 0.128528 0.499108 -0.222315
C9    C     C_R   0.407549 0.064536 0.425742 0.610025
C10   C     C_R   0.409458 0.934303 0.423423 -0.329903
C11   C     C_R   0.503479 0.871143 0.494671 -0.117790
C12   C     C_R   0.260090 0.510825 0.500619 0.894027
C13   C     C_R   0.605196 0.936258 0.546881 -0.056633
C14   C     C_3   0.674927 0.924123 0.677928 -0.494707
C15   C     C_3   0.673184 0.068554 0.682941 1.013858
C16   C     C_R   0.401984 0.448942 0.071466 0.012262
C17   C     C_R   0.587600 0.566780 0.072013 0.403178
C18   C     C_R   0.588684 0.564381 0.926998 0.497738
C19   C     C_R   0.401891 0.449244 0.928971 0.008667
C20   C     C_3   0.355337 0.316956 0.922635 0.220325
C21   C     C_3   0.355649 0.316289 0.077818 0.495580
C22   C     C_R   0.501361 0.739579 0.499180 0.915818
C23   C     C_R   0.739729 0.488140 0.501055 0.870992
C24   C     C_R   0.113352 0.567389 0.752402 -0.213987
C25   C     C_R   0.054629 0.542153 0.876234 0.744573
C26   C     C_R   0.944390 0.472428 0.878664 -0.153257
C27   C     C_R   0.886468 0.440142 0.756782 -0.165005
C28   C     C_R   0.938686 0.478034 0.630337 0.088911
H1    H     H_    0.111068 0.503045 0.284101 0.247094
H2    H     H_    0.769359 0.883716 0.663634 0.195618
H3    H     H_    0.424907 0.253816 0.875277 0.106835
H4    H     H_    0.423188 0.249656 0.124418 0.038686
H5    H     H_    0.198205 0.623004 0.754717 0.173012
H6    H     H_    0.901800 0.446341 0.974686 0.163854
H7    H     H_    0.801910 0.384334 0.763163 0.207873
H8    H     H_    0.888481 0.480526 0.284659 0.205753
H9    H     H_    0.334835 0.883119 0.373302 0.178994
H10   H     H_    0.618201 0.877085 0.758483 0.221610
N1    N     N_R   0.499160 0.499140 0.142800 -0.208365
N2    N     N_R   0.499160 0.499180 0.857150 -0.200121
O1    O     O_R   0.500020 0.316790 0.614690 -0.600969
O2    O     O_R   0.500000 0.316760 0.385350 -0.611070
O3    O     O_R   0.316770 0.500020 0.614690 -0.608270
O4    O     O_R   0.316760 0.499980 0.385350 -0.577958
O5    O     O_R   0.500000 0.683240 0.614650 -0.592808
O6    O     O_R   0.499980 0.683210 0.385310 -0.612406
O7    O     O_R   0.683240 0.500020 0.614650 -0.572725
O8    O     O_R   0.683230 0.499980 0.385310 -0.584739
Zn1   Zn    Zn3+2 0.500010 0.500020 0.653130 1.019034
Zn2   Zn    Zn3+2 0.499990 0.499980 0.346870 1.017105
O9    O     O_3   0.595701 0.113823 0.788119 -0.643149
C29   C     C_3   0.658979 0.111935 0.914211 -0.320503
H11   H     H_    0.724583 0.193183 0.920890 0.198988
H12   H     H_    0.709573 0.022189 0.932602 0.166745
H13   H     H_    0.589420 0.121574 0.996743 0.148237
O10   O     O_3   0.794332 0.126904 0.682847 -0.648091
C30   C     C_3   0.852900 0.131726 0.554246 -0.366455
H14   H     H_    0.803657 0.198071 0.484966 0.161408
H15   H     H_    0.859634 0.036840 0.508181 0.177365
H16   H     H_    0.949349 0.168277 0.567641 0.219931
O11   O     O_3   0.680308 0.629219 0.142731 -0.562076
C31   C     C_3   0.663285 0.760375 0.128240 -0.196379
H17   H     H_    0.720407 0.808585 0.206501 0.173953
H18   H     H_    0.564437 0.788761 0.144346 0.144748
H19   H     H_    0.696366 0.794140 0.027372 0.184031
F1    F     F_    0.680524 0.624799 0.857321 -0.660239
O12   O     O_3   0.234063 0.313333 0.866290 -0.535758
C32   C     C_3   0.205452 0.189505 0.825911 -0.178199
H20   H     H_    0.214537 0.121675 0.912222 0.173582
H21   H     H_    0.265614 0.160849 0.739554 0.158546
H22   H     H_    0.107107 0.186529 0.790520 0.188584
F2    F     F_    0.237162 0.309377 0.133628 -0.565133
F3    F     F_    0.107474 0.580932 0.994109 -0.664236
F4    F     F_    0.312157 0.127169 0.364960 -0.639200

loop_
_geom_bond_atom_site_label_1
_geom_bond_atom_site_label_2
_ccdc_geom_bond_type
C9    F4    S    
C4    H1    S    
C2    C28   A    
C24   C25   A    
C31   H17   S    
C23   O8    A    
C24   H5    S    
C15   O9    S    
C18   F1    S    
C1    C8    S    
C9    C10   A    
O6    Zn2   S    
C11   C22   S    
C19   C20   S    
C29   H13   S    
O5    Zn1   S    
C17   O11   S    
C15   O10   S    
C22   O5    A    
C7    C15   S    
C17   C18   A    
C26   C27   A    
C7    C8    A    
O7    Zn1   S    
C13   C14   S    
C20   C21   S    
O8    Zn2   S    
C11   C13   A    
N2    Zn1   S    
C30   H14   S    
C16   C21   S    
O2    Zn2   S    
C10   H9    S    
C5    C6    A    
C6    C23   S    
C1    O1    A    
C22   O6    A    
C14   H2    S    
C2    C3    A    
C12   O3    A    
C25   F3    S    
C10   C11   A    
C32   H22   S    
C2    C24   A    
O11   C31   S    
C21   H4    S    
C6    C28   A    
C30   H15   S    
C23   O7    A    
C19   N2    A    
C16   N1    A    
C14   H10   S    
O12   C32   S    
C5    H8    S    
C1    O2    A    
C7    C13   A    
N1    Zn2   S    
O9    C29   S    
C29   H11   S    
C21   F2    S    
O4    Zn2   S    
C32   H21   S    
C17   N1    A    
O1    Zn1   S    
C27   C28   A    
O10   C30   S    
C18   N2    A    
C14   C15   S    
C12   O4    A    
C30   H16   S    
C31   H18   S    
C3    C12   S    
C20   O12   S    
C31   H19   S    
C27   H7    S    
C25   C26   A    
C32   H20   S    
C4    C5    A    
C26   H6    S    
O3    Zn1   S    
C3    C4    A    
C29   H12   S    
C8    C9    A    
C20   H3    S    
C16   C19   A    
