data_mof_unit_24639.cif
_audit_creation_date              2012-12-11T15:18:34-0500
_audit_creation_method            fapswitch 2.2
_symmetry_space_group_name_H-M    P1
_symmetry_Int_Tables_number       1
_space_group_crystal_system       triclinic
_cell_length_a                    6.942353
_cell_length_b                    19.915433
_cell_length_c                    23.768181
_cell_angle_alpha                 93.565996
_cell_angle_beta                  91.529241
_cell_angle_gamma                 88.292119
_cell_volume                      3277.3523771

loop_
_atom_site_label
_atom_site_type_symbol
_atom_type_description
_atom_site_fract_x
_atom_site_fract_y
_atom_site_fract_z
_atom_type_partial_charge
O1    O     O_R   0.620100 0.812200 0.810870 -0.540591
O2    O     O_R   0.379900 0.187800 0.189130 -0.540592
O3    O     O_R   0.296960 0.671650 0.794750 -0.531251
O4    O     O_R   0.703040 0.328350 0.205250 -0.531247
O5    O     O_R   0.120160 0.687800 0.689130 -0.541711
O6    O     O_R   0.879840 0.312200 0.310870 -0.541710
C1    C     C_R   0.469666 0.646816 0.804544 0.703424
C2    C     C_R   0.530332 0.353182 0.195455 0.703422
O7    O     O_R   0.290810 0.810670 0.817290 -0.541314
O8    O     O_R   0.709190 0.189330 0.182710 -0.541314
O9    O     O_R   0.113980 0.827820 0.711840 -0.538649
O10   O     O_R   0.886020 0.172180 0.288160 -0.538650
C3    C     C_R   0.459483 0.831786 0.834304 0.712682
C4    C     C_R   0.540517 0.168213 0.165696 0.712675
O11   O     O_R   0.626290 0.672180 0.788160 -0.532400
O12   O     O_R   0.373710 0.327820 0.211840 -0.532400
O13   O     O_3   0.451520 0.755460 0.715370 -0.373301
O14   O     O_3   0.548480 0.244540 0.284630 -0.373301
V1    V     V_3+5 0.179200 0.748980 0.756420 1.440079
V2    V     V_3+5 0.820800 0.251020 0.243580 1.440084
O15   O     O_R   0.783880 0.828350 0.705250 -0.539301
O16   O     O_R   0.216120 0.171650 0.294750 -0.539301
C5    C     C_R   0.949216 0.852735 0.694871 0.689234
C6    C     C_R   0.050784 0.147264 0.305129 0.689233
O17   O     O_R   0.790030 0.689320 0.682700 -0.545212
O18   O     O_R   0.209970 0.310680 0.317300 -0.545211
C7    C     C_R   0.958972 0.668198 0.665654 0.703486
C8    C     C_R   0.041028 0.331802 0.334346 0.703490
V3    V     V_3+5 0.678400 0.751010 0.743570 1.426669
V4    V     V_3+5 0.321600 0.248990 0.256430 1.426672
O19   O     O_3   0.955950 0.744540 0.784620 -0.360243
O20   O     O_3   0.044050 0.255460 0.215380 -0.360242
C9    C     C_R   0.180858 0.425896 0.396320 -0.222534
C10   C     C_R   0.819142 0.574104 0.603680 -0.222536
C11   C     C_R   0.030904 0.380816 0.383961 -0.082019
C12   C     C_R   0.969096 0.619184 0.616038 -0.082019
C13   C     C_R   0.868986 0.383642 0.418600 -0.223276
C14   C     C_R   0.131014 0.616358 0.581400 -0.223276
C15   C     C_R   0.856808 0.430371 0.465242 0.090041
C16   C     C_R   0.143191 0.569629 0.534758 0.090041
C17   C     C_R   0.006358 0.476058 0.476813 0.052848
C18   C     C_R   0.993641 0.523942 0.523186 0.052848
C19   C     C_R   0.168449 0.474011 0.442042 0.091128
C20   C     C_R   0.831550 0.525989 0.557958 0.091129
C21   C     C_R   0.697574 0.432290 0.500544 -0.192179
C22   C     C_R   0.302425 0.567710 0.499456 -0.192180
C23   C     C_R   0.685240 0.479577 0.546521 -0.183744
C24   C     C_R   0.314760 0.520423 0.453479 -0.183744
H1    H     H_    0.305381 0.424461 0.369632 0.120761
H2    H     H_    0.694619 0.575539 0.630368 0.120761
H3    H     H_    0.753176 0.348919 0.409594 0.125339
H4    H     H_    0.246824 0.651081 0.590406 0.125339
H5    H     H_    0.581684 0.397461 0.492385 0.133411
H6    H     H_    0.418316 0.602539 0.507614 0.133411
H7    H     H_    0.560316 0.480132 0.572937 0.135102
H8    H     H_    0.439684 0.519868 0.427062 0.135101
C25   C     C_R   0.945656 0.914191 0.663173 -0.044187
C26   C     C_R   0.054344 0.085808 0.336827 -0.044187
C27   C     C_R   0.852624 0.031716 0.658690 -0.160072
C28   C     C_R   0.147376 0.968284 0.341310 -0.160072
C29   C     C_R   0.873299 0.974237 0.688944 -0.166990
C30   C     C_R   0.126701 0.025763 0.311055 -0.166990
C31   C     C_R   0.996817 0.911911 0.606154 -0.215326
C32   C     C_R   0.003183 0.088089 0.393846 -0.215326
C33   C     C_R   0.972975 0.969726 0.573751 0.086171
C34   C     C_R   0.027025 0.030274 0.426249 0.086171
C35   C     C_R   0.899970 0.029939 0.601566 0.138416
C36   C     C_R   0.100030 0.970061 0.398434 0.138416
C37   C     C_R   0.015614 0.969844 0.514850 0.057898
C38   C     C_R   0.984387 0.030156 0.485150 0.057898
C39   C     C_R   0.912328 0.088332 0.515396 -0.187272
C40   C     C_R   0.087672 0.911668 0.484604 -0.187272
C41   C     C_R   0.871702 0.088050 0.572238 -0.200251
C42   C     C_R   0.128298 0.911950 0.427762 -0.200252
H9    H     H_    0.815859 0.134043 0.593476 0.124337
H10   H     H_    0.184141 0.865957 0.406524 0.124337
H11   H     H_    0.951203 0.136025 0.411758 0.094621
H12   H     H_    0.048797 0.863975 0.588242 0.094621
H13   H     H_    0.168883 0.023573 0.267395 0.107574
H14   H     H_    0.831116 0.976427 0.732605 0.107574
H15   H     H_    0.796042 0.077616 0.679856 0.115634
H16   H     H_    0.203958 0.922384 0.320143 0.115633
H17   H     H_    0.884702 0.135387 0.496313 0.123174
H18   H     H_    0.115298 0.864613 0.503687 0.123174
C43   C     C_R   0.496557 0.585068 0.835646 -0.075206
C44   C     C_R   0.503442 0.414930 0.164353 -0.075179
C45   C     C_R   0.681264 0.481105 0.844233 -0.118255
C46   C     C_R   0.318824 0.518924 0.155785 -0.118248
C47   C     C_R   0.610789 0.532400 0.811648 -0.149209
C48   C     C_R   0.389263 0.467613 0.188362 -0.149191
C49   C     C_R   0.441446 0.582946 0.892065 -0.106331
C50   C     C_R   0.558545 0.417051 0.107932 -0.106317
C51   C     C_R   0.500353 0.528294 0.925149 0.114770
C52   C     C_R   0.499666 0.471714 0.074856 0.114793
C53   C     C_R   0.635148 0.480650 0.901264 0.076889
C54   C     C_R   0.364911 0.519372 0.098749 0.076901
C55   C     C_R   0.445999 0.522727 0.982578 -0.063390
C56   C     C_R   0.554022 0.477284 0.017429 -0.063399
C57   C     C_R   0.712959 0.440135 0.993376 0.392630
C58   C     C_R   0.287080 0.559885 0.006636 0.392637
C59   C     C_R   0.738962 0.437514 0.935495 -0.175819
C60   C     C_R   0.261110 0.562519 0.064521 -0.175826
H19   H     H_    0.855818 0.406228 0.917897 0.159821
H20   H     H_    0.144284 0.593817 0.082125 0.159811
H21   H     H_    0.628384 0.372426 0.089090 0.159541
H22   H     H_    0.371589 0.627569 0.910903 0.159561
H23   H     H_    0.343160 0.466456 0.231493 0.106050
H24   H     H_    0.656919 0.533564 0.768522 0.106063
H25   H     H_    0.781185 0.443786 0.825578 0.114037
H26   H     H_    0.218965 0.556265 0.174451 0.114017
C61   C     C_R   0.685902 0.074236 0.103789 -0.216061
C62   C     C_R   0.314097 0.925759 0.896214 -0.216064
C63   C     C_R   0.530057 0.119149 0.116103 -0.082926
C64   C     C_R   0.469944 0.880851 0.883897 -0.082930
C65   C     C_R   0.362472 0.116158 0.081398 -0.211238
C66   C     C_R   0.637529 0.883847 0.918599 -0.211238
C67   C     C_R   0.350443 0.069451 0.034718 0.087235
C68   C     C_R   0.649558 0.930552 0.965279 0.087231
C69   C     C_R   0.506149 0.023931 0.023202 0.054176
C70   C     C_R   0.493852 0.976070 0.976797 0.054184
C71   C     C_R   0.674014 0.026126 0.058056 0.090393
C72   C     C_R   0.325987 0.973873 0.941945 0.090392
C73   C     C_R   0.185347 0.067398 0.999317 -0.181900
C74   C     C_R   0.814654 0.932604 0.000681 -0.181903
C75   C     C_R   0.173378 0.020126 0.953314 -0.183482
C76   C     C_R   0.826623 0.979873 0.046686 -0.183473
H27   H     H_    0.814971 0.075810 0.130508 0.121985
H28   H     H_    0.185026 0.924181 0.869499 0.121990
H29   H     H_    0.242038 0.150752 0.090361 0.135641
H30   H     H_    0.757965 0.849258 0.909633 0.135645
H31   H     H_    0.064659 0.102105 0.007421 0.141083
H32   H     H_    0.935340 0.897899 0.992577 0.141087
H33   H     H_    0.043888 0.019452 0.926828 0.135198
H34   H     H_    0.956113 0.980545 0.073174 0.135195
Cl1   Cl    Cl    0.908927 0.407014 0.032955 -0.675894
Cl2   Cl    Cl    0.091093 0.593007 0.967062 -0.675892

loop_
_geom_bond_atom_site_label_1
_geom_bond_atom_site_label_2
_ccdc_geom_bond_type
C26   C30   A    
C34   C36   A    
C46   C54   A    
C54   C60   A    
C61   C71   A    
C17   C19   A    
C17   C18   A    
C50   C52   A    
O4    C2    A    
V1    O19   S    
C2    C44   S    
C31   C33   A    
C55   C56   A    
C43   C49   A    
C15   C17   A    
C34   C38   A    
C16   C22   A    
O9    V1    S    
C42   H10   S    
C23   H7    S    
C11   C13   A    
C48   H23   S    
O3    C1    A    
C67   C69   A    
C65   H29   S    
C13   H3    S    
C73   C75   A    
C14   H4    S    
C52   C56   A    
C29   H14   S    
C36   C42   A    
O13   V3    S    
C74   H32   S    
C28   C30   A    
C32   H11   S    
O7    C3    A    
C27   C35   A    
O5    C7    A    
C28   H16   S    
O7    V1    S    
O6    C8    A    
C8    C11   S    
O8    V2    S    
C65   C67   A    
C45   C53   A    
O3    V1    S    
C38   C39   A    
C35   C41   A    
V4    O20   S    
C19   C24   A    
O14   V2    S    
C3    C64   S    
C20   C23   A    
C15   C21   A    
C46   H26   S    
C21   C23   A    
C21   H5    S    
C2    O12   A    
C26   C32   A    
C41   H9    S    
C49   H22   S    
C22   H6    S    
C18   C20   A    
C62   C64   A    
C70   C72   A    
C45   H25   S    
O11   V3    S    
C39   H17   S    
C69   C71   A    
O17   V3    S    
C22   C24   A    
C10   H2    S    
C27   C29   A    
C9    C19   A    
C30   H13   S    
C10   C20   A    
C40   C42   A    
C44   C48   A    
C39   C41   A    
C43   C47   A    
C1    O11   A    
C33   C35   A    
O15   V3    S    
C32   C34   A    
C37   C40   A    
C52   C54   A    
C62   C72   A    
C49   C51   A    
V3    O19   S    
O10   V2    S    
C5    C25   S    
C58   C60   A    
C57   Cl1   S    
C61   C63   A    
C68   C74   A    
C60   H20   S    
C76   H34   S    
C40   H18   S    
O14   V4    S    
C6    C26   S    
C57   C59   A    
C46   C48   A    
O18   V4    S    
O15   C5    A    
C61   H27   S    
O16   C6    A    
O1    C3    A    
O12   V4    S    
C51   C55   A    
C55   C58   A    
C74   C76   A    
V2    O20   S    
C75   H33   S    
C24   H8    S    
O16   V4    S    
C73   H31   S    
C27   H15   S    
C25   C31   A    
C16   C18   A    
C64   C66   A    
C69   C70   A    
C25   C29   A    
O5    V1    S    
C7    C12   S    
O17   C7    A    
C4    C63   S    
O6    V2    S    
O10   C6    A    
O18   C8    A    
C59   H19   S    
O2    V4    S    
C72   C75   A    
C12   C14   A    
C67   C73   A    
C71   C76   A    
C13   C15   A    
C44   C50   A    
C14   C16   A    
C9    C11   A    
O1    V3    S    
C1    C43   S    
C33   C37   A    
C47   H24   S    
O9    C5    A    
O13   V1    S    
C66   C68   A    
C10   C12   A    
C37   C38   A    
O2    C4    A    
C68   C70   A    
C62   H28   S    
O4    V2    S    
C53   C59   A    
C50   H21   S    
C66   H30   S    
C28   C36   A    
C51   C53   A    
C56   C57   A    
C45   C47   A    
C9    H1    S    
C58   Cl2   S    
O8    C4    A    
C63   C65   A    
C31   H12   S    
