data_mof_unit_50192.cif
_audit_creation_date              2012-12-10T19:47:22-0500
_audit_creation_method            fapswitch 2.2
_symmetry_space_group_name_H-M    P1
_symmetry_Int_Tables_number       1
_space_group_crystal_system       triclinic
_cell_length_a                    14.913713
_cell_length_b                    14.196604
_cell_length_c                    10.631443
_cell_angle_alpha                 89.747435
_cell_angle_beta                  90.263792
_cell_angle_gamma                 90.653298
_cell_volume                      2250.74093441

loop_
_atom_site_label
_atom_site_type_symbol
_atom_type_description
_atom_site_fract_x
_atom_site_fract_y
_atom_site_fract_z
_atom_type_partial_charge
Br1   Br    Br    0.323444 0.415927 0.154818 -0.540221
Br2   Br    Br    0.321388 0.422604 0.843341 -0.431080
C1    C     C_R   0.327246 0.499432 0.497982 0.960314
C2    C     C_R   0.951044 0.507559 0.451100 0.072943
C3    C     C_R   0.473644 0.105122 0.393450 -0.277041
C4    C     C_R   0.521944 0.105583 0.609651 -0.290737
C5    C     C_R   0.474447 0.204211 0.394914 -0.007213
C6    C     C_R   0.523607 0.204620 0.606293 0.004038
C7    C     C_R   0.497235 0.053458 0.502000 0.197504
C8    C     C_R   0.557921 0.895999 0.577282 -0.410616
C9    C     C_R   0.437957 0.894379 0.426573 -0.397939
C10   C     C_R   0.560084 0.795610 0.574197 0.581348
C11   C     C_R   0.441318 0.794874 0.423948 0.540417
C12   C     C_R   0.672214 0.500350 0.497091 0.867167
C13   C     C_R   0.497457 0.946740 0.502145 0.037033
C14   C     C_R   0.499894 0.500047 0.260526 0.942791
C15   C     C_R   0.500332 0.499780 0.739518 0.942648
C16   C     C_R   0.657841 0.563172 0.131911 -0.105127
C17   C     C_R   0.659092 0.560054 0.870237 -0.120384
C18   C     C_R   0.734454 0.591798 0.066936 -0.118881
C19   C     C_R   0.735176 0.589987 0.936202 -0.163762
C20   C     C_R   0.580580 0.531106 0.934890 0.047171
C21   C     C_R   0.580097 0.532194 0.066260 0.039481
C22   C     C_R   0.502445 0.499600 0.128340 -0.232412
C23   C     C_R   0.230723 0.498469 0.482436 -0.108879
C24   C     C_R   0.502861 0.498981 0.871846 -0.243546
C25   C     C_R   0.427136 0.463737 0.064588 0.188679
C26   C     C_R   0.426883 0.464702 0.934795 0.222706
C27   C     C_R   0.097815 0.581501 0.418191 -0.172769
C28   C     C_R   0.911378 0.564608 0.541148 -0.153426
C29   C     C_R   0.189625 0.579730 0.434716 -0.248505
C30   C     C_R   0.819621 0.561060 0.556519 -0.295613
C31   C     C_3   0.702359 0.785702 0.672862 0.064034
C32   C     C_3   0.756537 0.804886 0.552140 -0.391409
C33   C     C_3   0.853456 0.832004 0.582759 -0.944618
C34   C     C_R   0.767738 0.501089 0.481568 -0.120202
C35   C     C_3   0.397812 0.760380 0.222926 0.058965
C36   C     C_3   0.334651 0.698335 0.144907 -0.305582
C37   C     C_3   0.356140 0.704993 0.004886 -0.909151
C38   C     C_3   0.213003 0.260966 0.484873 0.098222
C39   C     C_3   0.252476 0.175458 0.551963 -0.276420
C40   C     C_3   0.245940 0.087397 0.470474 -0.980166
C41   C     C_3   0.764475 0.292999 0.342371 0.099518
C42   C     C_3   0.700474 0.234512 0.260879 -0.291816
C43   C     C_3   0.702114 0.130541 0.297953 -0.981905
C44   C     C_R   0.179496 0.416678 0.508977 0.503461
C45   C     C_R   0.807334 0.443091 0.390831 0.447932
C46   C     C_R   0.086878 0.420109 0.493820 -0.268301
C47   C     C_R   0.899809 0.447833 0.374932 -0.280289
C48   C     C_R   0.046958 0.501979 0.448774 0.078513
H1    H     H_    0.603633 0.935384 0.636027 0.151278
H2    H     H_    0.789261 0.603270 0.628575 0.163605
H3    H     H_    0.045475 0.360830 0.523281 0.142489
H4    H     H_    0.931786 0.404686 0.304677 0.153726
H5    H     H_    0.455486 0.069579 0.307059 0.138110
H6    H     H_    0.538907 0.070591 0.696988 0.141764
H7    H     H_    0.455014 0.242426 0.311141 0.159377
H8    H     H_    0.543108 0.243155 0.689699 0.144038
H9    H     H_    0.740755 0.735971 0.732314 0.160394
H10   H     H_    0.696530 0.849272 0.732385 0.125027
H11   H     H_    0.755703 0.741164 0.491993 0.245945
H12   H     H_    0.387447 0.930121 0.371499 0.163337
H13   H     H_    0.726293 0.863202 0.497217 0.212786
H14   H     H_    0.855642 0.897293 0.639942 0.264130
H15   H     H_    0.890831 0.844838 0.494120 0.266082
H16   H     H_    0.886735 0.774423 0.635608 0.258941
H17   H     H_    0.468500 0.742571 0.199894 0.155062
H18   H     H_    0.385391 0.835064 0.196603 0.123646
H19   H     H_    0.340697 0.624148 0.176405 0.258398
H20   H     H_    0.264277 0.720348 0.160335 0.217419
H21   H     H_    0.347468 0.778365 0.970644 0.257422
H22   H     H_    0.310081 0.657859 0.951341 0.289987
H23   H     H_    0.660755 0.564394 0.233457 0.142007
H24   H     H_    0.426173 0.682895 0.987377 0.267779
H25   H     H_    0.252207 0.275410 0.397741 0.172545
H26   H     H_    0.142321 0.243654 0.458919 0.120209
H27   H     H_    0.323852 0.189984 0.575658 0.246927
H28   H     H_    0.215641 0.162429 0.641136 0.233616
H29   H     H_    0.174564 0.068624 0.452277 0.264887
H30   H     H_    0.278268 0.027626 0.520007 0.276938
H31   H     H_    0.280347 0.099253 0.379281 0.268349
H32   H     H_    0.747643 0.280553 0.443274 0.150195
H33   H     H_    0.834187 0.269315 0.324543 0.122927
H34   H     H_    0.662813 0.558608 0.768798 0.140553
H35   H     H_    0.631295 0.261351 0.271330 0.241584
H36   H     H_    0.719880 0.242007 0.160475 0.219731
H37   H     H_    0.770393 0.101795 0.285003 0.262830
H38   H     H_    0.654380 0.090238 0.237798 0.267126
H39   H     H_    0.681953 0.121404 0.397765 0.275079
H40   H     H_    0.793615 0.614665 0.118253 0.138571
H41   H     H_    0.795006 0.611294 0.885797 0.126091
H42   H     H_    0.066103 0.645298 0.384911 0.148535
H43   H     H_    0.951836 0.609071 0.602143 0.150005
H44   H     H_    0.228258 0.642307 0.411068 0.212951
N1    N     N_R   0.500000 0.252470 0.500000 -0.097681
N2    N     N_R   0.500000 0.747550 0.500000 -0.159136
O1    O     O_R   0.369060 0.579480 0.500010 -0.592517
O2    O     O_3   0.380620 0.744093 0.351896 -0.623402
O3    O     O_3   0.218180 0.339226 0.566358 -0.602048
O4    O     O_3   0.754785 0.389062 0.310646 -0.646792
O5    O     O_R   0.630940 0.579480 0.499990 -0.609104
O6    O     O_R   0.369050 0.420520 0.500010 -0.566734
O7    O     O_R   0.630950 0.420520 0.499990 -0.612906
O8    O     O_R   0.500000 0.579490 0.316770 -0.627174
O9    O     O_R   0.500000 0.579490 0.683230 -0.582587
O10   O     O_R   0.499990 0.420540 0.316770 -0.609826
O11   O     O_R   0.500010 0.420540 0.683230 -0.615110
O12   O     O_3   0.617968 0.742285 0.648357 -0.615814
Zn1   Zn    Zn3+2 0.500000 0.606140 0.500000 1.009044
Zn2   Zn    Zn3+2 0.500000 0.393860 0.500000 0.982508

loop_
_geom_bond_atom_site_label_1
_geom_bond_atom_site_label_2
_ccdc_geom_bond_type
C23   C29   A    
C28   C30   A    
C44   O3    S    
C36   H20   S    
C40   H30   S    
C41   H33   S    
C39   C40   S    
C14   C22   S    
C22   C25   A    
C9    H12   S    
C38   O3    S    
C45   C47   A    
C31   O12   S    
O7    Zn2   S    
C15   C24   S    
C30   C34   A    
C17   C19   A    
C28   H43   S    
C8    C13   A    
C15   O11   A    
C12   C34   S    
C36   C37   S    
C33   H15   S    
O5    Zn1   S    
C47   H4    S    
C35   H18   S    
C34   C45   A    
C32   C33   S    
C37   H24   S    
C11   O2    S    
C30   H2    S    
C6    H8    S    
C9    C13   A    
C14   O8    A    
C21   C22   A    
C33   H14   S    
C43   H39   S    
C14   O10   A    
C46   C48   A    
C36   H19   S    
C40   H29   S    
C31   H9    S    
C40   H31   S    
C4    C7    A    
C42   H36   S    
C8    H1    S    
C35   O2    S    
C27   C48   A    
C46   H3    S    
C44   C46   A    
C11   N2    A    
C16   C21   A    
C1    C23   S    
C17   C20   A    
C41   O4    S    
C39   H28   S    
C10   O12   S    
C12   O5    A    
C4    C6    A    
C33   H16   S    
C18   H40   S    
C32   H11   S    
C6    N1    A    
C45   O4    S    
C38   H26   S    
C2    C48   S    
C41   C42   S    
C3    C7    A    
C35   C36   S    
C15   O9    A    
O1    Zn1   S    
C1    O1    A    
C37   H22   S    
C43   H38   S    
C31   C32   S    
C8    C10   A    
C1    O6    A    
C38   C39   S    
C31   H10   S    
O11   Zn2   S    
O6    Zn2   S    
C17   H34   S    
C42   C43   S    
C3    C5    A    
C19   H41   S    
O9    Zn1   S    
C43   H37   S    
C3    H5    S    
C4    H6    S    
N1    Zn2   S    
C16   H23   S    
C29   H44   S    
C5    N1    A    
N2    Zn1   S    
C24   C26   A    
C38   H25   S    
C2    C47   A    
C7    C13   S    
C27   C29   A    
C39   H27   S    
C9    C11   A    
C12   O7    A    
O8    Zn1   S    
C35   H17   S    
C32   H13   S    
C16   C18   A    
C18   C19   A    
O10   Zn2   S    
C20   C24   A    
C25   C26   A    
Br1   C25   S    
C41   H32   S    
C37   H21   S    
C20   C21   A    
C10   N2    A    
Br2   C26   S    
C23   C44   A    
C5    H7    S    
C27   H42   S    
C2    C28   A    
C42   H35   S    
