data_mof_unit_28986.cif
_audit_creation_date              2012-12-11T15:32:03-0500
_audit_creation_method            fapswitch 2.2
_symmetry_space_group_name_H-M    P1
_symmetry_Int_Tables_number       1
_space_group_crystal_system       triclinic
_cell_length_a                    13.556523
_cell_length_b                    13.570533
_cell_length_c                    27.608532
_cell_angle_alpha                 90.838971
_cell_angle_beta                  89.946186
_cell_angle_gamma                 119.935397
_cell_volume                      4400.91752762

loop_
_atom_site_label
_atom_site_type_symbol
_atom_type_description
_atom_site_fract_x
_atom_site_fract_y
_atom_site_fract_z
_atom_type_partial_charge
C1    C     C_R   0.619773 0.897696 0.431495 0.545401
C2    C     C_R   0.164876 0.915416 0.265023 -0.141370
C3    C     C_R   0.151696 0.911361 0.214794 -0.164119
C4    C     C_R   0.599952 0.218772 0.431375 0.542735
C5    C     C_R   0.199158 0.760894 0.209093 0.317485
C6    C     C_R   0.206557 0.760319 0.260130 0.023311
C7    C     C_R   0.190548 0.839625 0.288065 -0.002338
C8    C     C_R   0.167488 0.833789 0.186755 0.035018
C9    C     C_1   0.137564 0.819204 0.136006 -0.011201
C10   C     C_1   0.209281 0.850725 0.339812 -0.070386
C11   C     C_1   0.103669 0.798434 0.094697 0.002265
C12   C     C_R   0.578461 0.254899 0.210300 -0.035845
C13   C     C_1   0.634085 0.864575 0.383778 -0.001795
C14   C     C_R   0.651126 0.737495 0.270053 -0.024456
C15   C     C_R   0.652091 0.725055 0.219260 0.284023
C16   C     C_R   0.279563 0.878550 0.430468 0.546826
C17   C     C_R   0.637913 0.896624 0.208749 -0.033919
C18   C     C_R   0.628079 0.903743 0.259329 0.275476
C19   C     C_R   0.639725 0.827524 0.289825 -0.005655
C20   C     C_R   0.650022 0.806762 0.188864 -0.009568
C21   C     C_1   0.668485 0.799589 0.137736 -0.018797
C22   C     C_1   0.639227 0.844174 0.341584 -0.017160
C23   C     C_R   0.570975 0.245383 0.260710 -0.106989
C24   C     C_1   0.689680 0.789524 0.096214 -0.005460
C25   C     C_R   0.638478 0.285853 0.615306 -0.006374
C26   C     C_R   0.748008 0.326701 0.634962 -0.041113
C27   C     C_R   0.762310 0.341732 0.685302 -0.145736
C28   C     C_R   0.620897 0.899475 0.568899 0.563488
C29   C     C_R   0.669932 0.319463 0.716043 0.037256
C30   C     C_R   0.574247 0.316576 0.693472 0.267015
C31   C     C_R   0.555798 0.290749 0.644007 -0.124505
C32   C     C_R   0.572890 0.265072 0.797565 -0.126318
C33   C     C_R   0.577177 0.293071 0.846737 -0.069104
C34   C     C_R   0.664614 0.313292 0.290711 0.003922
C35   C     C_R   0.776276 0.346735 0.847138 0.266410
C36   C     C_R   0.772928 0.328758 0.796945 0.282478
C37   C     C_R   0.673639 0.305657 0.770293 -0.020626
C38   C     C_R   0.684204 0.350077 0.870009 -0.036187
C39   C     C_R   0.228155 0.866879 0.616088 0.013520
C40   C     C_R   0.602047 0.224705 0.568451 0.543162
C41   C     C_R   0.236311 0.961464 0.641402 -0.101195
C42   C     C_R   0.210822 0.954789 0.690682 0.002057
C43   C     C_R   0.176026 0.851349 0.714232 0.038533
C44   C     C_R   0.162086 0.755689 0.688347 -0.139965
C45   C     C_R   0.682744 0.334475 0.189396 0.038739
C46   C     C_R   0.187831 0.763218 0.639579 -0.143001
C47   C     C_R   0.228342 0.885448 0.801526 -0.103532
C48   C     C_R   0.197681 0.860374 0.850143 -0.024465
C49   C     C_R   0.999394 0.736935 0.824052 -0.006366
C50   C     C_R   0.031708 0.764605 0.776330 -0.104465
C51   C     C_R   0.145224 0.836900 0.765069 0.001745
C52   C     C_R   0.280761 0.882379 0.568578 0.544522
C53   C     C_R   0.082841 0.784012 0.861248 0.078782
C54   C     C_R   0.638843 0.857638 0.615731 0.017287
C55   C     C_R   0.544410 0.767500 0.639599 -0.035648
C56   C     C_1   0.690569 0.358336 0.138246 -0.026419
C57   C     C_R   0.545164 0.764333 0.690352 -0.007353
C58   C     C_R   0.649844 0.825321 0.715256 -0.004657
C59   C     C_R   0.751298 0.893059 0.689556 -0.006804
C60   C     C_R   0.743817 0.918718 0.640844 0.264146
C61   C     C_R   0.692847 0.901825 0.799793 -0.120909
C62   C     C_R   0.706831 0.887264 0.848612 -0.128577
C63   C     C_R   0.630934 0.685262 0.833201 -0.138062
C64   C     C_1   0.631876 0.265913 0.383976 -0.014050
C65   C     C_R   0.621902 0.700950 0.784374 -0.126885
C66   C     C_R   0.654451 0.809381 0.767396 0.039318
C67   C     C_1   0.650451 0.292921 0.342107 -0.050295
C68   C     C_R   0.677917 0.779095 0.865219 0.026203
C69   C     C_R   0.050226 0.761848 0.048009 0.544832
C70   C     C_R   0.713997 0.435357 0.049555 0.542169
C71   C     C_R   0.723011 0.771358 0.049244 0.547381
C72   C     C_R   0.044973 0.756238 0.910997 0.531808
C73   C     C_R   0.706408 0.423872 0.913539 0.527426
C74   C     C_R   0.716245 0.765505 0.912477 0.523428
C75   C     C_R   0.769402 0.393199 0.270197 0.024671
C76   C     C_R   0.778849 0.401171 0.219252 0.306265
C77   C     C_3   0.871423 0.471591 0.301220 -0.358305
C78   C     C_1   0.699570 0.387237 0.096659 -0.008046
C79   C     C_3   0.555785 0.544722 0.189220 -0.116473
C80   C     C_3   0.637134 0.986922 0.177484 -0.368488
C81   C     C_3   0.503403 0.954859 0.289261 -0.111947
C82   C     C_3   0.850128 0.358825 0.603267 -0.396403
C83   C     C_3   0.468038 0.262558 0.872734 -0.372420
C84   C     C_3   0.854185 0.229652 0.767064 -0.136784
C85   C     C_3   0.855219 0.284631 0.902998 -0.088896
C86   C     C_3   0.480084 0.417894 0.700913 -0.137715
C87   C     C_3   0.940916 0.427273 0.183672 -0.102200
C88   C     C_3   0.286971 0.913884 0.889352 -0.414228
C89   C     C_1   0.234284 0.861805 0.382232 -0.024498
C90   C     C_3   0.221083 0.057248 0.717358 -0.388850
C91   C     C_3   0.876247 0.654649 0.834351 -0.363383
C92   C     C_3   0.444205 0.673053 0.612118 -0.369234
C93   C     C_3   0.472944 0.179730 0.180692 -0.414492
C94   C     C_3   0.433915 0.697748 0.717392 -0.389480
C95   C     C_3   0.866161 0.935226 0.713608 -0.381883
C96   C     C_3   0.869378 0.108189 0.633129 -0.102239
C97   C     C_3   0.326378 0.737676 0.164114 -0.141412
C98   C     C_3   0.230344 0.673868 0.283242 -0.375354
C99   C     C_3   0.663654 0.656461 0.303124 -0.374031
Cr1   Cr    Cr6+3 0.417720 0.831920 0.499820 1.002162
Cr2   Cr    Cr6+3 0.668190 0.085770 0.500360 1.030755
Cr3   Cr    Cr6+3 0.414060 0.082260 0.499840 1.018728
Cr4   Cr    Cr6+3 0.908000 0.821090 0.979770 1.014946
Cr5   Cr    Cr6+3 0.912420 0.571130 0.979880 1.045077
Cr6   Cr    Cr6+3 0.657970 0.566940 0.980940 1.008973
H1    H     H_    0.490329 0.216066 0.780554 0.179830
H2    H     H_    0.743714 0.960458 0.872954 0.106633
H3    H     H_    0.592914 0.629341 0.759559 0.111574
H4    H     H_    0.610120 0.601347 0.845121 0.137705
H5    H     H_    0.490673 0.184410 0.276757 0.116127
H6    H     H_    0.153762 0.977181 0.286062 0.127392
H7    H     H_    0.127244 0.967589 0.197854 0.123178
H8    H     H_    0.941430 0.453135 0.294808 0.132722
H9    H     H_    0.901241 0.561354 0.291711 0.169609
H10   H     H_    0.852586 0.463072 0.340503 0.119525
H11   H     H_    0.505374 0.512076 0.222947 0.104748
H12   H     H_    0.846553 0.371402 0.698878 0.186262
H13   H     H_    0.565604 0.474931 0.172993 0.157558
H14   H     H_    0.508528 0.566791 0.162599 0.111936
H15   H     H_    0.649663 0.976264 0.138506 0.111486
H16   H     H_    0.554438 0.984397 0.180994 0.124947
H17   H     H_    0.706327 0.072233 0.189379 0.167852
H18   H     H_    0.464410 0.877922 0.312177 0.116331
H19   H     H_    0.453538 0.938038 0.255208 0.105624
H20   H     H_    0.497667 0.022479 0.309873 0.145731
H21   H     H_    0.930867 0.402051 0.624431 0.108096
H22   H     H_    0.845403 0.283138 0.585439 0.149580
H23   H     H_    0.473633 0.268854 0.628809 0.132668
H24   H     H_    0.854507 0.418367 0.575073 0.138376
H25   H     H_    0.392752 0.196511 0.852354 0.117781
H26   H     H_    0.468042 0.227807 0.908905 0.133437
H27   H     H_    0.458293 0.338718 0.876800 0.168539
H28   H     H_    0.777758 0.175842 0.744135 0.095908
H29   H     H_    0.848940 0.186745 0.801652 0.124185
H30   H     H_    0.929334 0.238333 0.747331 0.129250
H31   H     H_    0.797808 0.277901 0.933108 0.106653
H32   H     H_    0.818863 0.201578 0.883296 0.079612
H33   H     H_    0.937320 0.302403 0.919330 0.136692
H34   H     H_    0.267619 0.042034 0.623423 0.129802
H35   H     H_    0.422911 0.386814 0.668713 0.109312
H36   H     H_    0.562548 0.494644 0.691856 0.121150
H37   H     H_    0.437788 0.443560 0.728674 0.135476
H38   H     H_    0.964756 0.392583 0.214971 0.104312
H39   H     H_    0.020570 0.490845 0.166096 0.200266
H40   H     H_    0.892200 0.358513 0.156425 0.102783
H41   H     H_    0.372522 0.971351 0.874179 0.124432
H42   H     H_    0.264985 0.964619 0.914435 0.128985
H43   H     H_    0.291345 0.846511 0.909966 0.140079
H44   H     H_    0.138186 0.035602 0.733963 0.129599
H45   H     H_    0.316615 0.940718 0.791870 0.109919
H46   H     H_    0.286965 0.085067 0.746205 0.144618
H47   H     H_    0.245822 0.129916 0.692787 0.139559
H48   H     H_    0.822118 0.630143 0.801215 0.110661
H49   H     H_    0.869784 0.576895 0.849419 0.182654
H50   H     H_    0.842901 0.692601 0.860760 0.150414
H51   H     H_    0.407744 0.591794 0.631929 0.103629
H52   H     H_    0.376633 0.695371 0.607004 0.167488
H53   H     H_    0.471496 0.655278 0.576703 0.141118
H54   H     H_    0.487885 0.189034 0.141124 0.132569
H55   H     H_    0.441405 0.089230 0.189441 0.127492
H56   H     H_    0.968875 0.727435 0.747425 0.117611
H57   H     H_    0.405594 0.200681 0.189704 0.128052
H58   H     H_    0.364185 0.702490 0.698472 0.137097
H59   H     H_    0.411152 0.607411 0.720027 0.111770
H60   H     H_    0.438627 0.733228 0.754338 0.148953
H61   H     H_    0.936382 0.967680 0.686956 0.171115
H62   H     H_    0.883601 0.004193 0.740208 0.107131
H63   H     H_    0.867535 0.864243 0.732533 0.135512
H64   H     H_    0.913128 0.128105 0.668808 0.092991
H65   H     H_    0.794229 0.120681 0.635344 0.129819
H66   H     H_    0.930216 0.170362 0.607138 0.135941
H67   H     H_    0.133049 0.675415 0.706320 0.124289
H68   H     H_    0.389257 0.768338 0.194399 0.106957
H69   H     H_    0.343485 0.809374 0.139974 0.112662
H70   H     H_    0.338746 0.675152 0.142525 0.141855
H71   H     H_    0.228375 0.676130 0.323348 0.127815
H72   H     H_    0.165014 0.587012 0.271094 0.155899
H73   H     H_    0.315510 0.689070 0.272272 0.122062
H74   H     H_    0.675343 0.591596 0.283093 0.184205
H75   H     H_    0.739151 0.704813 0.327059 0.133816
H76   H     H_    0.586495 0.611364 0.325831 0.115116
H77   H     H_    0.180686 0.689235 0.620822 0.121427
H78   H     H_    0.715654 0.985309 0.786869 0.089937
O1    O     O_R   0.302900 0.805360 0.446400 -0.510249
O2    O     O_R   0.638120 0.455970 0.034270 -0.512248
O3    O     O_R   0.667540 0.672320 0.030160 -0.489924
O4    O     O_R   0.522090 0.841370 0.450730 -0.502212
O5    O     O_R   0.814460 0.840990 0.926980 -0.517410
O6    O     O_R   0.001710 0.811400 0.930110 -0.507158
O7    O     O_R   0.023410 0.659800 0.926210 -0.490533
O8    O     O_R   0.806940 0.473170 0.931090 -0.466623
O9    O     O_R   0.633420 0.451310 0.927930 -0.526193
O10   O     O_R   0.663190 0.668000 0.931580 -0.507293
O11   O     O_3   0.826130 0.653050 0.980200 -0.247312
O12   O     O_R   0.657980 0.180990 0.549630 -0.503679
O13   O     O_R   0.693280 0.995650 0.447220 -0.495080
O14   O     O_R   0.657260 0.178740 0.451050 -0.491195
O15   O     O_R   0.502640 0.195380 0.446850 -0.509865
O16   O     O_R   0.319630 0.976590 0.450330 -0.490401
O17   O     O_R   0.303680 0.807790 0.552740 -0.528443
O18   O     O_R   0.522820 0.843620 0.549310 -0.516410
O19   O     O_R   0.694060 0.998080 0.553560 -0.473840
O20   O     O_3   0.664952 0.638081 0.199155 -0.544876
O21   O     O_3   0.619004 0.993136 0.279330 -0.553531
O22   O     O_3   0.869668 0.339297 0.775534 -0.555266
O23   O     O_R   0.503420 0.197810 0.553190 -0.528128
O24   O     O_3   0.876057 0.374345 0.871702 -0.509044
O25   O     O_3   0.495277 0.330603 0.720228 -0.596625
O26   O     O_3   0.880266 0.481606 0.198850 -0.546286
O27   O     O_3   0.839816 0.997736 0.616563 -0.551284
O28   O     O_3   0.213719 0.683271 0.181439 -0.580162
O29   O     O_R   0.320350 0.978840 0.548910 -0.502685
O30   O     O_3   0.499990 0.999990 0.500010 -0.244479
O31   O     O_R   0.819150 0.845650 0.033320 -0.508293
O32   O     O_R   0.006060 0.815720 0.028680 -0.496999
O33   O     O_R   0.028100 0.664460 0.032550 -0.499618
O34   O     O_R   0.811290 0.477490 0.029660 -0.493867

loop_
_geom_bond_atom_site_label_1
_geom_bond_atom_site_label_2
_ccdc_geom_bond_type
C76   O26   S    
C25   C31   A    
C7    C10   S    
C63   C65   A    
C84   H30   S    
C97   H70   S    
C85   H32   S    
C27   C29   A    
C41   C42   A    
C35   C36   A    
C69   O32   A    
C96   H64   S    
C75   C76   A    
C43   C51   S    
C95   H63   S    
C80   H15   S    
C14   C99   S    
C39   C41   A    
C80   H17   S    
C18   O21   S    
C91   H50   S    
C12   C23   A    
C84   H29   S    
C26   C27   A    
C29   C30   A    
C81   H18   S    
C45   C76   A    
C28   O18   A    
C6    C98   S    
C35   C38   A    
C36   C37   A    
C91   H48   S    
Cr2   O19   S    
Cr3   O15   S    
C25   C40   S    
C30   C31   A    
Cr2   O14   S    
C70   C78   S    
C68   C74   S    
C33   C83   S    
C79   H13   S    
C17   C20   A    
C56   C78   T    
C92   H53   S    
C18   C19   A    
C99   H74   S    
Cr6   O2    S    
C93   H54   S    
C82   H21   S    
C70   O2    A    
C63   C68   A    
C84   O22   S    
C58   C66   S    
C2    C7    A    
C45   C56   S    
Cr2   O30   S    
C8    C9    S    
C96   H66   S    
C79   H14   S    
C48   C88   S    
C52   O17   A    
Cr4   O11   S    
C82   H24   S    
C87   H39   S    
C98   H73   S    
C97   O28   S    
C65   H3    S    
Cr2   O13   S    
C86   H35   S    
C34   C75   A    
C4    O15   A    
C39   C52   S    
C74   O10   A    
Cr5   O7    S    
C59   C60   A    
C26   C82   S    
C96   H65   S    
C79   H11   S    
C50   H56   S    
C87   O26   S    
Cr6   O9    S    
C15   C20   A    
C69   O33   A    
C59   C95   S    
C31   H23   S    
C49   C91   S    
C90   H44   S    
C77   H8    S    
C61   C66   A    
C94   H60   S    
C72   O7    A    
C44   C46   A    
C50   C51   A    
C81   O21   S    
C74   O5    A    
C80   H16   S    
C1    O4    A    
Cr6   O11   S    
C5    O28   S    
C40   O23   A    
C2    H6    S    
C61   H78   S    
C70   O34   A    
C97   H68   S    
C81   H19   S    
C64   C67   T    
C19   C22   S    
C96   O27   S    
C10   C89   T    
C83   H25   S    
C90   H47   S    
C3    C8    A    
C94   H59   S    
C86   O25   S    
C28   C54   S    
C12   C45   A    
C47   C51   A    
C62   H2    S    
C83   H27   S    
C25   C26   A    
Cr5   O8    S    
C17   C80   S    
C92   H52   S    
C42   C90   S    
Cr6   O3    S    
C63   H4    S    
C93   H55   S    
Cr6   O10   S    
C43   C44   A    
C44   H67   S    
C83   H26   S    
C55   C92   S    
C75   C77   S    
Cr1   O18   S    
Cr3   O30   S    
C47   C48   A    
C47   H45   S    
C3    H7    S    
C23   C34   A    
C30   O25   S    
Cr1   O4    S    
C11   C69   S    
C17   C18   A    
C88   H43   S    
C92   H51   S    
C32   C37   A    
C98   H72   S    
Cr3   O23   S    
Cr4   O31   S    
Cr5   O33   S    
C73   O8    A    
C16   O16   A    
C91   H49   S    
C39   C46   A    
Cr4   O6    S    
Cr1   O17   S    
C35   O24   S    
C4    O14   A    
C49   C50   A    
C79   O20   S    
C57   C94   S    
C9    C11   T    
C12   C93   S    
C1    C13   S    
C42   C43   A    
C71   O3    A    
Cr1   O30   S    
C95   H61   S    
Cr4   O32   S    
C72   O6    A    
C85   O24   S    
C86   H37   S    
C27   H12   S    
C94   H58   S    
C23   H5    S    
C54   C55   A    
Cr5   O11   S    
C97   H69   S    
C87   H40   S    
C81   H20   S    
C98   H71   S    
C14   C19   A    
Cr4   O5    S    
C90   H46   S    
C95   H62   S    
C34   C67   S    
C5    C8    A    
C15   O20   S    
C16   O1    A    
C6    C7    A    
C48   C53   A    
C71   O31   A    
C4    C64   S    
C33   C38   A    
C62   C68   A    
C82   H22   S    
C54   C60   A    
C28   O19   A    
C32   C33   A    
C46   H77   S    
C55   C57   A    
C2    C3    A    
C58   C59   A    
C99   H75   S    
C77   H10   S    
C1    O13   A    
Cr3   O29   S    
C57   C58   A    
C5    C6    A    
C93   H57   S    
C49   C53   A    
C85   H33   S    
C88   H42   S    
C13   C22   T    
C36   O22   S    
C61   C62   A    
Cr1   O1    S    
Cr5   O34   S    
C41   H34   S    
C73   O9    A    
C85   H31   S    
Cr2   O12   S    
C16   C89   S    
C20   C21   S    
C24   C71   S    
C65   C66   A    
C21   C24   T    
C29   C37   S    
C52   O29   A    
C88   H41   S    
C14   C15   A    
C99   H76   S    
C32   H1    S    
C87   H38   S    
Cr3   O16   S    
C53   C72   S    
C60   O27   S    
C84   H28   S    
C38   C73   S    
C77   H9    S    
C86   H36   S    
C40   O12   A    
