data_mof_unit_38489.cif
_audit_creation_date              2012-10-26T17:10:23-0400
_audit_creation_method            fapswitch 2.2
_symmetry_space_group_name_H-M    P1
_symmetry_Int_Tables_number       1
_space_group_crystal_system       triclinic
_cell_length_a                    16.945963
_cell_length_b                    16.937058
_cell_length_c                    16.92864
_cell_angle_alpha                 67.748451
_cell_angle_beta                  67.691856
_cell_angle_gamma                 67.601023
_cell_volume                      3997.39054619

loop_
_atom_site_label
_atom_site_type_symbol
_atom_type_description
_atom_site_fract_x
_atom_site_fract_y
_atom_site_fract_z
_atom_type_partial_charge
C1    C     C_R   0.591046 0.029801 0.597179 -0.030060
C2    C     C_R   0.400766 0.982580 0.405833 -0.036949
C3    C     C_R   0.018697 0.599190 0.593748 -0.036331
C4    C     C_R   0.974854 0.407516 0.402117 -0.031194
C5    C     C_R   0.599006 0.593280 0.019876 -0.036959
C6    C     C_R   0.408679 0.403657 0.969770 -0.030874
C7    C     C_R   0.028173 0.828624 0.564742 0.797171
C8    C     C_R   0.975542 0.170964 0.433648 0.800448
C9    C     C_R   0.828596 0.564789 0.028484 0.796518
C10   C     C_R   0.171049 0.433980 0.974564 0.803539
C11   C     C_R   0.564255 0.029655 0.828851 0.804439
C12   C     C_R   0.433801 0.975745 0.171066 0.784080
C13   C     C_R   0.435536 0.171185 0.970683 0.803654
C14   C     C_R   0.566210 0.828920 0.024429 0.785042
C15   C     C_R   0.971174 0.435564 0.171119 0.804549
C16   C     C_R   0.024095 0.566308 0.828938 0.780790
C17   C     C_R   0.171386 0.972103 0.435117 0.796656
C18   C     C_R   0.829006 0.024721 0.566338 0.800971
C19   C     C_R   0.539670 0.018260 0.550014 0.134217
C20   C     C_R   0.448066 0.995016 0.456474 0.136850
C21   C     C_R   0.007298 0.551462 0.542999 0.137261
C22   C     C_R   0.985813 0.458505 0.449926 0.136986
C23   C     C_R   0.552133 0.542529 0.006883 0.133721
C24   C     C_R   0.459796 0.450608 0.982102 0.134684
C25   C     C_R   0.542922 0.932614 0.554737 -0.181617
C26   C     C_R   0.441082 0.080694 0.455329 -0.182185
C27   C     C_R   0.081851 0.501306 0.492413 -0.153986
C28   C     C_R   0.911220 0.508935 0.500226 -0.155358
C29   C     C_R   0.503045 0.490302 0.080378 -0.154796
C30   C     C_R   0.510219 0.501482 0.908536 -0.154230
C31   C     C_R   0.498950 0.921038 0.506699 -0.153154
C32   C     C_R   0.487883 0.092328 0.500699 -0.154761
C33   C     C_R   0.458130 0.443645 0.068000 -0.188991
C34   C     C_R   0.557097 0.546264 0.920885 -0.185551
C35   C     C_R   0.071110 0.456844 0.444312 -0.178575
C36   C     C_R   0.921956 0.556938 0.544851 -0.178365
C37   C     C_R   0.548971 0.045299 0.680876 -0.081627
C38   C     C_R   0.439421 0.986058 0.315369 -0.079135
C39   C     C_R   0.034671 0.682573 0.550713 -0.086736
C40   C     C_R   0.980776 0.316653 0.439976 -0.088137
C41   C     C_R   0.682296 0.550619 0.036555 -0.083250
C42   C     C_R   0.317956 0.442219 0.974825 -0.086017
C43   C     C_R   0.317141 0.967027 0.448703 -0.086279
C44   C     C_R   0.682419 0.021793 0.559810 -0.088156
C45   C     C_R   0.450375 0.319042 0.956269 -0.081023
C46   C     C_R   0.560625 0.684168 0.015083 -0.079407
C47   C     C_R   0.960692 0.449983 0.317991 -0.081908
C48   C     C_R   0.013352 0.561307 0.684629 -0.080530
C49   C     C_R   0.599404 0.046172 0.730663 -0.153913
C50   C     C_R   0.397144 0.966367 0.268972 -0.154603
C51   C     C_R   0.041350 0.730448 0.599747 -0.105418
C52   C     C_R   0.965542 0.268601 0.396037 -0.153614
C53   C     C_R   0.730218 0.599917 0.042334 -0.107204
C54   C     C_R   0.269015 0.397019 0.962569 -0.153246
C55   C     C_R   0.269546 0.959420 0.399951 -0.105849
C56   C     C_R   0.731196 0.035776 0.603914 -0.153886
C57   C     C_R   0.400217 0.269441 0.954520 -0.154147
C58   C     C_R   0.602893 0.730949 0.034311 -0.153447
C59   C     C_R   0.956678 0.400293 0.268981 -0.152526
C60   C     C_R   0.033362 0.603230 0.731066 -0.156316
C61   C     C_R   0.686227 0.055839 0.686936 0.079010
C62   C     C_R   0.317293 0.941305 0.316795 0.095598
C63   C     C_R   0.058885 0.682896 0.683167 0.098581
C64   C     C_R   0.945391 0.314000 0.313185 0.078621
C65   C     C_R   0.682653 0.683267 0.059761 0.099428
C66   C     C_R   0.313738 0.313420 0.943828 0.077456
Cu1   Cu    Cu3+1 0.995180 0.995180 0.424630 0.934281
Cu2   Cu    Cu3+1 0.004820 0.004820 0.575370 0.935703
Cu3   Cu    Cu3+1 0.995180 0.424630 0.995180 0.929108
Cu4   Cu    Cu3+1 0.004820 0.575370 0.004820 0.944615
Cu5   Cu    Cu3+1 0.424630 0.995180 0.995180 0.935053
Cu6   Cu    Cu3+1 0.575370 0.004820 0.004820 0.937593
H1    H     H_    0.483781 0.158790 0.497566 0.120944
H2    H     H_    0.504079 0.854540 0.508971 0.118513
H3    H     H_    0.863895 0.597225 0.581956 0.114104
H4    H     H_    0.129181 0.419884 0.403896 0.114679
H5    H     H_    0.596503 0.584643 0.863508 0.114864
H6    H     H_    0.421076 0.402930 0.125348 0.115456
H7    H     H_    0.400404 0.138336 0.418336 0.114943
H8    H     H_    0.580654 0.874849 0.594587 0.114514
H9    H     H_    0.513176 0.506322 0.841877 0.120309
H10   H     H_    0.499663 0.485804 0.147074 0.121958
H11   H     H_    0.845008 0.511450 0.504308 0.117553
H12   H     H_    0.148089 0.497214 0.489840 0.118473
O1    O     O_R   0.124540 0.978640 0.385460 -0.584623
O2    O     O_R   0.875460 0.021360 0.614540 -0.575622
O3    O     O_R   0.978640 0.385460 0.124540 -0.575923
O4    O     O_R   0.021360 0.614540 0.875460 -0.592094
O5    O     O_R   0.385460 0.124540 0.978640 -0.574959
O6    O     O_R   0.614540 0.875460 0.021360 -0.592986
O7    O     O_R   0.614540 0.021360 0.875460 -0.574487
O8    O     O_R   0.385460 0.978640 0.124540 -0.593825
O9    O     O_R   0.875460 0.614540 0.021360 -0.583293
O10   O     O_R   0.124540 0.385460 0.978640 -0.576604
O11   O     O_R   0.021360 0.875460 0.614540 -0.583886
O12   O     O_R   0.978640 0.124540 0.385460 -0.575514
O13   O     O_R   0.013780 0.867370 0.487190 -0.579210
O14   O     O_R   0.986220 0.132630 0.512810 -0.580206
O15   O     O_R   0.867370 0.487190 0.013780 -0.576056
O16   O     O_R   0.132630 0.512810 0.986220 -0.577351
O17   O     O_R   0.487190 0.013780 0.867370 -0.579185
O18   O     O_R   0.512810 0.986220 0.132630 -0.572175
O19   O     O_R   0.512810 0.132630 0.986220 -0.577607
O20   O     O_R   0.487190 0.867370 0.013780 -0.572168
O21   O     O_R   0.986220 0.512810 0.132630 -0.579390
O22   O     O_R   0.013780 0.487190 0.867370 -0.573986
O23   O     O_R   0.132630 0.986220 0.512810 -0.578382
O24   O     O_R   0.867370 0.013780 0.487190 -0.579721
C67   C     C_R   0.450959 0.068060 0.712181 0.159958
C68   C     C_R   0.400775 0.157327 0.701197 -0.178011
C69   C     C_R   0.308146 0.178850 0.731565 -0.147254
C70   C     C_R   0.265907 0.111282 0.775221 -0.152049
C71   C     C_R   0.315819 0.022714 0.786762 -0.126002
C72   C     C_R   0.407958 0.000894 0.753037 -0.049621
H13   H     H_    0.433374 0.209870 0.668970 0.106492
H14   H     H_    0.269327 0.247643 0.722572 0.120812
H15   H     H_    0.194595 0.126681 0.800422 0.102295
H16   H     H_    0.282548 0.971308 0.821789 0.112775
H17   H     H_    0.446435 0.932134 0.760919 0.108505
C73   C     C_R   0.528096 0.002097 0.273541 0.174154
C74   C     C_R   0.536574 0.088193 0.247733 -0.127398
C75   C     C_R   0.619849 0.103459 0.204362 -0.141140
C76   C     C_R   0.693684 0.034243 0.181337 -0.102582
C77   C     C_R   0.685909 0.948109 0.208398 -0.124808
C78   C     C_R   0.603926 0.931309 0.257104 -0.095828
H18   H     H_    0.478819 0.143314 0.260458 0.102040
H19   H     H_    0.626710 0.169429 0.186584 0.123164
H20   H     H_    0.757393 0.047036 0.143778 0.091596
H21   H     H_    0.743109 0.894585 0.191045 0.103413
H22   H     H_    0.598366 0.864381 0.277385 0.097186
C79   C     C_R   0.057376 0.712091 0.452521 0.157462
C80   C     C_R   0.145908 0.686862 0.402687 -0.160748
C81   C     C_R   0.167912 0.713067 0.309944 -0.138270
C82   C     C_R   0.101980 0.766254 0.266924 -0.141012
C83   C     C_R   0.013786 0.790091 0.316334 -0.119581
C84   C     C_R   0.990946 0.761023 0.408941 -0.057174
H23   H     H_    0.197449 0.646256 0.435846 0.114698
H24   H     H_    0.235965 0.692704 0.271391 0.117088
H25   H     H_    0.118586 0.788095 0.195300 0.098842
H26   H     H_    0.963490 0.830355 0.282258 0.111530
H27   H     H_    0.922468 0.778143 0.447291 0.113059
C85   C     C_R   0.996948 0.275399 0.528692 0.175566
C86   C     C_R   0.082693 0.251861 0.537426 -0.130033
C87   C     C_R   0.097962 0.210375 0.620909 -0.147510
C88   C     C_R   0.029513 0.186034 0.694531 -0.104307
C89   C     C_R   0.943972 0.210179 0.686285 -0.127587
C90   C     C_R   0.926731 0.257691 0.604300 -0.090167
H28   H     H_    0.137557 0.265005 0.479747 0.102122
H29   H     H_    0.163564 0.194401 0.628003 0.125207
H30   H     H_    0.042381 0.149586 0.758430 0.091953
H31   H     H_    0.891319 0.191414 0.743124 0.099450
H32   H     H_    0.860129 0.275944 0.598557 0.087948
C91   C     C_R   0.713140 0.452727 0.059862 0.162241
C92   C     C_R   0.706216 0.403541 0.148958 -0.165604
C93   C     C_R   0.737360 0.310969 0.170915 -0.149449
C94   C     C_R   0.777704 0.267801 0.103818 -0.155893
C95   C     C_R   0.784810 0.316816 0.015423 -0.128226
C96   C     C_R   0.750759 0.408924 0.993395 -0.058266
H33   H     H_    0.676732 0.436909 0.201013 0.109554
H34   H     H_    0.731370 0.273011 0.239624 0.121183
H35   H     H_    0.803453 0.196448 0.119468 0.102752
H36   H     H_    0.816116 0.282853 0.964327 0.116250
H37   H     H_    0.755114 0.446817 0.924977 0.108545
C97   C     C_R   0.277394 0.532740 0.986874 0.174036
C98   C     C_R   0.252210 0.545136 0.071349 -0.118193
C99   C     C_R   0.206954 0.629417 0.083938 -0.143060
C100  C     C_R   0.181742 0.700384 0.013755 -0.105676
C101  C     C_R   0.208139 0.688783 0.929134 -0.124977
C102  C     C_R   0.258433 0.605828 0.914854 -0.106397
H38   H     H_    0.265994 0.489428 0.127575 0.101358
H39   H     H_    0.189074 0.638922 0.148849 0.117226
H40   H     H_    0.142310 0.764607 0.024799 0.091440
H41   H     H_    0.188105 0.743421 0.875087 0.108721
H42   H     H_    0.277445 0.597095 0.849305 0.094903
C103  C     C_R   0.287779 0.944100 0.546799 0.159189
C104  C     C_R   0.312691 0.855373 0.596107 -0.160447
C105  C     C_R   0.286837 0.833000 0.688801 -0.139978
C106  C     C_R   0.234360 0.898772 0.732319 -0.147075
C107  C     C_R   0.211304 0.987276 0.683421 -0.124495
C108  C     C_R   0.239745 0.010390 0.590778 -0.056614
H43   H     H_    0.352857 0.803968 0.562564 0.115351
H44   H     H_    0.307208 0.764812 0.726907 0.119702
H45   H     H_    0.212940 0.881781 0.803978 0.101442
H46   H     H_    0.172657 0.037607 0.717949 0.113220
H47   H     H_    0.223346 0.079013 0.552710 0.112672
C109  C     C_R   0.723586 0.005115 0.471321 0.176223
C110  C     C_R   0.748112 0.918976 0.463106 -0.128076
C111  C     C_R   0.789694 0.903260 0.379767 -0.148803
C112  C     C_R   0.812857 0.971836 0.305668 -0.102867
C113  C     C_R   0.787782 0.057760 0.313416 -0.128226
C114  C     C_R   0.740645 0.075238 0.395431 -0.092633
H48   H     H_    0.735698 0.864158 0.521072 0.101019
H49   H     H_    0.806554 0.837284 0.373139 0.121761
H50   H     H_    0.849389 0.958667 0.241873 0.091669
H51   H     H_    0.805617 0.110519 0.256185 0.099969
H52   H     H_    0.721819 0.142095 0.400842 0.088997
C115  C     C_R   0.548228 0.287213 0.934585 0.162578
C116  C     C_R   0.598806 0.295711 0.845721 -0.173746
C117  C     C_R   0.691291 0.264115 0.825094 -0.148302
C118  C     C_R   0.733001 0.221819 0.893219 -0.155410
C119  C     C_R   0.682709 0.213441 0.981414 -0.129597
C120  C     C_R   0.590654 0.247944 0.002269 -0.051927
H53   H     H_    0.566596 0.326762 0.792788 0.105358
H54   H     H_    0.730305 0.271225 0.756558 0.120891
H55   H     H_    0.804253 0.195665 0.878546 0.102253
H56   H     H_    0.715748 0.180927 0.033228 0.114871
H57   H     H_    0.551870 0.242264 0.070707 0.107691
C121  C     C_R   0.471952 0.725990 0.998900 0.175985
C122  C     C_R   0.463543 0.753495 0.912537 -0.125971
C123  C     C_R   0.380129 0.796669 0.897322 -0.143304
C124  C     C_R   0.305901 0.817452 0.967062 -0.100352
C125  C     C_R   0.313672 0.788874 0.053400 -0.127913
C126  C     C_R   0.396018 0.740899 0.069923 -0.098825
H58   H     H_    0.521450 0.742279 0.857179 0.100959
H59   H     H_    0.373497 0.816013 0.831026 0.121101
H60   H     H_    0.242108 0.855065 0.954350 0.091923
H61   H     H_    0.256242 0.804713 0.107280 0.104791
H62   H     H_    0.401595 0.719565 0.137005 0.097795
C127  C     C_R   0.939474 0.548262 0.287504 0.156599
C128  C     C_R   0.851233 0.599263 0.311621 -0.161198
C129  C     C_R   0.830109 0.691949 0.283896 -0.138987
C130  C     C_R   0.896666 0.733830 0.230363 -0.142818
C131  C     C_R   0.984663 0.683421 0.207733 -0.119500
C132  C     C_R   0.006749 0.590857 0.238445 -0.052621
H63   H     H_    0.799190 0.567011 0.352505 0.112305
H64   H     H_    0.762218 0.731343 0.303294 0.117789
H65   H     H_    0.880688 0.805393 0.207317 0.099270
H66   H     H_    0.035351 0.716782 0.166886 0.109462
H67   H     H_    0.075291 0.552073 0.221778 0.111384
C133  C     C_R   0.995174 0.473599 0.726768 0.174689
C134  C     C_R   0.908600 0.466860 0.751020 -0.132191
C135  C     C_R   0.891887 0.384061 0.792433 -0.141588
C136  C     C_R   0.959810 0.309143 0.816056 -0.100853
C137  C     C_R   0.046138 0.315437 0.791308 -0.129542
C138  C     C_R   0.064704 0.396726 0.743696 -0.086222
H68   H     H_    0.854345 0.525468 0.738066 0.101975
H69   H     H_    0.825809 0.378297 0.808333 0.124443
H70   H     H_    0.945978 0.245707 0.852221 0.091954
H71   H     H_    0.098469 0.257544 0.809341 0.097880
H72   H     H_    0.131975 0.400901 0.724642 0.091749
C139  C     C_3   0.720665 0.106683 0.718829 -0.340443
C140  C     C_3   0.781151 0.047520 0.780264 -0.665574
H73   H     H_    0.751784 0.061406 0.846066 0.231816
H74   H     H_    0.792225 0.975826 0.790014 0.247862
H75   H     H_    0.846401 0.062217 0.752291 0.216201
H76   H     H_    0.755857 0.151681 0.660786 0.168183
H77   H     H_    0.663413 0.152840 0.753507 0.182237
C141  C     C_3   0.296755 0.874631 0.292453 -0.345840
C142  C     C_3   0.297996 0.788249 0.367459 -0.878383
H78   H     H_    0.308445 0.733211 0.341201 0.233150
H79   H     H_    0.353534 0.769959 0.396435 0.247897
H80   H     H_    0.234330 0.795206 0.420385 0.252804
H81   H     H_    0.232526 0.902389 0.275747 0.227403
H82   H     H_    0.348006 0.854563 0.234053 0.205764
C143  C     C_3   0.125424 0.703393 0.707674 -0.346831
C144  C     C_3   0.211940 0.702039 0.632739 -0.882923
H83   H     H_    0.266885 0.691508 0.659087 0.232442
H84   H     H_    0.230274 0.646489 0.603647 0.247219
H85   H     H_    0.205109 0.765722 0.579853 0.254026
H86   H     H_    0.097638 0.767689 0.724386 0.227850
H87   H     H_    0.145304 0.652159 0.766086 0.204107
C145  C     C_3   0.893128 0.280533 0.281975 -0.337843
C146  C     C_3   0.950959 0.219725 0.220450 -0.673466
H88   H     H_    0.022919 0.207939 0.209928 0.245825
H89   H     H_    0.935517 0.154810 0.248806 0.217680
H90   H     H_    0.936484 0.249251 0.154969 0.232077
H91   H     H_    0.848019 0.245794 0.340376 0.167777
H92   H     H_    0.847001 0.338226 0.247725 0.181020
C147  C     C_3   0.701971 0.706480 0.127992 -0.347350
C148  C     C_3   0.694823 0.632626 0.215333 -0.885206
H93   H     H_    0.687048 0.657961 0.270082 0.233936
H94   H     H_    0.635324 0.609977 0.232531 0.246678
H95   H     H_    0.754966 0.575186 0.210378 0.246901
H96   H     H_    0.767872 0.719147 0.103230 0.228728
H97   H     H_    0.652644 0.766862 0.145624 0.206310
C149  C     C_3   0.279737 0.281580 0.892494 -0.335875
C150  C     C_3   0.219152 0.220318 0.951047 -0.670945
H98   H     H_    0.248835 0.154416 0.937353 0.232678
H99   H     H_    0.207374 0.210761 0.022854 0.245769
H100  H     H_    0.154235 0.248362 0.935462 0.215464
H101  H     H_    0.244625 0.339728 0.847348 0.169316
H102  H     H_    0.337172 0.246878 0.846484 0.182660

loop_
_geom_bond_atom_site_label_1
_geom_bond_atom_site_label_2
_ccdc_geom_bond_type
C25   C31   A    
C146  H90   S    
C39   C51   A    
Cu5   O20   S    
C55   C62   A    
C26   C32   A    
C121  C126  A    
C6    C45   A    
C40   C85   S    
C25   H8    S    
Cu2   O2    S    
C119  C120  A    
C66   C149  S    
C69   C70   A    
C8    O12   A    
C57   C66   A    
C136  H70   S    
C122  H58   S    
Cu4   O4    S    
C88   C89   A    
C128  C129  A    
C76   C77   A    
C21   C36   A    
C81   H24   S    
C73   C74   A    
C46   C121  S    
C22   C35   A    
C45   C57   A    
C142  H78   S    
C98   C99   A    
Cu6   O18   S    
C147  H96   S    
C60   C63   A    
C17   O1    A    
C23   C29   A    
C149  H102  S    
C97   C98   A    
C89   C90   A    
C90   H32   S    
C17   O23   A    
C34   H5    S    
C145  H92   S    
C70   H15   S    
C141  H82   S    
C33   H6    S    
C13   C57   S    
C125  H61   S    
C10   O10   A    
C45   C115  S    
C105  H44   S    
C144  H85   S    
C29   C33   A    
C3    C48   A    
C109  C114  A    
C118  H55   S    
C4    C22   S    
C27   H12   S    
C139  C140  S    
C16   C60   S    
C85   C86   A    
C75   H19   S    
C8    O14   A    
C114  H52   S    
C14   O6    A    
C5    C41   A    
C1    C44   A    
C127  C132  A    
C68   C69   A    
C43   C103  S    
C78   H22   S    
C95   C96   A    
C63   C143  S    
Cu5   O8    S    
C143  H87   S    
C118  C119  A    
C144  H84   S    
C77   H21   S    
C140  H74   S    
C102  H42   S    
C69   H14   S    
Cu2   O23   S    
C13   O19   A    
C2    C43   A    
C65   C147  S    
C136  C137  A    
C17   C55   S    
C145  C146  S    
C37   C67   S    
C88   H30   S    
Cu3   O3    S    
C1    C37   A    
C38   C73   S    
C18   O24   A    
C124  H60   S    
Cu5   O17   S    
C3    C39   A    
C117  C118  A    
C9    O15   A    
C22   C28   A    
C147  C148  S    
C46   C58   A    
C28   H11   S    
C101  H41   S    
C116  H53   S    
C148  H95   S    
C97   C102  A    
C104  H43   S    
C10   C54   S    
C19   C32   A    
C112  H50   S    
C134  H68   S    
C70   C71   A    
Cu4   O16   S    
C48   C60   A    
C41   C91   S    
C130  C131  A    
C61   C139  S    
C83   H26   S    
C14   C58   S    
C35   H4    S    
Cu1   O1    S    
Cu2   O11   S    
C142  H79   S    
C147  H97   S    
C2    C20   S    
C139  H76   S    
C140  H75   S    
C106  C107  A    
C132  H67   S    
C83   C84   A    
Cu4   O9    S    
C49   C61   A    
C131  C132  A    
C71   C72   A    
C79   C84   A    
C52   C64   A    
C82   H25   S    
C148  H93   S    
Cu6   O7    S    
C30   C34   A    
C131  H66   S    
C121  C122  A    
C31   H2    S    
C27   C35   A    
C80   H23   S    
C40   C52   A    
C1    C19   S    
C47   C127  S    
C129  H64   S    
C115  C116  A    
C133  C134  A    
C26   H7    S    
C71   H16   S    
C150  H100  S    
C111  C112  A    
C94   C95   A    
C106  H45   S    
Cu1   Cu2   S    
C113  C114  A    
C12   O18   A    
C129  C130  A    
C11   C49   S    
C36   H3    S    
C81   C82   A    
C37   C49   A    
C44   C56   A    
C58   C65   A    
C14   O20   A    
C124  C125  A    
Cu5   O5    S    
C62   C141  S    
C119  H56   S    
C23   C34   A    
C6    C24   S    
C144  H83   S    
C146  H88   S    
C122  C123  A    
C59   C64   A    
C51   C63   A    
C133  C138  A    
C11   O17   A    
C18   O2    A    
C149  C150  S    
C10   O16   A    
C18   C56   S    
C41   C53   A    
C92   C93   A    
C116  C117  A    
C64   C145  S    
C29   H10   S    
C96   H37   S    
C109  C110  A    
C54   C66   A    
Cu3   O15   S    
C43   C55   A    
C101  C102  A    
C134  C135  A    
C79   C80   A    
C111  H49   S    
Cu3   O10   S    
C47   C59   A    
C120  H57   S    
C150  H99   S    
C6    C42   A    
Cu1   O12   S    
C50   C62   A    
C148  H94   S    
C3    C21   S    
C24   C30   A    
C9    C53   S    
C137  C138  A    
C113  H51   S    
C143  C144  S    
C9    O9    A    
C100  C101  A    
C92   H33   S    
C141  C142  S    
C91   C96   A    
C15   O3    A    
C107  H46   S    
C112  C113  A    
C146  H89   S    
C8    C52   S    
C143  H86   S    
C104  C105  A    
C142  H80   S    
C7    O13   A    
C87   H29   S    
C13   O5    A    
C93   H34   S    
C141  H81   S    
C130  H65   S    
C15   C59   S    
C85   C90   A    
C12   O8    A    
C72   H17   S    
C87   C88   A    
C20   C26   A    
Cu4   O21   S    
C94   H35   S    
C12   C50   S    
Cu3   O22   S    
C74   C75   A    
C100  H40   S    
C38   C50   A    
Cu6   O19   S    
C16   O22   A    
C107  C108  A    
C7    O11   A    
C5    C46   A    
C5    C23   S    
C82   C83   A    
C32   H1    S    
C24   C33   A    
C117  H54   S    
C115  C120  A    
Cu1   O24   S    
C4    C40   A    
C2    C38   A    
C15   O21   A    
C30   H9    S    
C127  C128  A    
C86   C87   A    
C91   C92   A    
C140  H73   S    
C7    C51   S    
C74   H18   S    
C103  C104  A    
C67   C68   A    
C42   C54   A    
C76   H20   S    
C99   C100  A    
C39   C79   S    
C53   C65   A    
C67   C72   A    
C145  H91   S    
C48   C133  S    
C73   C78   A    
C84   H27   S    
C110  H48   S    
C128  H63   S    
C80   C81   A    
C42   C97   S    
C137  H71   S    
C123  C124  A    
C21   C27   A    
Cu3   Cu4   S    
C19   C25   A    
Cu2   O14   S    
C86   H28   S    
C135  H69   S    
Cu1   O13   S    
C103  C108  A    
C126  H62   S    
C89   H31   S    
C11   O7    A    
C99   H39   S    
Cu5   Cu6   S    
C125  C126  A    
C28   C36   A    
C68   H13   S    
C105  C106  A    
C149  H101  S    
C108  H47   S    
C44   C109  S    
C93   C94   A    
C16   O4    A    
C56   C61   A    
C4    C47   A    
C139  H77   S    
C110  C111  A    
Cu6   O6    S    
C75   C76   A    
C150  H98   S    
C95   H36   S    
C98   H38   S    
C138  H72   S    
C123  H59   S    
C135  C136  A    
C77   C78   A    
C20   C31   A    
