data_mof_unit_42666.cif
_audit_creation_date              2012-12-10T18:16:28-0500
_audit_creation_method            fapswitch 2.2
_symmetry_space_group_name_H-M    P1
_symmetry_Int_Tables_number       1
_space_group_crystal_system       triclinic
_cell_length_a                    12.653642
_cell_length_b                    13.057496
_cell_length_c                    27.673908
_cell_angle_alpha                 92.008125
_cell_angle_beta                  103.427322
_cell_angle_gamma                 81.683699
_cell_volume                      4400.66104171

loop_
_atom_site_label
_atom_site_type_symbol
_atom_type_description
_atom_site_fract_x
_atom_site_fract_y
_atom_site_fract_z
_atom_type_partial_charge
C1    C     C_R   0.438573 0.691641 0.495631 0.913657
C2    C     C_R   0.459811 0.607894 0.023105 0.054706
C3    C     C_R   0.466646 0.417797 0.019834 -0.031187
C4    C     C_R   0.501883 0.499648 0.593950 0.951822
C5    C     C_R   0.462915 0.512295 0.046736 0.071104
C6    C     C_R   0.461579 0.699313 0.051972 -0.205048
C7    C     C_R   0.465429 0.696763 0.102447 -0.119357
C8    C     C_R   0.466697 0.603260 0.125741 -0.022784
C9    C     C_R   0.463542 0.511039 0.097799 -0.048430
C10   C     C_R   0.462407 0.417381 0.121145 -0.050675
C11   C     C_R   0.467889 0.417082 0.172221 0.523203
C12   C     C_R   0.407601 0.507427 0.713476 -0.021685
C13   C     C_R   0.471988 0.599424 0.176708 0.513245
C14   C     C_R   0.578158 0.519201 0.284408 -0.094578
C15   C     C_R   0.584588 0.516973 0.335208 -0.206968
C16   C     C_R   0.561355 0.308545 0.505878 0.842706
C17   C     C_R   0.394836 0.485389 0.318663 -0.199657
C18   C     C_R   0.388738 0.487638 0.267968 -0.091243
C19   C     C_R   0.480214 0.504705 0.250839 0.306307
C20   C     C_R   0.458001 0.608498 0.971804 0.048604
C21   C     C_R   0.480356 0.513201 0.947579 0.079136
C22   C     C_R   0.491450 0.417998 0.972501 0.058951
C23   C     C_R   0.508650 0.508926 0.748591 0.166793
C24   C     C_R   0.437399 0.701002 0.944060 -0.200934
C25   C     C_R   0.549550 0.327155 0.902598 -0.116582
C26   C     C_R   0.447662 0.327205 0.042078 -0.060691
C27   C     C_R   0.451605 0.327079 0.092925 -0.167433
C28   C     C_R   0.498161 0.499695 0.406042 0.856987
C29   C     C_R   0.534253 0.326851 0.950659 -0.143179
C30   C     C_R   0.694896 0.073212 0.578893 -0.180977
C31   C     C_R   0.598682 0.200137 0.517400 -0.048804
C32   C     C_R   0.306049 0.835037 0.453703 -0.240958
C33   C     C_R   0.280055 0.939067 0.440177 0.011403
C34   C     C_R   0.493229 0.512967 0.898218 -0.044651
C35   C     C_R   0.352774 0.007576 0.462205 -0.222059
C36   C     C_R   0.448509 0.973880 0.499493 0.077491
C37   C     C_R   0.460567 0.874431 0.519344 -0.043593
C38   C     C_R   0.530873 0.036546 0.518138 0.066757
C39   C     C_R   0.616632 0.005333 0.560557 0.126102
C40   C     C_R   0.482237 0.603682 0.822091 0.609426
C41   C     C_R   0.617752 0.911368 0.585225 0.079831
C42   C     C_R   0.533060 0.849996 0.566286 -0.181523
C43   C     C_R   0.529838 0.130381 0.495141 -0.219427
C44   C     C_R   0.684455 0.170469 0.558037 -0.191501
C45   C     C_R   0.473762 0.606390 0.871625 -0.019506
C46   C     C_R   0.397916 0.802027 0.491645 -0.122497
C47   C     C_R   0.094194 0.331737 0.438149 -0.269514
C48   C     C_R   0.800859 0.625648 0.561794 0.018544
C49   C     C_R   0.908272 0.643069 0.579984 -0.217720
C50   C     C_R   0.990024 0.590486 0.558845 -0.134626
C51   C     C_R   0.964012 0.524471 0.517419 0.012997
C52   C     C_R   0.534058 0.420194 0.826036 0.627060
C53   C     C_R   0.855101 0.501788 0.503806 0.241487
C54   C     C_R   0.042647 0.474485 0.491517 -0.057010
C55   C     C_R   0.015418 0.389629 0.459845 0.172260
C56   C     C_R   0.444429 0.699675 0.894675 -0.123019
C57   C     C_R   0.909267 0.364210 0.449534 -0.257761
C58   C     C_R   0.829427 0.421799 0.469957 -0.203170
C59   C     C_R   0.146464 0.505849 0.494456 0.044032
C60   C     C_R   0.198947 0.358898 0.447253 0.002488
C61   C     C_R   0.607868 0.507343 0.732865 -0.013174
C62   C     C_R   0.604340 0.502812 0.682006 -0.194319
C63   C     C_R   0.407442 0.504194 0.663026 -0.189334
C64   C     C_2   0.716074 0.511043 0.768238 0.954384
C65   C     C_2   0.407527 0.236959 0.013045 0.897823
C66   C     C_3   0.705315 0.879947 0.632404 -0.421581
C67   C     C_R   0.525754 0.419221 0.875486 -0.016876
C68   C     C_3   0.672918 0.930735 0.678367 -0.746464
C69   C     C_2   0.300968 0.509210 0.728159 0.945885
C70   C     C_2   0.180794 0.975142 0.401043 0.927051
C71   C     C_2   0.503409 0.774961 0.599005 0.941450
C72   C     C_2   0.167430 0.611277 0.510588 0.911976
C73   C     C_R   0.504880 0.501605 0.647153 -0.051345
C74   C     C_R   0.492754 0.500325 0.352683 -0.044006
H1    H     H_    0.330576 0.503258 0.635883 0.212735
H2    H     H_    0.257270 0.778909 0.433390 0.208272
H3    H     H_    0.330883 0.087346 0.450786 0.170019
H4    H     H_    0.261588 0.312845 0.431923 0.151198
H5    H     H_    0.887204 0.300655 0.424739 0.163921
H6    H     H_    0.075087 0.265523 0.414788 0.185116
H7    H     H_    0.736700 0.664190 0.578371 0.164209
H8    H     H_    0.427348 0.772329 0.874716 0.194898
H9    H     H_    0.073018 0.598238 0.577466 0.187189
H10   H     H_    0.928535 0.694688 0.611190 0.168290
H11   H     H_    0.749015 0.399737 0.459982 0.208823
H12   H     H_    0.579700 0.254854 0.886753 0.193373
H13   H     H_    0.661090 0.528440 0.360647 0.174240
H14   H     H_    0.649088 0.532041 0.271036 0.148349
H15   H     H_    0.468358 0.768558 0.123247 0.199761
H16   H     H_    0.464644 0.773639 0.036970 0.153124
H17   H     H_    0.412740 0.775456 0.959215 0.150184
H18   H     H_    0.679348 0.501386 0.669325 0.210616
H19   H     H_    0.880975 0.495010 0.778471 0.360055
H20   H     H_    0.402691 0.083032 0.010694 0.349932
H21   H     H_    0.661082 0.016355 0.675199 0.251700
H22   H     H_    0.595608 0.905798 0.683018 0.276906
H23   H     H_    0.322770 0.472456 0.331097 0.172102
H24   H     H_    0.738670 0.907360 0.711861 0.258099
H25   H     H_    0.723131 0.795482 0.637725 0.242738
H26   H     H_    0.786596 0.898164 0.629777 0.191081
H27   H     H_    0.220426 0.483302 0.780586 0.358849
H28   H     H_    0.091444 0.092427 0.357437 0.349255
H29   H     H_    0.342577 0.836229 0.584091 0.312943
H30   H     H_    0.124740 0.764551 0.498265 0.347782
H31   H     H_    0.440864 0.257099 0.110085 0.226698
H32   H     H_    0.312931 0.476537 0.241907 0.148537
H33   H     H_    0.559034 0.254740 0.970834 0.150778
H34   H     H_    0.738390 0.224911 0.575885 0.165542
H35   H     H_    0.760314 0.056779 0.611512 0.157673
H36   H     H_    0.471607 0.154869 0.461110 0.140340
N1    N     N_R   0.510054 0.511266 0.800332 -0.323383
N2    N     N_R   0.473544 0.507097 0.198765 -0.358651
N3    N     N_R   0.222180 0.444690 0.474320 -0.144007
N4    N     N_R   0.776980 0.554780 0.525420 -0.133261
O1    O     O_R   0.366730 0.627160 0.487740 -0.588564
O2    O     O_R   0.410930 0.482330 0.420550 -0.623363
O3    O     O_R   0.589030 0.517690 0.436960 -0.635345
O4    O     O_2   0.461910 0.692084 0.795602 -0.540952
O5    O     O_2   0.721548 0.533821 0.811889 -0.621140
O6    O     O_R   0.812850 0.489594 0.751241 -0.801053
O7    O     O_2   0.346813 0.249615 0.971669 -0.594034
O8    O     O_R   0.435882 0.137839 0.033816 -0.801126
O9    O     O_2   0.214650 0.536533 0.698118 -0.617620
O10   O     O_R   0.297907 0.478373 0.775624 -0.810271
O11   O     O_2   0.115324 0.915746 0.383453 -0.600022
O12   O     O_2   0.475203 0.687048 0.204067 -0.541563
O13   O     O_R   0.161718 0.077285 0.384071 -0.837595
O14   O     O_2   0.573344 0.711234 0.623403 -0.614718
O15   O     O_R   0.394626 0.776468 0.602501 -0.732180
O16   O     O_2   0.235295 0.624771 0.548719 -0.591543
O17   O     O_R   0.104934 0.696024 0.483172 -0.790998
O18   O     O_2   0.563656 0.330998 0.803365 -0.557163
O19   O     O_2   0.468601 0.327588 0.195369 -0.544060
O20   O     O_R   0.544830 0.662520 0.504140 -0.610739
O21   O     O_R   0.410970 0.482310 0.563040 -0.589145
O22   O     O_R   0.589070 0.517670 0.579450 -0.608141
O23   O     O_R   0.455170 0.337480 0.495860 -0.618728
O24   O     O_R   0.633270 0.372840 0.512260 -0.640200
Zn1   Zn    Zn3+2 0.381080 0.476390 0.489050 0.986750
Zn2   Zn    Zn3+2 0.618920 0.523610 0.510950 0.957664

loop_
_geom_bond_atom_site_label_1
_geom_bond_atom_site_label_2
_ccdc_geom_bond_type
C10   C27   A    
C70   O13   S    
C66   C68   S    
C12   C69   S    
C58   H11   S    
C8    C13   A    
C22   C29   A    
C41   C42   A    
C57   H5    S    
C40   O4    S    
C35   C36   A    
C25   C67   A    
O22   Zn2   S    
C28   C74   S    
C7    C8    A    
C39   C41   A    
C19   N2    S    
C16   C31   S    
O21   Zn1   S    
O23   Zn1   S    
C12   C23   A    
C60   H4    S    
C26   C27   A    
C68   H22   S    
C64   O5    D    
C31   C43   A    
C49   H10   S    
C15   H13   S    
C36   C37   A    
C13   N2    A    
C28   O3    A    
C11   O19   S    
O20   Zn2   S    
C38   C39   A    
C1    C46   S    
C27   H31   S    
C7    H15   S    
C48   H7    S    
C18   C19   A    
C66   H26   S    
C37   C42   A    
C25   H12   S    
C28   O2    A    
C47   C60   A    
C16   O23   A    
C45   C56   A    
C8    C9    A    
H30   O17   S    
C62   H18   S    
N3    Zn1   S    
C62   C73   A    
C43   H36   S    
N4    Zn2   S    
C9    C10   A    
C59   C72   S    
C4    O22   A    
O2    Zn1   S    
C47   C55   A    
C21   C22   A    
C30   C44   A    
C60   N3    A    
C2    C6    A    
C47   H6    S    
C50   H9    S    
C50   C51   A    
C40   N1    A    
C54   C59   A    
C44   H34   S    
C25   C29   A    
C40   C45   A    
C68   H21   S    
C31   C44   A    
C30   H35   S    
C2    C20   A    
H27   O10   S    
C20   C24   A    
H28   O13   S    
C12   C63   A    
C21   C34   A    
C63   C73   A    
C52   N1    A    
C6    H16   S    
C35   H3    S    
C51   C53   A    
C52   O18   S    
C66   H25   S    
C61   C64   S    
C18   H32   S    
C5    C9    A    
C71   O15   S    
C59   N3    A    
C17   C18   A    
C34   C45   A    
C65   O8    S    
C56   H8    S    
H29   O15   S    
C4    C73   S    
C6    C7    A    
C52   C67   A    
O24   Zn2   S    
C33   C70   S    
C4    O21   A    
C13   O12   S    
H20   O8    S    
C70   O11   D    
C48   C49   A    
H19   O6    S    
O1    Zn1   S    
C65   O7    D    
C55   C57   A    
C17   C74   A    
C71   O14   D    
O3    Zn2   S    
C1    O20   A    
C24   H17   S    
C53   N4    A    
C72   O17   S    
C48   N4    A    
C54   C55   A    
C11   N2    A    
C26   C65   S    
C32   C46   A    
C14   C19   A    
C3    C26   A    
C16   O24   A    
C3    C5    A    
C34   C67   A    
C32   H2    S    
C53   C58   A    
C72   O16   D    
C41   C66   S    
C24   C56   A    
C23   N1    S    
C64   O6    S    
C51   C54   A    
C32   C33   A    
C36   C38   A    
C14   H14   S    
C38   C43   A    
C57   C58   A    
C63   H1    S    
C42   C71   S    
C33   C35   A    
C30   C39   A    
C61   C62   A    
C68   H24   S    
C10   C11   A    
C69   O10   S    
C2    C5    A    
C23   C61   A    
C15   C74   A    
C20   C21   A    
C49   C50   A    
C69   O9    D    
C14   C15   A    
C29   H33   S    
C3    C22   A    
C1    O1    A    
C37   C46   A    
C17   H23   S    
