data_mof_unit_7044.cif
_audit_creation_date              2012-12-10T18:10:46-0500
_audit_creation_method            fapswitch 2.2
_symmetry_space_group_name_H-M    P1
_symmetry_Int_Tables_number       1
_space_group_crystal_system       triclinic
_cell_length_a                    12.637565
_cell_length_b                    13.242471
_cell_length_c                    15.735028
_cell_angle_alpha                 92.274495
_cell_angle_beta                  103.292434
_cell_angle_gamma                 80.733566
_cell_volume                      2529.29657605

loop_
_atom_site_label
_atom_site_type_symbol
_atom_type_description
_atom_site_fract_x
_atom_site_fract_y
_atom_site_fract_z
_atom_type_partial_charge
C1    C     C_R   0.437860 0.691032 0.490133 0.842044
C2    C     C_3   0.389080 0.564556 0.030177 -0.436650
C3    C     C_3   0.497471 0.502778 0.082537 0.302670
C4    C     C_3   0.507631 0.392341 0.045536 -0.442127
C5    C     C_3   0.516334 0.393986 0.949345 -0.431816
C6    C     C_1   0.494450 0.499582 0.173498 -0.104036
C7    C     C_1   0.505568 0.502964 0.826564 -0.129082
C8    C     C_1   0.505406 0.501178 0.751112 -0.191979
C9    C     C_R   0.710522 0.050450 0.487505 -0.208594
C10   C     C_R   0.598054 0.198530 0.531001 -0.092049
C11   C     C_R   0.318574 0.826761 0.548025 -0.183692
C12   C     C_R   0.501822 0.500091 0.661514 0.901641
C13   C     C_R   0.318550 0.915248 0.598043 -0.170094
C14   C     C_R   0.397890 0.977246 0.599349 -0.197549
C15   C     C_R   0.467063 0.961943 0.539234 0.073399
C16   C     C_R   0.467973 0.870351 0.489702 0.090071
C17   C     C_R   0.540106 0.030420 0.529598 0.018420
C18   C     C_R   0.628159 0.992656 0.488539 0.165283
C19   C     C_R   0.629092 0.900967 0.442607 -0.237961
C20   C     C_R   0.543870 0.846029 0.436172 -0.191565
C21   C     C_R   0.524642 0.136564 0.550814 -0.069128
C22   C     C_R   0.696183 0.152524 0.510096 -0.241445
C23   C     C_R   0.561575 0.308966 0.515698 0.854805
C24   C     C_R   0.399798 0.799668 0.500355 -0.113323
C25   C     C_R   0.076183 0.409483 0.340057 -0.312047
C26   C     C_R   0.802788 0.615322 0.614949 0.020665
C27   C     C_R   0.906922 0.643569 0.640097 -0.255957
C28   C     C_R   0.985778 0.608779 0.592405 -0.188583
C29   C     C_R   0.959935 0.546588 0.518169 -0.026775
C30   C     C_R   0.851925 0.521436 0.493461 0.191094
C31   C     C_R   0.038367 0.503007 0.469895 -0.026689
C32   C     C_R   0.001328 0.458033 0.387334 0.149482
C33   C     C_R   0.890865 0.450842 0.357664 -0.313142
C34   C     C_R   0.498373 0.499374 0.338501 0.887612
C35   C     C_R   0.827088 0.457450 0.419327 0.206694
C36   C     C_R   0.152333 0.496677 0.501744 -0.032807
C37   C     C_R   0.187531 0.402363 0.376496 0.015298
C38   C     C_3   0.387800 0.562582 0.931019 -0.124219
C39   C     C_3   0.599092 0.555652 0.973447 -0.437901
C40   C     C_3   0.599655 0.549621 0.071836 -0.118445
C41   C     C_1   0.494753 0.498736 0.248892 -0.185653
C42   C     C_3   0.502120 0.506173 0.917628 0.302100
H1    H     H_    0.377647 0.643755 0.056055 0.177582
H2    H     H_    0.326716 0.512697 0.899022 0.127633
H3    H     H_    0.317686 0.530557 0.040004 0.153423
H4    H     H_    0.581591 0.343438 0.084353 0.167392
H5    H     H_    0.756918 0.196199 0.501364 0.161782
H6    H     H_    0.692729 0.874673 0.407487 0.138471
H7    H     H_    0.781456 0.019256 0.461575 0.136059
H8    H     H_    0.264994 0.773423 0.556114 0.154781
H9    H     H_    0.406023 0.033915 0.650371 0.150602
H10   H     H_    0.262610 0.931510 0.641316 0.143279
H11   H     H_    0.541948 0.780218 0.393003 0.166201
H12   H     H_    0.246863 0.367642 0.339993 0.132443
H13   H     H_    0.865270 0.409559 0.297283 0.150994
H14   H     H_    0.048909 0.374742 0.276916 0.137855
H15   H     H_    0.187429 0.531941 0.562409 0.126092
H16   H     H_    0.741726 0.642142 0.652242 0.139722
H17   H     H_    0.065334 0.633027 0.613464 0.140343
H18   H     H_    0.926597 0.692120 0.696677 0.146772
H19   H     H_    0.678354 0.513529 0.962080 0.158771
H20   H     H_    0.596687 0.635071 0.953419 0.161565
H21   H     H_    0.673406 0.492952 0.100665 0.118367
H22   H     H_    0.452322 0.352940 0.908427 0.161646
H23   H     H_    0.597765 0.351610 0.943026 0.177307
H24   H     H_    0.434588 0.357363 0.049841 0.178086
N1    N     N_R   0.222200 0.444690 0.455710 -0.095345
N2    N     N_R   0.776960 0.554780 0.543830 -0.123849
O1    O     O_R   0.366740 0.627160 0.478850 -0.613469
O2    O     O_R   0.544830 0.662520 0.507140 -0.607128
O3    O     O_R   0.410920 0.482310 0.608710 -0.606192
O4    O     O_R   0.589010 0.517670 0.637000 -0.623479
O5    O     O_R   0.455170 0.337480 0.492860 -0.597521
O6    O     O_R   0.633260 0.372840 0.521150 -0.626289
O7    O     O_R   0.410990 0.482330 0.363000 -0.617536
O8    O     O_R   0.589080 0.517690 0.391290 -0.608279
Zn1   Zn    Zn3+2 0.381090 0.476390 0.481110 0.948727
Zn2   Zn    Zn3+2 0.618910 0.523610 0.518890 0.930676
C43   C     C_R   0.426033 0.187092 0.581906 0.127515
C44   C     C_R   0.439011 0.235907 0.663797 -0.165091
C45   C     C_R   0.346804 0.284704 0.692520 -0.112943
C46   C     C_R   0.241331 0.285636 0.639746 -0.119541
C47   C     C_R   0.227728 0.238357 0.557814 -0.138679
C48   C     C_R   0.319606 0.190323 0.528339 -0.085123
H25   H     H_    0.520340 0.235903 0.705206 0.111982
H26   H     H_    0.357076 0.322226 0.755544 0.117878
H27   H     H_    0.170149 0.323773 0.662010 0.122341
H28   H     H_    0.146036 0.240114 0.516654 0.132174
H29   H     H_    0.308194 0.155144 0.464229 0.118557
C49   C     C_R   0.340547 0.668249 0.889918 0.125286
C50   C     C_R   0.231478 0.709256 0.893502 -0.175521
C51   C     C_R   0.182746 0.805538 0.858721 -0.131764
C52   C     C_R   0.241893 0.862805 0.819637 -0.123763
C53   C     C_R   0.349329 0.823260 0.814343 -0.156447
C54   C     C_R   0.398084 0.726500 0.848065 -0.148292
H30   H     H_    0.183940 0.666391 0.923797 0.120404
H31   H     H_    0.099101 0.835866 0.862389 0.123425
H32   H     H_    0.204359 0.937661 0.793180 0.117682
H33   H     H_    0.395241 0.867599 0.783893 0.135751
H34   H     H_    0.480120 0.699509 0.840168 0.127833
C55   C     C_3   0.792060 0.357299 0.430018 -0.824878
H35   H     H_    0.842812 0.292232 0.403683 0.193880
H36   H     H_    0.809786 0.341285 0.500817 0.238911
H37   H     H_    0.706322 0.355301 0.394086 0.257882
C56   C     C_R   0.614082 0.650468 0.120861 0.133180
C57   C     C_R   0.692968 0.649701 0.200403 -0.144934
C58   C     C_R   0.708439 0.740327 0.246825 -0.130543
C59   C     C_R   0.645628 0.833114 0.214439 -0.126514
C60   C     C_R   0.566888 0.835268 0.135902 -0.139789
C61   C     C_R   0.551049 0.744807 0.089308 -0.158676
H38   H     H_    0.742355 0.578702 0.226853 0.126230
H39   H     H_    0.769411 0.738479 0.307842 0.129971
H40   H     H_    0.658085 0.903490 0.249925 0.123362
H41   H     H_    0.518355 0.907270 0.110780 0.129640
H42   H     H_    0.490579 0.749490 0.028240 0.143159

loop_
_geom_bond_atom_site_label_1
_geom_bond_atom_site_label_2
_ccdc_geom_bond_type
C33   H13   S    
C56   C61   A    
C55   H35   S    
O2    Zn2   S    
C58   H39   S    
O1    Zn1   S    
C19   C20   A    
N1    Zn1   S    
C25   H14   S    
C5    C42   S    
C3    C6    S    
C44   H25   S    
C45   C46   A    
C36   N1    A    
C7    C8    T    
C4    H4    S    
C10   C22   A    
C26   C27   A    
C52   C53   A    
C40   H21   S    
C30   C35   A    
C28   C29   A    
O8    Zn2   S    
C38   C42   S    
C27   H18   S    
C14   H9    S    
C43   C48   A    
C9    C22   A    
C57   C58   A    
C46   H27   S    
C11   C24   A    
C59   C60   A    
C18   C19   A    
C7    C42   S    
O4    Zn2   S    
C25   C37   A    
C50   H30   S    
C31   C32   A    
C6    C41   T    
C58   C59   A    
C45   H26   S    
C16   C20   A    
C34   O7    A    
C25   C32   A    
C22   H5    S    
C12   O4    A    
C16   C24   A    
C13   C14   A    
C34   C41   S    
C23   O5    A    
C51   H31   S    
C39   C42   S    
C57   H38   S    
C2    H3    S    
N2    Zn2   S    
C39   H19   S    
C49   C54   A    
C9    H7    S    
C5    H23   S    
C36   H15   S    
C50   C51   A    
C54   H34   S    
C44   C45   A    
C1    O1    A    
C5    H22   S    
C59   H40   S    
C38   H2    S    
C29   C30   A    
C13   H10   S    
C26   H16   S    
C2    C38   S    
C47   C48   A    
C14   C15   A    
C2    H1    S    
C8    C12   S    
C21   C43   S    
C17   C18   A    
O7    Zn1   S    
C60   H41   S    
C37   H12   S    
C20   H11   S    
C12   O3    A    
C3    C40   S    
C55   H37   S    
C48   H29   S    
C23   O6    A    
C3    C4    S    
O3    Zn1   S    
C28   H17   S    
C15   C17   A    
C39   H20   S    
C19   H6    S    
C4    C5    S    
C35   C55   S    
C10   C21   A    
C10   C23   S    
C56   C57   A    
C38   C49   S    
C1    O2    A    
C26   N2    A    
C32   C33   A    
C52   H32   S    
C2    C3    S    
C29   C31   A    
C11   H8    S    
C60   C61   A    
C4    H24   S    
C11   C13   A    
C49   C50   A    
C53   H33   S    
C37   N1    A    
C51   C52   A    
C33   C35   A    
C47   H28   S    
C53   C54   A    
C17   C21   A    
C43   C44   A    
C39   C40   S    
C9    C18   A    
C1    C24   S    
C55   H36   S    
C46   C47   A    
O6    Zn2   S    
C27   C28   A    
O5    Zn1   S    
C31   C36   A    
C61   H42   S    
C30   N2    A    
C15   C16   A    
C34   O8    A    
C40   C56   S    
