data_mof_unit_35616.cif
_audit_creation_date              2012-12-10T18:04:29-0500
_audit_creation_method            fapswitch 2.2
_symmetry_space_group_name_H-M    P1
_symmetry_Int_Tables_number       1
_space_group_crystal_system       triclinic
_cell_length_a                    19.164335
_cell_length_b                    18.3109
_cell_length_c                    12.657427
_cell_angle_alpha                 89.277522
_cell_angle_beta                  98.623734
_cell_angle_gamma                 90.005413
_cell_volume                      4391.12383722

loop_
_atom_site_label
_atom_site_type_symbol
_atom_type_description
_atom_site_fract_x
_atom_site_fract_y
_atom_site_fract_z
_atom_type_partial_charge
C1    C     C_R   0.406759 0.097799 0.441852 0.817334
C2    C     C_R   0.407708 0.901309 0.442537 0.820322
C3    C     C_R   0.906759 0.597799 0.441852 0.817330
C4    C     C_R   0.907708 0.401309 0.442537 0.820318
C5    C     C_R   0.702648 0.259996 0.509288 -0.102023
C6    C     C_R   0.704748 0.741058 0.517186 -0.104048
C7    C     C_R   0.202649 0.759995 0.509285 -0.101992
C8    C     C_R   0.204748 0.241057 0.517186 -0.104043
C9    C     C_R   0.700615 0.302269 0.601571 -0.004782
C10   C     C_R   0.708372 0.703005 0.615878 -0.017547
C11   C     C_R   0.200613 0.802271 0.601563 -0.004851
C12   C     C_R   0.208372 0.203005 0.615878 -0.017545
C13   C     C_R   0.233471 0.870208 0.607334 -0.171948
C14   C     C_R   0.243008 0.136144 0.627525 -0.187743
C15   C     C_R   0.733473 0.370206 0.607339 -0.171842
C16   C     C_R   0.743008 0.636145 0.627525 -0.187712
C17   C     C_R   0.275274 0.889597 0.530863 -0.228054
C18   C     C_R   0.280715 0.113386 0.548690 -0.219625
C19   C     C_R   0.775274 0.389596 0.530867 -0.228111
C20   C     C_R   0.780715 0.613386 0.548690 -0.219622
C21   C     C_R   0.652936 0.205422 0.487218 0.430792
C22   C     C_R   0.653121 0.794203 0.493567 0.435381
C23   C     C_R   0.152940 0.705418 0.487216 0.430789
C24   C     C_R   0.153121 0.294203 0.493567 0.435380
C25   C     C_R   0.630471 0.208097 0.670695 -0.357162
C26   C     C_R   0.637435 0.797262 0.680237 -0.326003
C27   C     C_R   0.130463 0.708104 0.670687 -0.357018
C28   C     C_R   0.137435 0.297263 0.680238 -0.325998
C29   C     C_R   0.353508 0.847186 0.406340 -0.102114
C30   C     C_R   0.349965 0.149835 0.405492 -0.105322
C31   C     C_R   0.853506 0.347187 0.406340 -0.102108
C32   C     C_R   0.849965 0.649835 0.405492 -0.105321
C33   C     C_R   0.635426 0.050545 0.137497 -0.272008
C34   C     C_R   0.135427 0.550543 0.137497 -0.271999
C35   C     C_R   0.378752 0.986648 0.763978 0.027107
C36   C     C_R   0.878751 0.486649 0.763978 0.027106
C37   C     C_R   0.351730 0.984312 0.859528 -0.232776
C38   C     C_R   0.851730 0.484313 0.859528 -0.232771
C39   C     C_R   0.586652 0.895880 0.553936 0.986092
C40   C     C_R   0.586378 0.104313 0.552729 0.978893
C41   C     C_R   0.086652 0.395880 0.553936 0.986094
C42   C     C_R   0.086377 0.604314 0.552729 0.978900
C43   C     C_R   0.396535 0.994873 0.954743 -0.165271
C44   C     C_R   0.896535 0.494874 0.954743 -0.165268
C45   C     C_R   0.468911 0.008678 0.954627 -0.030971
C46   C     C_R   0.968912 0.508678 0.954627 -0.030965
C47   C     C_R   0.494703 0.012243 0.854856 0.137362
C48   C     C_R   0.994703 0.512242 0.854856 0.137359
C49   C     C_R   0.517207 0.016636 0.050329 -0.017503
C50   C     C_R   0.017207 0.516635 0.050329 -0.017506
C51   C     C_R   0.585621 0.044376 0.045532 0.109086
C52   C     C_R   0.085622 0.544374 0.045532 0.109067
C53   C     C_R   0.606599 0.058839 0.948236 -0.297295
C54   C     C_R   0.106600 0.558836 0.948236 -0.297172
C55   C     C_R   0.567620 0.031142 0.856843 0.367320
C56   C     C_R   0.067620 0.531140 0.856843 0.367320
C57   C     C_R   0.501754 0.995570 0.150949 -0.036755
C58   C     C_R   0.001754 0.495570 0.150949 -0.036753
C59   C     C_R   0.617744 0.026626 0.233515 0.082733
C60   C     C_R   0.117744 0.526625 0.233515 0.082734
C61   C     C_R   0.663203 0.276847 0.682472 0.538070
C62   C     C_R   0.675275 0.731841 0.698486 0.526813
C63   C     C_R   0.163197 0.776848 0.682459 0.538055
C64   C     C_R   0.175276 0.231841 0.698487 0.526804
C65   C     C_R   0.624663 0.172610 0.572203 -0.244421
C66   C     C_R   0.626967 0.828966 0.577703 -0.253131
C67   C     C_R   0.124662 0.672611 0.572200 -0.244491
C68   C     C_R   0.126967 0.328966 0.577703 -0.253135
C69   C     C_R   0.365629 0.798610 0.326062 -0.200255
C70   C     C_R   0.356383 0.195020 0.317119 -0.209588
C71   C     C_R   0.865625 0.298612 0.326060 -0.200261
C72   C     C_R   0.856384 0.695021 0.317120 -0.209584
C73   C     C_R   0.323734 0.737190 0.305557 -0.189241
C74   C     C_R   0.312694 0.255224 0.294172 -0.195324
C75   C     C_R   0.823728 0.237193 0.305553 -0.189251
C76   C     C_R   0.812695 0.755225 0.294173 -0.195324
C77   C     C_R   0.270137 0.723145 0.365670 -0.126336
C78   C     C_R   0.262987 0.271584 0.359734 -0.123790
C79   C     C_R   0.770132 0.223148 0.365667 -0.126343
C80   C     C_R   0.762988 0.771585 0.359735 -0.123794
C81   C     C_R   0.253695 0.773968 0.441910 0.135323
C82   C     C_R   0.251935 0.224175 0.445072 0.126086
C83   C     C_R   0.753692 0.273969 0.441911 0.135321
C84   C     C_R   0.751936 0.724175 0.445072 0.126085
C85   C     C_R   0.294128 0.837853 0.458875 0.091534
C86   C     C_R   0.294118 0.161268 0.465543 0.091212
C87   C     C_R   0.794127 0.337853 0.458877 0.091536
C88   C     C_R   0.794118 0.661269 0.465543 0.091209
H1    H     H_    0.607437 0.184249 0.736158 0.202251
H2    H     H_    0.614179 0.821239 0.744606 0.227003
H3    H     H_    0.107413 0.684274 0.736149 0.202309
H4    H     H_    0.114181 0.321240 0.744607 0.227006
H5    H     H_    0.660406 0.077028 0.946329 0.195908
H6    H     H_    0.160407 0.577025 0.946329 0.195907
H7    H     H_    0.687924 0.071832 0.134714 0.142267
H8    H     H_    0.187926 0.571829 0.134714 0.142272
H9    H     H_    0.450593 0.975833 0.163402 0.123273
H10   H     H_    0.950593 0.475834 0.163402 0.123272
H11   H     H_    0.344033 0.978193 0.690760 0.114252
H12   H     H_    0.844032 0.478195 0.690761 0.114247
H13   H     H_    0.373041 0.994023 0.027064 0.138964
H14   H     H_    0.873042 0.494025 0.027064 0.138964
H15   H     H_    0.296064 0.974293 0.859706 0.161729
H16   H     H_    0.796064 0.474295 0.859706 0.161741
H17   H     H_    0.226161 0.908588 0.669195 0.172103
H18   H     H_    0.240539 0.101050 0.696439 0.181751
H19   H     H_    0.726164 0.408587 0.669201 0.172144
H20   H     H_    0.740539 0.601050 0.696439 0.181760
H21   H     H_    0.410094 0.805717 0.283289 0.157898
H22   H     H_    0.398042 0.186507 0.269393 0.158418
H23   H     H_    0.910089 0.305718 0.283285 0.157897
H24   H     H_    0.898042 0.686508 0.269394 0.158421
H25   H     H_    0.744837 0.170550 0.354820 0.180199
H26   H     H_    0.736570 0.823585 0.345396 0.189596
H27   H     H_    0.244844 0.670546 0.354825 0.180201
H28   H     H_    0.236569 0.323584 0.345395 0.189596
H29   H     H_    0.335432 0.698133 0.247102 0.147863
H30   H     H_    0.320172 0.291819 0.228961 0.146917
H31   H     H_    0.835424 0.198137 0.247096 0.147860
H32   H     H_    0.820174 0.791820 0.228962 0.146920
H33   H     H_    0.294685 0.944252 0.530057 0.141350
H34   H     H_    0.301118 0.059111 0.556573 0.153152
H35   H     H_    0.794685 0.444251 0.530061 0.141359
H36   H     H_    0.801118 0.559111 0.556573 0.153153
H37   H     H_    0.654755 0.032479 0.306279 0.144050
H38   H     H_    0.154755 0.532477 0.306279 0.144055
N1    N     N_R   0.552340 0.000000 0.237260 -0.107525
N2    N     N_R   0.052340 0.500000 0.237260 -0.107527
N3    N     N_R   0.448170 0.000000 0.762060 -0.116864
N4    N     N_R   0.948170 0.500000 0.762060 -0.116863
O1    O     O_R   0.448200 0.076800 0.373930 -0.621340
O2    O     O_R   0.448200 0.923200 0.373930 -0.624975
O3    O     O_R   0.948200 0.576800 0.373930 -0.621343
O4    O     O_R   0.948200 0.423200 0.373930 -0.624975
O5    O     O_R   0.414750 0.076790 0.542400 -0.630980
O6    O     O_R   0.414750 0.923210 0.542400 -0.625601
O7    O     O_R   0.914750 0.576790 0.542400 -0.630981
O8    O     O_R   0.914750 0.423210 0.542400 -0.625601
O9    O     O_R   0.585240 0.923200 0.457600 -0.569333
O10   O     O_R   0.585240 0.076800 0.457600 -0.578721
O11   O     O_R   0.085240 0.423200 0.457600 -0.569333
O12   O     O_R   0.085240 0.576800 0.457600 -0.578716
O13   O     O_R   0.551780 0.923190 0.626070 -0.559591
O14   O     O_R   0.551780 0.076810 0.626070 -0.584377
O15   O     O_R   0.051780 0.423190 0.626070 -0.559594
O16   O     O_R   0.051780 0.576810 0.626070 -0.584374
Zn1   Zn    Zn3+2 0.522330 0.000000 0.387520 0.976040
Zn2   Zn    Zn3+2 0.022330 0.500000 0.387520 0.976040
Zn3   Zn    Zn3+2 0.477660 0.000000 0.612480 0.975037
Zn4   Zn    Zn3+2 0.977660 0.500000 0.612480 0.975040
Cl1   Cl    Cl    0.627415 0.993826 0.780872 -0.638632
Cl2   Cl    Cl    0.127416 0.493826 0.780870 -0.638629
O17   O     O_3   0.666418 0.314915 0.776931 -0.603646
C89   C     C_3   0.597918 0.337781 0.789621 -0.331598
H39   H     H_    0.571326 0.367744 0.717489 0.156293
H40   H     H_    0.602270 0.375998 0.857595 0.200164
H41   H     H_    0.565148 0.290879 0.809319 0.167144
O18   O     O_3   0.678901 0.696023 0.795961 -0.606232
C90   C     C_3   0.734950 0.726103 0.866959 -0.314723
H42   H     H_    0.786253 0.719584 0.836786 0.160540
H43   H     H_    0.739055 0.696294 0.944496 0.196824
H44   H     H_    0.725148 0.784671 0.882272 0.181035
O19   O     O_3   0.166396 0.814905 0.776919 -0.603583
C91   C     C_3   0.097923 0.838037 0.789308 -0.331791
H45   H     H_    0.071647 0.868259 0.717205 0.156340
H46   H     H_    0.102267 0.876095 0.857472 0.200227
H47   H     H_    0.064866 0.791239 0.808535 0.167104
O20   O     O_3   0.178903 0.196026 0.795963 -0.606241
C92   C     C_3   0.234958 0.226098 0.866953 -0.314751
H48   H     H_    0.286256 0.219567 0.836778 0.160547
H49   H     H_    0.239062 0.196294 0.944494 0.196822
H50   H     H_    0.225167 0.284667 0.882261 0.181040
O21   O     O_3   0.629351 0.187392 0.381832 -0.608690
C93   C     C_3   0.571433 0.232621 0.342693 -0.268378
H51   H     H_    0.527364 0.225350 0.390056 0.150722
H52   H     H_    0.551459 0.216923 0.259264 0.186733
H53   H     H_    0.587445 0.291025 0.341573 0.153938
O22   O     O_3   0.624570 0.808280 0.388022 -0.600165
C94   C     C_3   0.568705 0.758999 0.358570 -0.266100
H54   H     H_    0.544653 0.771479 0.275043 0.186031
H55   H     H_    0.526712 0.764939 0.409894 0.149234
H56   H     H_    0.588134 0.701619 0.361433 0.158233
O23   O     O_3   0.129358 0.687386 0.381830 -0.608689
C95   C     C_3   0.071441 0.732614 0.342684 -0.268362
H57   H     H_    0.027370 0.725347 0.390043 0.150715
H58   H     H_    0.051469 0.716914 0.259255 0.186749
H59   H     H_    0.087454 0.791018 0.341560 0.153932
O24   O     O_3   0.124570 0.308279 0.388022 -0.600164
C96   C     C_3   0.068702 0.259001 0.358573 -0.266103
H60   H     H_    0.044651 0.271479 0.275045 0.186031
H61   H     H_    0.026708 0.264945 0.409896 0.149232
H62   H     H_    0.088127 0.201620 0.361439 0.158226

loop_
_geom_bond_atom_site_label_1
_geom_bond_atom_site_label_2
_ccdc_geom_bond_type
C83   C87   A    
C72   H24   S    
C58   N2    A    
C92   H48   S    
C14   C18   A    
C53   C55   A    
O19   C91   S    
C58   H10   S    
C72   C76   A    
O6    Zn3   S    
C32   C72   A    
O21   C93   S    
O8    Zn4   S    
C15   C19   A    
C27   H3    S    
C19   H35   S    
C5    C9    A    
C18   C86   A    
C47   N3    A    
C2    C29   S    
C9    C61   A    
C4    O4    A    
C91   H45   S    
C28   C68   A    
C34   H8    S    
C19   C87   A    
C12   C64   A    
C59   N1    A    
N3    Zn3   S    
C6    C22   A    
C40   O10   A    
C49   C57   A    
C95   H57   S    
C80   H26   S    
C15   H19   S    
C96   H61   S    
C93   H51   S    
C22   C66   A    
C38   H16   S    
C70   H22   S    
O11   Zn2   S    
C8    C24   A    
O16   Zn4   S    
C69   H21   S    
N4    Zn4   S    
C44   C46   A    
C49   C51   A    
C71   H23   S    
C42   O12   A    
C2    O2    A    
C62   O18   S    
O1    Zn1   S    
C3    O7    A    
C45   C49   A    
C8    C12   A    
C30   C86   A    
C35   N3    A    
C29   C85   A    
O15   Zn4   S    
C80   C84   A    
C94   H56   S    
C21   C65   A    
C31   C71   A    
C33   C59   A    
C34   C60   A    
C92   H49   S    
C48   N4    A    
C10   C62   A    
C35   H11   S    
C33   H7    S    
O10   Zn1   S    
C30   C70   A    
C52   C54   A    
C38   C44   A    
O22   C94   S    
C41   C68   S    
C29   C69   A    
C45   C47   A    
C74   H30   S    
C39   O9    A    
C71   C75   A    
C73   H29   S    
C53   H5    S    
C26   C66   A    
O12   Zn2   S    
C60   N2    A    
C31   C87   A    
C89   H41   S    
C13   H17   S    
C37   H15   S    
C44   H14   S    
N2    Zn2   S    
C25   C61   A    
C25   H1    S    
C17   C85   A    
C82   C86   A    
C2    O6    A    
O24   C96   S    
C51   C53   A    
C5    C21   A    
C50   C58   A    
C37   C43   A    
C96   H62   S    
C7    C11   A    
O23   C95   S    
C43   H13   S    
C5    C83   A    
C70   C74   A    
O14   Zn3   S    
C54   H6    S    
C36   N4    A    
C78   C82   A    
C50   C52   A    
C90   H42   S    
C77   C81   A    
C26   H2    S    
C16   C20   A    
C57   H9    S    
C90   H43   S    
C89   H39   S    
C90   H44   S    
C25   C65   A    
C3    C32   S    
C28   H4    S    
O3    Zn2   S    
C76   H32   S    
C69   C73   A    
C43   C45   A    
C93   H53   S    
C23   O23   S    
C27   C63   A    
C18   H34   S    
C95   H59   S    
O9    Zn1   S    
C17   H33   S    
O20   C92   S    
C7    C81   A    
C39   O13   A    
C16   H20   S    
C21   O21   S    
C40   C65   S    
C79   H25   S    
C42   C67   S    
C39   C66   S    
C8    C82   A    
O7    Zn4   S    
C56   Cl2   S    
C63   O19   S    
C36   C38   A    
C42   O16   A    
C28   C64   A    
C47   C55   A    
C22   O22   S    
C48   C56   A    
C35   C37   A    
O2    Zn1   S    
C89   H40   S    
C91   H47   S    
C78   H28   S    
C76   C80   A    
C12   C14   A    
C1    O1    A    
C61   O17   S    
C57   N1    A    
C36   H12   S    
C54   C56   A    
C55   Cl1   S    
C33   C51   A    
O4    Zn2   S    
C41   O11   A    
C46   C50   A    
C34   C52   A    
C40   O14   A    
C13   C17   A    
C24   O24   S    
C91   H46   S    
C26   C62   A    
C64   O20   S    
C75   H31   S    
O5    Zn3   S    
C59   H37   S    
C79   C83   A    
C11   C13   A    
O18   C90   S    
C84   C88   A    
C23   C67   A    
C7    C23   A    
C20   C88   A    
C60   H38   S    
C1    C30   S    
C92   H50   S    
C95   H58   S    
C9    C15   A    
C96   H60   S    
C93   H52   S    
C20   H36   S    
C4    C31   S    
C27   C67   A    
C6    C10   A    
C24   C68   A    
C4    O8    A    
C94   H54   S    
C46   C48   A    
O13   Zn3   S    
C41   O15   A    
C6    C84   A    
C74   C78   A    
C14   H18   S    
C1    O5    A    
C73   C77   A    
C10   C16   A    
C3    O3    A    
O17   C89   S    
C77   H27   S    
C11   C63   A    
C75   C79   A    
C81   C85   A    
N1    Zn1   S    
C94   H55   S    
C32   C88   A    
