data_mof_unit_53338.cif
_audit_creation_date              2012-12-10T17:19:27-0500
_audit_creation_method            fapswitch 2.2
_symmetry_space_group_name_H-M    P1
_symmetry_Int_Tables_number       1
_space_group_crystal_system       triclinic
_cell_length_a                    15.144333
_cell_length_b                    10.880667
_cell_length_c                    9.659061
_cell_angle_alpha                 92.552846
_cell_angle_beta                  92.945168
_cell_angle_gamma                 93.813853
_cell_volume                      1584.16402802

loop_
_atom_site_label
_atom_site_type_symbol
_atom_type_description
_atom_site_fract_x
_atom_site_fract_y
_atom_site_fract_z
_atom_type_partial_charge
C1    C     C_R   0.497384 0.262707 0.496873 0.900116
C2    C     C_R   0.181493 0.444733 0.379439 -0.099095
C3    C     C_R   0.233273 0.503023 0.490574 -0.083192
C4    C     C_R   0.329252 0.499778 0.496853 0.844034
C5    C     C_R   0.193608 0.565189 0.597369 -0.164499
C6    C     C_R   0.628295 0.155200 0.667816 -0.214870
C7    C     C_R   0.676238 0.111191 0.778374 0.371025
C8    C     C_R   0.659062 0.990026 0.814122 0.459812
C9    C     C_R   0.600286 0.909982 0.729525 -0.221198
C10   C     C_R   0.554284 0.951851 0.611296 0.006426
C11   C     C_R   0.561873 0.079487 0.590285 0.012371
C12   C     C_R   0.916703 0.579622 0.590865 -0.052458
C13   C     C_R   0.503270 0.129505 0.492612 -0.129634
C14   C     C_R   0.446684 0.051243 0.401604 0.414830
C15   C     C_R   0.449343 0.924626 0.409609 -0.168355
C16   C     C_R   0.502262 0.738103 0.504129 0.858284
C17   C     C_R   0.501541 0.873219 0.512460 -0.118228
C18   C     C_R   0.624857 0.653398 0.160346 0.456793
C19   C     C_R   0.710437 0.660202 0.115047 -0.119691
C20   C     C_R   0.719969 0.646110 0.973265 -0.100053
C21   C     C_R   0.645225 0.616513 0.884236 -0.123534
C22   C     C_R   0.567048 0.564855 0.936079 0.092211
C23   C     C_R   0.942093 0.378529 0.276301 -0.161294
C24   C     C_R   0.562383 0.572722 0.083596 0.125769
C25   C     C_R   0.438746 0.431567 0.066351 -0.012146
C26   C     C_R   0.438311 0.431151 0.919111 0.468140
C27   C     C_R   0.671699 0.499698 0.501818 0.928178
C28   C     C_R   0.824733 0.593771 0.573893 0.324180
C29   C     C_R   0.769945 0.498744 0.501012 -0.275552
C30   C     C_R   0.809826 0.416436 0.407070 0.271105
C31   C     C_R   0.902058 0.432150 0.390699 -0.063340
C32   C     C_R   0.955671 0.504324 0.490891 -0.058519
C33   C     C_R   0.034126 0.383768 0.267691 0.386082
C34   C     C_R   0.088510 0.443266 0.377198 -0.004111
C35   C     C_R   0.048688 0.504987 0.487721 0.063690
C36   C     C_R   0.102100 0.568908 0.594856 0.060166
C37   C     C_R   0.063805 0.636491 0.698419 -0.186311
C38   C     C_R   0.972716 0.645355 0.695808 0.446075
Cl1   Cl    Cl    0.755880 0.211904 0.872356 -0.409799
Cl2   Cl    Cl    0.713174 0.938595 0.963318 -0.379740
Cl3   Cl    Cl    0.591859 0.803584 0.193064 -0.523583
Cl4   Cl    Cl    0.359298 0.328492 0.827754 -0.539054
Cl5   Cl    Cl    0.935680 0.732681 0.835593 -0.475779
Cu1   Cu    Cu3+1 0.499990 0.499990 0.640660 1.023986
Cu2   Cu    Cu3+1 0.500010 0.500010 0.359340 1.086841
H1    H     H_    0.644095 0.249907 0.644085 0.198381
H2    H     H_    0.234367 0.612838 0.681471 0.165420
H3    H     H_    0.105312 0.684882 0.781117 0.194623
H4    H     H_    0.698506 0.848349 0.454031 0.401338
H5    H     H_    0.825674 0.145731 0.373579 0.367655
H6    H     H_    0.173482 0.374291 0.971161 0.399589
H7    H     H_    0.263776 0.026842 0.137770 0.413246
H8    H     H_    0.590111 0.817375 0.760140 0.193645
H9    H     H_    0.408549 0.864492 0.336044 0.212735
H10   H     H_    0.388625 0.375887 0.115390 0.207919
H11   H     H_    0.764145 0.707222 0.179333 0.219904
H12   H     H_    0.782194 0.673633 0.932419 0.259969
H13   H     H_    0.649941 0.640239 0.780093 0.220357
H14   H     H_    0.901825 0.335800 0.189707 0.262894
H15   H     H_    0.214627 0.398246 0.297933 0.230392
N1    N     N_R   0.500860 0.501210 0.147910 -0.234590
N2    N     N_R   0.500890 0.501290 0.852040 -0.230287
O1    O     O_R   0.499990 0.319640 0.618810 -0.562668
O2    O     O_2   0.867102 0.830832 0.527803 -0.217072
O3    O     O_3   0.704263 0.758565 0.459925 -0.572651
O4    O     O_2   0.668523 0.248560 0.385122 -0.325834
O5    O     O_2   0.715226 0.340437 0.172952 -0.201373
O6    O     O_3   0.808080 0.172751 0.280210 -0.423998
O7    O     O_2   0.129778 0.208453 0.160313 -0.239564
O8    O     O_2   0.005492 0.270267 0.012711 -0.197398
O9    O     O_3   0.146330 0.420493 0.046963 -0.539836
O10   O     O_2   0.325053 0.211571 0.335268 -0.313242
O11   O     O_2   0.423914 0.148354 0.155249 -0.246019
O12   O     O_R   0.500000 0.319660 0.381240 -0.497440
O13   O     O_3   0.296339 0.992719 0.217291 -0.500647
O14   O     O_R   0.370250 0.499960 0.618800 -0.542151
O15   O     O_R   0.370260 0.499980 0.381230 -0.590399
O16   O     O_R   0.500000 0.680340 0.618760 -0.616948
O17   O     O_R   0.500010 0.680360 0.381190 -0.542911
O18   O     O_R   0.629740 0.500020 0.618770 -0.622913
O19   O     O_R   0.629750 0.500040 0.381200 -0.537818
O20   O     O_2   0.767482 0.790404 0.712859 -0.283686
S1    S     S_3+6 0.791421 0.747424 0.571624 0.011631
S2    S     S_3+6 0.746899 0.293910 0.309659 0.059928
S3    S     S_3+6 0.078235 0.315413 0.118201 0.054383
S4    S     S_3+6 0.372086 0.106010 0.274952 0.049360

loop_
_geom_bond_atom_site_label_1
_geom_bond_atom_site_label_2
_ccdc_geom_bond_type
C19   H11   S    
C24   N1    A    
C27   C29   S    
C35   C36   A    
H7    O13   S    
C7    C8    A    
C23   H14   S    
C5    H2    S    
C37   C38   A    
H4    O3    S    
C12   C28   A    
C18   C24   A    
C1    O12   A    
C36   C37   A    
C18   C19   A    
C30   C31   A    
C2    H15   S    
O3    S1    S    
C10   C17   A    
C5    C36   A    
C34   C35   A    
Cu1   O14   S    
C33   S3    S    
O9    S3    S    
C19   C20   A    
C16   C17   S    
C23   C33   A    
C9    C10   A    
C2    C34   A    
O5    S2    D    
C21   C22   A    
C12   C32   A    
C28   S1    S    
C12   C38   A    
H6    O9    S    
C1    O1    A    
Cu1   O1    S    
O6    S2    S    
C15   H9    S    
Cu1   O18   S    
C14   S4    S    
C27   O18   A    
C18   Cl3   S    
C6    C11   A    
C8    C9    A    
C4    O15   A    
Cu1   N2    S    
C25   C26   A    
Cu2   O12   S    
C23   C31   A    
C32   C35   A    
O2    S1    D    
C29   C30   A    
C22   N2    A    
O13   S4    S    
C31   C32   A    
C27   O19   A    
C33   C34   A    
Cu2   O17   S    
C25   N1    A    
C37   H3    S    
C22   C24   A    
C9    H8    S    
C3    C4    S    
O7    S3    D    
Cu1   Cu2   S    
C26   Cl4   S    
C15   C17   A    
C28   C29   A    
C6    H1    S    
Cu2   O19   S    
C25   H10   S    
C3    C5    A    
O10   S4    D    
C6    C7    A    
C16   O17   A    
Cu1   O16   S    
C2    C3    A    
C26   N2    A    
C21   H13   S    
C11   C13   A    
Cu2   N1    S    
C16   O16   A    
C30   S2    S    
O11   S4    D    
C4    O14   A    
C10   C11   A    
O4    S2    D    
C38   Cl5   S    
C1    C13   S    
C20   C21   A    
O20   S1    D    
C7    Cl1   S    
C14   C15   A    
Cu2   O15   S    
C8    Cl2   S    
C20   H12   S    
C13   C14   A    
O8    S3    D    
H5    O6    S    
