data_mof_unit_41030.cif
_audit_creation_date              2013-03-05T16:47:21-0500
_audit_creation_method            fapswitch 2.2
_symmetry_space_group_name_H-M    P1
_symmetry_Int_Tables_number       1
_space_group_crystal_system       triclinic
_cell_length_a                    10.852118
_cell_length_b                    10.920739
_cell_length_c                    9.676417
_cell_angle_alpha                 90.052614
_cell_angle_beta                  90.420498
_cell_angle_gamma                 90.193871
_cell_volume                      1146.74468402

loop_
_atom_site_label
_atom_site_type_symbol
_atom_site_description
_atom_site_fract_x
_atom_site_fract_y
_atom_site_fract_z
_atom_type_partial_charge
O1    O     O_R   0.500020 0.321960 0.617040 -0.589555
O2    O     O_R   0.499980 0.321920 0.382900 -0.547680
C1    C     C_R   0.497853 0.265278 0.499878 0.855045
O3    O     O_R   0.319660 0.500030 0.617070 -0.570069
O4    O     O_R   0.319620 0.499990 0.382930 -0.577587
C2    C     C_R   0.262347 0.503129 0.499253 0.795177
Cu1   Cu    Cu3+1 0.500020 0.500020 0.638630 0.979903
Cu2   Cu    Cu3+1 0.499980 0.499980 0.361370 0.985884
O5    O     O_R   0.500020 0.678080 0.617100 -0.551763
O6    O     O_R   0.499980 0.678040 0.382960 -0.590264
O7    O     O_R   0.680380 0.500010 0.617070 -0.576384
O8    O     O_R   0.680340 0.499970 0.382930 -0.548774
C3    C     C_R   0.501701 0.734779 0.500159 0.847245
C4    C     C_R   0.737828 0.498475 0.500951 0.807732
C5    C     C_R   0.240511 0.760555 0.149720 -0.212659
H1    H     H_    0.291677 0.845545 0.157658 0.146599
C6    C     C_R   0.184511 0.711052 0.266893 -0.198771
H2    H     H_    0.193185 0.758298 0.365030 0.144164
C7    C     C_R   0.118516 0.600336 0.257393 0.133259
C8    C     C_R   0.107879 0.540950 0.129029 -0.256543
H3    H     H_    0.057672 0.455378 0.120007 0.166294
C9    C     C_R   0.163857 0.590899 0.012166 -0.227067
H4    H     H_    0.156313 0.544256 0.913866 0.157366
C10   C     C_R   0.230496 0.700341 0.022476 0.670195
C11   C     C_R   0.932838 0.539837 0.384810 -0.214748
H5    H     H_    0.880781 0.571505 0.295853 0.159309
C12   C     C_R   0.871872 0.498803 0.503150 -0.079624
C13   C     C_R   0.940205 0.462598 0.621197 0.026831
C14   C     C_R   0.067644 0.464752 0.616014 -0.232648
H6    H     H_    0.119521 0.432627 0.704933 0.150999
C15   C     C_R   0.128522 0.506120 0.497988 -0.080658
C16   C     C_R   0.060515 0.546527 0.381577 0.019147
C17   C     C_R   0.864818 0.509516 0.857855 -0.225908
H7    H     H_    0.891250 0.604339 0.843292 0.165033
C18   C     C_R   0.811426 0.473614 0.982234 -0.288798
H8    H     H_    0.796535 0.540737 0.062608 0.156992
C19   C     C_R   0.777477 0.351547 0.003309 0.623945
C20   C     C_R   0.795942 0.264089 0.898491 0.108822
C21   C     C_R   0.849098 0.301081 0.772993 -0.236506
H9    H     H_    0.864512 0.234607 0.691771 0.153007
C22   C     C_R   0.883266 0.423604 0.752395 0.100592
C23   C     C_2   0.501647 0.933038 0.386134 -0.178706
C24   C     C_2   0.508154 0.866929 0.502506 -0.299548
H10   H     H_    0.494593 0.888135 0.286168 0.168671
H11   H     H_    0.521623 0.908538 0.603076 0.159758
C25   C     C_2   0.507729 0.067038 0.386577 -0.138643
C26   C     C_2   0.489173 0.133312 0.501083 -0.339097
H12   H     H_    0.526747 0.111791 0.288728 0.190057
H13   H     H_    0.464655 0.091993 0.598715 0.156187
C27   C     C_2   0.433606 0.424781 0.921432 -0.058455
N1    N     N_2   0.498640 0.498660 0.846910 -0.257271
H14   H     H_    0.374448 0.358828 0.869315 0.136593
H15   H     H_    0.555791 0.560903 0.894435 0.203546
C28   C     C_2   0.434492 0.423982 0.077282 0.006724
N2    N     N_2   0.498610 0.498630 0.153040 -0.252635
H16   H     H_    0.377062 0.356524 0.128288 0.139221
H17   H     H_    0.552032 0.564082 0.106557 0.190294
F1    F     F_    0.285550 0.747924 0.909122 -0.680100
F2    F     F_    0.726563 0.319167 0.125710 -0.682593
C29   C     C_3   0.761360 0.131527 0.919916 -0.389085
C30   C     C_3   0.651817 0.095111 0.828992 -0.818721
H18   H     H_    0.571632 0.154938 0.850775 0.264855
H19   H     H_    0.676311 0.102647 0.718142 0.250057
H20   H     H_    0.625493 0.998705 0.850585 0.241183
H21   H     H_    0.841531 0.072606 0.895077 0.194817
H22   H     H_    0.737101 0.113552 0.029406 0.245355

loop_
_geom_bond_atom_site_label_1
_geom_bond_atom_site_label_2
_geom_bond_distance
_ccdc_geom_bond_type
C30   H20   1.110386 S    
C27   H14   1.084757 S    
C25   C26   1.339719 D    
C5    C6    1.398619 A    
C19   C20   1.408400 A    
C4    C12   1.454652 S    
C11   C12   1.399957 A    
C14   H6    1.084026 S    
C28   N2    1.293714 D    
C7    C8    1.404515 A    
Cu2   O8    1.966851 S    
C17   C22   1.401513 A    
C11   C16   1.387830 A    
O2    C1    1.290741 A    
Cu1   N1    2.015637 S    
Cu1   Cu2   2.682881 S    
C26   H13   1.081933 S    
C19   F2    1.357276 S    
Cu1   O7    1.969896 S    
O4    C2    1.290263 A    
C24   H11   1.082373 S    
C27   C28   1.508071 S    
C23   H10   1.086189 S    
C14   C15   1.398172 A    
C20   C29   1.509171 S    
C7    C16   1.481679 S    
Cu2   N2    2.015874 S    
Cu2   O6    1.955546 S    
C13   C14   1.384380 A    
C17   C18   1.395536 A    
C8    C9    1.397961 A    
C29   H21   1.111464 S    
C17   H7    1.083199 S    
C9    C10   1.397955 A    
N2    H17   1.025148 S    
C30   H18   1.111221 S    
C10   F1    1.355975 S    
O7    C4    1.289103 A    
C28   H16   1.084805 S    
O4    Cu2   1.969897 S    
C23   C24   1.339749 D    
N1    H15   1.024980 S    
C29   H22   1.111057 S    
C5    H1    1.082335 S    
C21   H9    1.083691 S    
C25   H12   1.086726 S    
Cu1   O5    1.955865 S    
C13   C22   1.478372 S    
C3    C24   1.444785 S    
C20   C21   1.407222 A    
C8    H3    1.083287 S    
C21   C22   1.402062 A    
C6    H2    1.083654 S    
O3    C2    1.295183 A    
C23   C25   1.464639 S    
C1    C26   1.443980 S    
C12   C13   1.414708 A    
C30   H19   1.110023 S    
O5    C3    1.290618 A    
C9    H4    1.081030 S    
C5    C10   1.398679 A    
C2    C15   1.452726 S    
C27   N1    1.293720 D    
C6    C7    1.405793 A    
O3    Cu1   1.966852 S    
C11   H5    1.083715 S    
O1    Cu1   1.955546 S    
O6    C3    1.291792 A    
O2    Cu2   1.955864 S    
C15   C16   1.413914 A    
C18   C19   1.397379 A    
O8    C4    1.297436 A    
C29   C30   1.525192 S    
O1    C1    1.291215 A    
C18   H8    1.081631 S    
