data_mof_unit_46674.cif
_audit_creation_date              2012-12-11T15:56:02-0500
_audit_creation_method            fapswitch 2.2
_symmetry_space_group_name_H-M    P1
_symmetry_Int_Tables_number       1
_space_group_crystal_system       triclinic
_cell_length_a                    11.078463
_cell_length_b                    11.130876
_cell_length_c                    18.750323
_cell_angle_alpha                 90.777812
_cell_angle_beta                  90.8541
_cell_angle_gamma                 58.765507
_cell_volume                      1976.75048937

loop_
_atom_site_label
_atom_site_type_symbol
_atom_type_description
_atom_site_fract_x
_atom_site_fract_y
_atom_site_fract_z
_atom_type_partial_charge
C1    C     C_R   0.362657 0.760393 0.394227 0.539577
C2    C     C_R   0.250930 0.447672 0.197261 0.066208
C3    C     C_R   0.238171 0.444792 0.271953 -0.023603
C4    C     C_R   0.383478 0.353928 0.387677 0.542633
C5    C     C_R   0.815897 0.700392 0.358423 -0.082082
C6    C     C_R   0.838593 0.623541 0.295902 -0.096154
C7    C     C_R   0.975614 0.536979 0.270337 -0.083266
C8    C     C_R   0.091413 0.535893 0.303288 0.011998
C9    C     C_R   0.359260 0.342024 0.310857 -0.023363
C10   C     C_R   0.865219 0.332572 0.183549 0.019596
C11   C     C_R   0.959649 0.237903 0.233619 0.006274
C12   C     C_R   0.634471 0.121205 0.169042 0.030235
C13   C     C_R   0.928149 0.249257 0.304209 -0.009359
C14   C     C_R   0.693901 0.439488 0.277563 -0.162606
C15   C     C_R   0.726516 0.428361 0.204679 -0.184592
C16   C     C_R   0.771631 0.381171 0.402093 0.550962
C17   C     C_3   0.112435 0.176503 0.248097 -0.278461
C18   C     C_3   0.076481 0.193067 0.327273 -0.293992
C19   C     C_R   0.801509 0.359060 0.327898 0.036887
C20   C     C_R   0.372744 0.816920 0.170605 0.002622
C21   C     C_R   0.457565 0.841104 0.218152 -0.007894
C22   C     C_R   0.448686 0.828590 0.291270 0.008880
C23   C     C_R   0.365305 0.332067 0.160956 0.019278
C24   C     C_R   0.305955 0.728798 0.270223 -0.167045
C25   C     C_R   0.313118 0.742921 0.197059 -0.165688
C26   C     C_3   0.471808 0.965109 0.230583 -0.277460
C27   C     C_3   0.451616 0.957229 0.309145 -0.281447
C28   C     C_R   0.342001 0.772364 0.603253 0.549098
C29   C     C_R   0.362305 0.785064 0.318481 0.009162
C30   C     C_R   0.298042 0.305240 0.807776 0.020244
C31   C     C_R   0.404015 0.192018 0.769596 0.040457
C32   C     C_R   0.415000 0.196604 0.697399 0.024515
C33   C     C_R   0.197585 0.421214 0.694670 -0.170692
C34   C     C_R   0.479818 0.239758 0.273629 -0.163208
C35   C     C_R   0.186965 0.415551 0.769103 -0.168195
C36   C     C_3   0.559875 0.110885 0.781966 -0.274749
C37   C     C_3   0.573610 0.114086 0.702197 -0.269732
C38   C     C_R   0.320848 0.318320 0.659871 0.016916
C39   C     C_R   0.810574 0.331618 0.836698 0.015658
C40   C     C_R   0.368865 0.349147 0.594765 0.549373
C41   C     C_R   0.747319 0.463252 0.803882 0.020950
C42   C     C_R   0.738933 0.472806 0.730930 0.043958
C43   C     C_R   0.830686 0.225184 0.719283 -0.173510
C44   C     C_R   0.841009 0.213778 0.793936 -0.165465
C45   C     C_R   0.489114 0.231402 0.199574 -0.047144
C46   C     C_3   0.773698 0.582768 0.809734 -0.271351
C47   C     C_3   0.768715 0.588744 0.729268 -0.268315
C48   C     C_R   0.789143 0.354469 0.687164 0.022413
C49   C     C_R   0.288431 0.871368 0.820170 0.020578
C50   C     C_R   0.179814 0.872402 0.781755 0.023925
C51   C     C_R   0.187284 0.857892 0.708671 0.023243
C52   C     C_R   0.760225 0.378584 0.611247 0.545094
C53   C     C_R   0.394543 0.875694 0.707754 -0.160044
C54   C     C_R   0.389973 0.884896 0.782022 -0.149143
C55   C     C_3   0.119046 0.781533 0.790325 -0.284496
C56   C     C_R   0.057729 0.637709 0.357002 -0.090721
C57   C     C_3   0.128367 0.763590 0.710113 -0.265217
C58   C     C_R   0.302589 0.845380 0.671416 0.019433
C59   C     C_R   0.910918 0.316281 0.111190 0.546067
C60   C     C_R   0.331299 0.295341 0.091160 0.549936
C61   C     C_R   0.310669 0.896831 0.104754 0.534055
C62   C     C_R   0.880607 0.310382 0.905604 0.548084
C63   C     C_R   0.292830 0.285515 0.883822 0.546761
C64   C     C_R   0.912785 0.915300 0.125531 -0.080240
C65   C     C_R   0.272118 0.900620 0.896144 0.544712
C66   C     C_R   0.892129 0.009808 0.179794 -0.079553
C67   C     C_R   0.924663 0.712051 0.387591 -0.126415
C68   C     C_R   0.755091 0.113098 0.200122 -0.106419
C69   C     C_R   0.663002 0.007965 0.121649 -0.075955
C70   C     C_R   0.798394 0.912218 0.097535 -0.135575
Cr1   Cr    Cr6+3 0.601740 0.606840 0.505840 1.001095
Cr2   Cr    Cr6+3 0.291500 0.601560 0.495070 0.987435
Cr3   Cr    Cr6+3 0.606780 0.291630 0.499130 1.004208
Cr4   Cr    Cr6+3 0.062440 0.063060 0.008240 1.010592
Cr5   Cr    Cr6+3 0.062950 0.375000 0.998920 1.013365
Cr6   Cr    Cr6+3 0.374550 0.061770 0.992470 0.990262
H1    H     H_    0.571617 0.161796 0.303029 0.151193
H2    H     H_    0.092106 0.272985 0.355044 0.150455
H3    H     H_    0.253507 0.677058 0.288430 0.133163
H4    H     H_    0.815309 0.829856 0.060237 0.105716
H5    H     H_    0.257441 0.711813 0.161540 0.121172
H6    H     H_    0.388508 0.061158 0.203791 0.154359
H7    H     H_    0.582510 0.934135 0.222796 0.145653
H8    H     H_    0.542922 0.940813 0.341376 0.130627
H9    H     H_    0.350783 0.044447 0.329518 0.143468
H10   H     H_    0.117282 0.512194 0.666037 0.120265
H11   H     H_    0.097436 0.500270 0.796316 0.117233
H12   H     H_    0.714162 0.753467 0.383388 0.133352
H13   H     H_    0.600051 0.003531 0.802572 0.129527
H14   H     H_    0.597388 0.172642 0.811788 0.145264
H15   H     H_    0.622197 0.175302 0.686921 0.173456
H16   H     H_    0.904928 0.782572 0.432173 0.098740
H17   H     H_    0.620302 0.008716 0.676620 0.123173
H18   H     H_    0.860953 0.132544 0.686979 0.124251
H19   H     H_    0.886304 0.110576 0.817227 0.141170
H20   H     H_    0.879014 0.554479 0.830686 0.164394
H21   H     H_    0.684380 0.677086 0.835242 0.126825
H22   H     H_    0.679552 0.687298 0.707938 0.142601
H23   H     H_    0.749756 0.631984 0.267415 0.135790
H24   H     H_    0.872575 0.555504 0.705071 0.137036
H25   H     H_    0.476583 0.880222 0.679633 0.117920
H26   H     H_    0.467857 0.899405 0.809465 0.133997
H27   H     H_    0.008661 0.841416 0.809858 0.132342
H28   H     H_    0.017738 0.839070 0.107884 0.126201
H29   H     H_    0.190868 0.682964 0.819657 0.139725
H30   H     H_    0.207940 0.655130 0.693371 0.168668
H31   H     H_    0.023601 0.810655 0.683160 0.128596
H32   H     H_    0.983371 0.000832 0.206440 0.133478
H33   H     H_    0.742950 0.182990 0.243179 0.130515
H34   H     H_    0.990067 0.476145 0.222665 0.166221
H35   H     H_    0.129312 0.667090 0.373922 0.185348
H36   H     H_    0.587581 0.978196 0.108087 0.169720
H37   H     H_    0.094412 0.653590 0.187664 0.215403
H38   H     H_    0.181458 0.581825 0.112968 0.217577
H39   H     H_    0.588715 0.515802 0.295056 0.136692
H40   H     H_    0.646724 0.495974 0.166269 0.127718
H41   H     H_    0.153663 0.242459 0.229576 0.136049
H42   H     H_    0.172476 0.065454 0.230594 0.154083
H43   H     H_    0.120079 0.091292 0.355397 0.140915
N1    N     N_3   0.138395 0.561553 0.157122 -0.607330
O1    O     O_R   0.748670 0.497520 0.427970 -0.516947
O2    O     O_R   0.417470 0.174910 0.067830 -0.546448
O3    O     O_R   0.375160 0.946380 0.070880 -0.515998
O4    O     O_R   0.476470 0.723930 0.429450 -0.504781
O5    O     O_R   0.160500 0.919670 0.926690 -0.517454
O6    O     O_R   0.933140 0.190380 0.936050 -0.505093
O7    O     O_R   0.909010 0.403210 0.925030 -0.529598
O8    O     O_R   0.179590 0.361290 0.918480 -0.511730
O9    O     O_R   0.391360 0.170840 0.907510 -0.522698
O10   O     O_R   0.350950 0.942600 0.922260 -0.515268
O11   O     O_3   0.166650 0.166610 0.999880 -0.251681
O12   O     O_R   0.300170 0.471020 0.567120 -0.508381
O13   O     O_R   0.264730 0.744140 0.416740 -0.557039
O14   O     O_R   0.309440 0.472410 0.418220 -0.521135
O15   O     O_R   0.501630 0.260530 0.414310 -0.526911
O16   O     O_R   0.727920 0.305730 0.428950 -0.505261
O17   O     O_R   0.738670 0.496020 0.588600 -0.517143
O18   O     O_R   0.467190 0.722540 0.578350 -0.504090
O19   O     O_R   0.254720 0.742640 0.577370 -0.523428
O20   O     O_R   0.491630 0.259030 0.574940 -0.524555
O21   O     O_R   0.718640 0.304340 0.577850 -0.511010
O22   O     O_3   0.500010 0.500010 0.500020 -0.251579
O23   O     O_R   0.186620 0.923750 0.087000 -0.534767
O24   O     O_R   0.957350 0.194160 0.084660 -0.489681
O25   O     O_R   0.935120 0.407280 0.085350 -0.513485
O26   O     O_R   0.203800 0.365060 0.067090 -0.470145

loop_
_geom_bond_atom_site_label_1
_geom_bond_atom_site_label_2
_ccdc_geom_bond_type
C36   H13   S    
C66   C68   A    
C21   C26   S    
C26   H7    S    
C23   C45   A    
C22   C29   A    
C41   C42   A    
C5    C67   A    
C8    C56   A    
C65   O10   A    
C7    C8    A    
Cr1   O17   S    
Cr3   O21   S    
C53   C54   A    
Cr5   O25   S    
Cr2   O22   S    
C12   C68   A    
C26   C27   S    
C47   H22   S    
C49   C65   S    
C13   C18   S    
C55   H29   S    
C15   H40   S    
C27   H8    S    
C10   C15   A    
C34   H1    S    
C62   O7    A    
Cr6   O11   S    
Cr4   O5    S    
C20   C25   A    
C35   H11   S    
C14   H39   S    
C55   H27   S    
C43   H18   S    
Cr5   O8    S    
C46   H21   S    
C20   C61   S    
C27   H9    S    
C24   C29   A    
C5    H12   S    
Cr6   O10   S    
C61   O23   A    
Cr2   O19   S    
Cr3   O15   S    
C53   H25   S    
C41   C46   S    
C51   C57   S    
C64   C70   A    
C52   O17   A    
C43   C48   A    
C56   H35   S    
C63   O8    A    
C17   H41   S    
C68   H33   S    
C57   H30   S    
C40   O12   A    
C26   H6    S    
C54   H26   S    
Cr4   O11   S    
C25   H5    S    
C28   O19   A    
C60   O26   A    
C1    O13   A    
Cr5   O11   S    
Cr2   O12   S    
Cr1   O18   S    
Cr3   O22   S    
Cr5   O26   S    
C23   C60   S    
C13   C19   A    
C70   H4    S    
Cr1   O4    S    
C28   O18   A    
C24   C25   A    
C39   C41   A    
C3    C8    S    
C62   O6    A    
C2    N1    S    
C50   C51   A    
C47   H24   S    
C65   O5    A    
C16   O1    A    
C3    C9    A    
H37   N1    S    
Cr6   O9    S    
C24   H3    S    
Cr2   O14   S    
C31   C32   A    
Cr3   O16   S    
C30   C31   A    
C18   H2    S    
C50   C55   S    
C1    C29   S    
C17   C18   S    
C37   H17   S    
C51   C58   A    
C42   C48   A    
C32   C37   S    
C60   O2    A    
C6    C7    A    
C34   C45   A    
C17   H42   S    
Cr1   O22   S    
C59   O25   A    
C57   H31   S    
C12   C69   A    
C59   O24   A    
Cr4   O6    S    
C69   H36   S    
C32   C38   A    
C22   C27   S    
C4    O15   A    
C43   C44   A    
C9    C34   A    
Cr4   O23   S    
C16   O16   A    
C4    O14   A    
C36   H14   S    
C64   H28   S    
C39   C62   S    
Cr4   O24   S    
C46   C47   S    
C11   C17   S    
C31   C36   S    
Cr6   O3    S    
C14   C19   A    
Cr1   O1    S    
C33   C38   A    
C66   H32   S    
C12   C45   S    
C53   C58   A    
C39   C44   A    
Cr3   O20   S    
C28   C58   S    
C56   C67   A    
C30   C35   A    
C52   O21   A    
C7    H34   S    
C61   O3    A    
Cr6   O2    S    
C6    H23   S    
C55   C57   S    
C2    C3    A    
C1    O4    A    
C44   H19   S    
C38   C40   S    
C11   C13   A    
Cr2   O13   S    
C5    C6    A    
C16   C19   S    
C40   O20   A    
C30   C63   S    
C67   H16   S    
C33   C35   A    
C10   C59   S    
Cr5   O7    S    
C42   C47   S    
C63   O9    A    
C69   C70   A    
C10   C11   A    
C48   C52   S    
C46   H20   S    
C20   C21   A    
C36   C37   S    
C49   C50   A    
C2    C23   A    
C14   C15   A    
C4    C9    S    
C21   C22   A    
C18   H43   S    
C33   H10   S    
H38   N1    S    
C49   C54   A    
C37   H15   S    
C64   C66   A    
