data_mof_unit_8005.cif
_audit_creation_date              2012-12-11T18:00:05-0500
_audit_creation_method            fapswitch 2.2
_symmetry_space_group_name_H-M    P1
_symmetry_Int_Tables_number       1
_space_group_crystal_system       triclinic
_cell_length_a                    8.233333
_cell_length_b                    12.73235
_cell_length_c                    18.791774
_cell_angle_alpha                 96.531861
_cell_angle_beta                  92.126999
_cell_angle_gamma                 99.092927
_cell_volume                      1929.5036656

loop_
_atom_site_label
_atom_site_type_symbol
_atom_type_description
_atom_site_fract_x
_atom_site_fract_y
_atom_site_fract_z
_atom_type_partial_charge
Ba1   Ba    Ba6+2 0.851480 0.550950 0.465800 1.689336
Ba2   Ba    Ba6+2 0.338350 0.449140 0.534210 1.721557
C1    C     C_3   0.735750 0.910521 0.217122 0.238687
C2    C     C_3   0.659486 0.820427 0.258336 0.308788
C3    C     C_3   0.480019 0.278373 0.310828 0.664069
C4    C     C_3   0.558786 0.267476 0.238156 0.267063
C5    C     C_3   0.005966 0.159998 0.727233 0.734584
C6    C     C_3   0.032917 0.113207 0.797392 0.287130
C7    C     C_3   0.568142 0.183287 0.749114 0.673046
C8    C     C_3   0.529399 0.106598 0.804991 -0.259034
C9    C     C_2   0.304575 0.523018 0.295767 -0.208534
C10   C     C_3   0.399165 0.601600 0.252359 -0.068836
C11   C     C_2   0.359513 0.572949 0.172702 -0.050668
C12   C     C_3   0.203552 0.842359 0.273442 0.643041
C13   C     C_2   0.213183 0.512763 0.148429 -0.064548
C14   C     C_2   0.105623 0.461441 0.202656 -0.133861
C15   C     C_1   0.158304 0.470293 0.271488 0.115376
C16   C     C_R   0.048541 0.493275 0.929846 0.510735
C17   C     C_R   0.157844 0.502963 0.070483 0.476634
C18   C     C_R   0.087442 0.533995 0.801083 -0.187048
C19   C     C_R   0.031210 0.525738 0.728363 0.077393
C20   C     C_R   0.765932 0.432738 0.757525 -0.068618
C21   C     C_R   0.819571 0.442034 0.831096 0.352167
C22   C     C_R   0.984954 0.489063 0.852923 -0.029474
C23   C     C_3   0.133963 0.794512 0.197979 0.241189
C24   C     C_R   0.873760 0.471444 0.707371 -0.238259
C25   C     C_R   0.763981 0.180729 0.531433 -0.186307
C26   C     C_R   0.430000 0.809317 0.468784 -0.294530
C27   C     C_R   0.400707 0.988456 0.447381 -0.054713
C28   C     C_R   0.337726 0.879926 0.441276 -0.022865
C29   C     C_R   0.580083 0.847180 0.507817 0.069374
C30   C     C_R   0.644620 0.958782 0.515850 -0.006677
C31   C     C_R   0.553740 0.029727 0.484196 -0.026641
C32   C     C_R   0.615890 0.140794 0.492096 0.074644
C33   C     C_R   0.858460 0.111881 0.559155 -0.030911
C34   C     C_3   0.235042 0.779656 0.617752 0.251193
C35   C     C_R   0.797197 0.002086 0.553649 -0.040951
C36   C     C_3   0.228475 0.898253 0.633015 -0.289563
C37   C     C_3   0.954635 0.223150 0.385178 0.331142
C38   C     C_3   0.912780 0.102146 0.367672 -0.389924
C39   C     C_3   0.740611 0.696025 0.680064 0.296451
C40   C     C_3   0.768045 0.729531 0.760499 -0.357112
H1    H     H_    0.667506 0.850036 0.316638 -0.027938
H2    H     H_    0.307498 0.932608 0.681760 0.170164
H3    H     H_    0.271825 0.939723 0.586887 0.124491
H4    H     H_    0.100260 0.910330 0.642701 0.095704
H5    H     H_    0.849764 0.254727 0.409494 -0.052538
H6    H     H_    0.063127 0.242170 0.423569 0.087042
H7    H     H_    0.791645 0.080576 0.337450 0.114934
H8    H     H_    0.906642 0.063400 0.417401 0.077294
H9    H     H_    0.009249 0.071628 0.335263 0.170123
H10   H     H_    0.856739 0.676238 0.658590 0.004223
H11   H     H_    0.642428 0.624571 0.670565 0.058483
H12   H     H_    0.669551 0.979696 0.227336 0.123962
H13   H     H_    0.869012 0.799287 0.771323 0.121335
H14   H     H_    0.801842 0.662818 0.787833 0.051905
H15   H     H_    0.653483 0.751949 0.782792 0.140988
H16   H     H_    0.528746 0.799666 0.238644 0.062155
H17   H     H_    0.532723 0.359179 0.338147 -0.013830
H18   H     H_    0.531033 0.332010 0.206506 0.004766
H19   H     H_    0.694439 0.277410 0.247240 0.084199
H20   H     H_    0.866775 0.937552 0.235081 0.063732
H21   H     H_    0.882964 0.119683 0.704011 -0.101031
H22   H     H_    0.923660 0.118297 0.829973 0.008540
H23   H     H_    0.045811 0.027380 0.785178 -0.014955
H24   H     H_    0.698836 0.220732 0.759488 -0.038192
H25   H     H_    0.540819 0.152132 0.859464 0.117333
H26   H     H_    0.617231 0.048623 0.802828 0.059380
H27   H     H_    0.284483 0.788152 0.292613 -0.122228
H28   H     H_    0.402595 0.061096 0.794795 0.156515
H29   H     H_    0.440811 0.612548 0.136188 0.154672
H30   H     H_    0.985418 0.415410 0.185292 0.107123
H31   H     H_    0.210895 0.575215 0.817013 0.127518
H32   H     H_    0.353942 0.516676 0.349212 0.066571
H33   H     H_    0.831138 0.464842 0.651635 0.057175
H34   H     H_    0.325057 0.039699 0.424974 0.131285
H35   H     H_    0.871559 0.952357 0.578175 0.079804
H36   H     H_    0.811556 0.265633 0.536253 0.039304
H37   H     H_    0.379026 0.724957 0.464154 0.063938
H38   H     H_    0.060603 0.714174 0.200824 0.085363
H39   H     H_    0.050427 0.845260 0.176491 0.119361
H40   H     H_    0.361669 0.768517 0.605722 0.009027
H41   H     H_    0.149020 0.746778 0.570784 0.068845
N1    N     N_R   0.194317 0.554539 0.954951 -0.234634
N2    N     N_R   0.247369 0.559331 0.023560 -0.194910
N3    N     N_R   0.013475 0.440783 0.045249 -0.228165
N4    N     N_R   0.960889 0.435892 0.976724 -0.150279
O1    O     O_2   0.866600 0.438960 0.328790 -0.485973
O2    O     O_3   0.693920 0.781594 0.648295 -0.629614
O3    O     O_3   0.072125 0.854296 0.317860 -0.610041
O4    O     O_2   0.323100 0.561070 0.671250 -0.450112
O5    O     O_3   0.070470 0.559320 0.583840 -0.510545
O6    O     O_3   0.535090 0.363180 0.628460 -0.436947
O7    O     O_3   0.192658 0.732544 0.679491 -0.634969
O8    O     O_3   0.609990 0.369010 0.464390 -0.490592
O9    O     O_3   0.112090 0.307030 0.593210 -0.453792
O10   O     O_2   0.192491 0.118143 0.546054 -0.465863
O11   O     O_3   0.128559 0.138685 0.679980 -0.568707
O12   O     O_3   0.119240 0.440770 0.416170 -0.496394
O13   O     O_3   0.579720 0.631080 0.535620 -0.492764
O14   O     O_2   0.340230 0.234420 0.466230 -0.453080
O15   O     O_3   0.513110 0.195266 0.349818 -0.622275
O16   O     O_2   0.442386 0.457108 0.751379 -0.486596
O17   O     O_3   0.460528 0.258614 0.754104 -0.540998
O18   O     O_3   0.654630 0.636910 0.371550 -0.473918
O19   O     O_2   0.699161 0.524248 0.247408 -0.490444
O20   O     O_3   0.987382 0.267423 0.321632 -0.598421
O21   O     O_3   0.742200 0.731929 0.246063 -0.563237
O22   O     O_2   0.849480 0.765610 0.533810 -0.479936
O23   O     O_3   0.077620 0.693060 0.406790 -0.479554
O24   O     O_2   0.001274 0.882028 0.451726 -0.488402
P1    P     P_3+3 0.034960 0.407000 0.339750 1.030096
P2    P     P_3+3 0.674960 0.749840 0.554930 0.980783
P3    P     P_3+3 0.124901 0.830474 0.405078 0.977715
P4    P     P_3+3 0.154750 0.593090 0.660260 0.990706
P5    P     P_3+3 0.070450 0.167702 0.594583 1.026463
P6    P     P_3+3 0.623844 0.622290 0.278155 0.985743
P7    P     P_3+3 0.521351 0.234384 0.442753 0.979870
P8    P     P_3+3 0.553402 0.376991 0.722718 1.021553
Cl1   Cl    Cl    0.718476 0.867918 0.123002 -0.601987
O25   O     O_3   0.309973 0.272896 0.299939 -0.784946
H42   H     H_    0.262107 0.197002 0.283851 0.352414
O26   O     O_3   0.504324 0.166284 0.199625 -0.651701
H43   H     H_    0.401188 0.171194 0.172023 0.328921
O27   O     O_3   0.261132 0.782742 0.151566 -0.725820
H44   H     H_    0.288300 0.851036 0.130565 0.369561
O28   O     O_3   0.006199 0.270659 0.741308 -0.774441
H45   H     H_    0.122567 0.305990 0.750982 0.352988
O29   O     O_3   0.173918 0.170236 0.836357 -0.695055
H46   H     H_    0.182608 0.136516 0.881120 0.308749
Cl2   Cl    Cl    0.537895 0.109140 0.662828 -0.768341
O30   O     O_3   0.715058 0.407712 0.882756 -0.708055
H47   H     H_    0.600679 0.387633 0.862587 0.319590
Cl3   Cl    Cl    0.321873 0.971156 0.269644 -0.754710

loop_
_geom_bond_atom_site_label_1
_geom_bond_atom_site_label_2
_ccdc_geom_bond_type
C32   P7    S    
C39   O2    S    
C19   C24   A    
C5    O11   S    
C3    O25   S    
C23   H38   S    
O20   P1    S    
C14   H30   S    
C19   P4    S    
C25   H36   S    
Ba1   O12   S    
O26   H43   S    
C27   H34   S    
C8    H25   S    
C13   C17   S    
C2    O21   S    
C16   C22   S    
O14   P7    D    
C4    H19   S    
Ba2   O8    S    
C33   C35   A    
Ba1   P1    S    
C3    C4    S    
C40   H13   S    
C1    H12   S    
C34   H41   S    
C13   C14   S    
C27   C31   A    
C40   H15   S    
Ba1   Ba2   S    
C39   C40   S    
C26   H37   S    
C23   O27   S    
C7    H24   S    
C12   O3    S    
C36   H3    S    
C40   H14   S    
C18   C22   A    
C34   H40   S    
O30   H47   S    
C21   O30   S    
C16   N1    A    
C21   C22   A    
C7    C8    S    
O23   P3    S    
C39   H10   S    
O15   P7    S    
O22   P2    D    
O17   P8    S    
Ba1   O22   S    
C17   N3    A    
Ba1   O1    S    
Ba2   O13   S    
C6    H23   S    
O8    P7    S    
C23   H39   S    
O18   P6    S    
Ba1   P2    S    
C4    O26   S    
Ba1   O13   S    
C31   C32   A    
C7    Cl2   S    
C25   C32   A    
C20   P8    S    
O2    P2    S    
C3    H17   S    
C4    H18   S    
C5    C6    S    
N1    N2    A    
C37   C38   S    
N3    N4    A    
C14   C15   D    
C11   H29   S    
Ba2   O14   S    
C25   C33   A    
C35   H35   S    
C1    C2    S    
C37   O20   S    
C26   C29   A    
C36   H2    S    
C27   C28   A    
Ba1   O23   S    
Ba2   P4    S    
O11   P5    S    
C29   C30   A    
Ba1   O8    S    
C5    H21   S    
C24   H33   S    
C33   P5    S    
C30   C35   A    
C10   C11   S    
O10   P5    D    
Ba2   O5    S    
C39   H11   S    
O25   H42   S    
C6    H22   S    
C8    H28   S    
Ba2   O12   S    
Ba1   O5    S    
C11   C13   D    
O19   P6    D    
O27   H44   S    
C12   H27   S    
O28   H45   S    
C15   P1    S    
C37   H5    S    
O29   H46   S    
C28   P3    S    
C1    H20   S    
C3    O15   S    
C9    C15   D    
O21   P6    S    
Ba2   O6    S    
O16   P8    D    
O13   P2    S    
C17   N2    A    
C9    H32   S    
O7    P4    S    
C2    H1    S    
C8    H26   S    
C38   H9    S    
C12   Cl3   S    
C16   N4    A    
C30   C31   A    
Ba2   O9    S    
C34   C36   S    
C7    O17   S    
C38   H8    S    
O12   P1    S    
C26   C28   A    
O4    P4    D    
C18   H31   S    
O24   P3    D    
O3    P3    S    
C12   C23   S    
Ba2   O4    S    
O5    P4    S    
C36   H4    S    
C1    Cl1   S    
C10   P6    S    
O1    P1    D    
C34   O7    S    
C18   C19   A    
C20   C24   A    
C2    H16   S    
C6    O29   S    
C20   C21   A    
O9    P5    S    
O6    P8    S    
C5    O28   S    
C29   P2    S    
C38   H7    S    
C9    C10   S    
Ba1   O18   S    
C37   H6    S    
