data_mof_unit_31031.cif
_audit_creation_date              2012-12-10T18:20:42-0500
_audit_creation_method            fapswitch 2.2
_symmetry_space_group_name_H-M    P1
_symmetry_Int_Tables_number       1
_space_group_crystal_system       triclinic
_cell_length_a                    15.852472
_cell_length_b                    10.640019
_cell_length_c                    9.454747
_cell_angle_alpha                 91.659483
_cell_angle_beta                  90.465234
_cell_angle_gamma                 89.188611
_cell_volume                      1593.86177007

loop_
_atom_site_label
_atom_site_type_symbol
_atom_type_description
_atom_site_fract_x
_atom_site_fract_y
_atom_site_fract_z
_atom_type_partial_charge
C1    C     C_R   0.500049 0.259767 0.497852 0.807846
C2    C     C_R   0.499951 0.740233 0.502147 0.807846
C3    C     C_3   0.573825 0.952426 0.449720 -0.317755
C4    C     C_3   0.426174 0.047574 0.550280 -0.317756
C5    C     C_3   0.499516 0.876874 0.506144 -0.064625
C6    C     C_3   0.500484 0.123125 0.493856 -0.064625
C7    C     C_3   0.490319 0.968006 0.634552 0.020139
C8    C     C_3   0.509681 0.031994 0.365447 0.020139
C9    C     C_3   0.500299 0.614406 0.055017 -0.071284
C10   C     C_3   0.499701 0.385594 0.944983 -0.071286
C11   C     C_3   0.434834 0.558511 0.951471 0.065108
C12   C     C_3   0.565166 0.441489 0.048529 0.065109
C13   C     C_3   0.565822 0.554843 0.953617 0.127327
C14   C     C_3   0.434178 0.445157 0.046383 0.127326
C15   C     C_R   0.340179 0.500938 0.499526 0.810645
C16   C     C_R   0.659821 0.499062 0.500474 0.810645
C17   C     C_3   0.974341 0.421679 0.599481 -0.020191
C18   C     C_3   0.025659 0.578322 0.400518 -0.020190
C19   C     C_3   0.030455 0.384137 0.471372 -0.038690
C20   C     C_3   0.969545 0.615864 0.528628 -0.038689
C21   C     C_1   0.250754 0.502782 0.498612 -0.142633
C22   C     C_1   0.749246 0.497219 0.501388 -0.142633
C23   C     C_3   0.027940 0.540412 0.627419 -0.028078
C24   C     C_3   0.972060 0.459590 0.372581 -0.028079
C25   C     C_3   0.083793 0.502666 0.499635 0.077862
C26   C     C_3   0.916207 0.497335 0.500365 0.077863
C27   C     C_1   0.175347 0.503687 0.498689 0.083859
C28   C     C_1   0.824653 0.496314 0.501311 0.083859
C29   C     C_3   0.563876 0.044482 0.578670 0.099224
C30   C     C_3   0.436124 0.955518 0.421330 0.099223
Cu1   Cu    Cu3+1 0.500020 0.499990 0.643150 0.963425
Cu2   Cu    Cu3+1 0.499980 0.500010 0.356850 0.963426
H1    H     H_    0.633905 0.911123 0.408923 0.148938
H2    H     H_    0.366095 0.088877 0.591077 0.148938
H3    H     H_    0.500387 0.710390 0.104145 0.144564
H4    H     H_    0.499613 0.289610 0.895855 0.144564
N1    N     N_3   0.500060 0.499970 0.858290 -0.194551
N2    N     N_3   0.499940 0.500030 0.141710 -0.194551
O1    O     O_R   0.500040 0.316850 0.620870 -0.612661
O2    O     O_R   0.499960 0.683150 0.379130 -0.612661
O3    O     O_R   0.500000 0.316860 0.379090 -0.521948
O4    O     O_R   0.500000 0.683140 0.620910 -0.521947
O5    O     O_R   0.379090 0.499980 0.620870 -0.555411
O6    O     O_R   0.620910 0.500020 0.379130 -0.555409
O7    O     O_R   0.379060 0.499990 0.379090 -0.610397
O8    O     O_R   0.620940 0.500010 0.620910 -0.610397
C31   C     C_2   0.062123 0.253362 0.436777 0.308362
H5    H     H_    0.017394 0.178116 0.419901 0.081774
O9    O     O_2   0.137565 0.230844 0.427336 -0.580058
C32   C     C_2   0.937877 0.746639 0.563222 0.308362
H6    H     H_    0.982605 0.821885 0.580098 0.081774
O10   O     O_2   0.862435 0.769157 0.572665 -0.580057
C33   C     C_3   0.942019 0.331327 0.709445 -0.424256
C34   C     C_3   0.013661 0.277781 0.800886 -0.319550
C35   C     C_3   0.981893 0.175182 0.895702 -0.866189
H7    H     H_    0.928930 0.211471 0.962155 0.278185
H8    H     H_    0.960361 0.093299 0.830206 0.258356
H9    H     H_    0.033752 0.143316 0.966339 0.244448
H10   H     H_    0.064621 0.237434 0.732847 0.240866
H11   H     H_    0.040828 0.353803 0.869130 0.222271
H12   H     H_    0.895701 0.382269 0.778516 0.198618
H13   H     H_    0.909087 0.253470 0.652124 0.201833
C36   C     C_3   0.057981 0.668674 0.290554 -0.424256
C37   C     C_3   0.986339 0.722221 0.199114 -0.319550
C38   C     C_3   0.018108 0.824818 0.104296 -0.866189
H14   H     H_    0.039640 0.906702 0.169791 0.258356
H15   H     H_    0.071070 0.788528 0.037844 0.278185
H16   H     H_    0.966249 0.856684 0.033659 0.244448
H17   H     H_    0.959171 0.646199 0.130871 0.222272
H18   H     H_    0.935380 0.762570 0.267153 0.240865
H19   H     H_    0.090914 0.746530 0.347875 0.201834
H20   H     H_    0.104299 0.617732 0.221483 0.198618
C39   C     C_2   0.943551 0.411351 0.229721 0.301060
H21   H     H_    0.990078 0.387205 0.149593 0.075862
O11   O     O_2   0.868684 0.399384 0.202669 -0.562047
C40   C     C_2   0.056449 0.588650 0.770278 0.301059
H22   H     H_    0.009922 0.612795 0.850406 0.075862
O12   O     O_2   0.131316 0.600618 0.797330 -0.562048
C41   C     C_3   0.635587 0.101818 0.667688 -0.387234
C42   C     C_3   0.703188 0.003900 0.705433 -0.307899
C43   C     C_3   0.766225 0.058857 0.812343 -0.834426
H23   H     H_    0.794075 0.145720 0.771685 0.251360
H24   H     H_    0.734494 0.081476 0.914481 0.268905
H25   H     H_    0.817794 0.989607 0.831126 0.248994
H26   H     H_    0.673832 0.920285 0.750939 0.258346
H27   H     H_    0.737437 0.972939 0.608140 0.242346
H28   H     H_    0.665337 0.177122 0.606958 0.187477
H29   H     H_    0.608252 0.145248 0.765643 0.206095
C44   C     C_3   0.364413 0.898182 0.332312 -0.387235
C45   C     C_3   0.296812 0.996100 0.294567 -0.307898
C46   C     C_3   0.233777 0.941144 0.187653 -0.834424
H30   H     H_    0.265508 0.918528 0.085516 0.268906
H31   H     H_    0.205927 0.854279 0.228307 0.251360
H32   H     H_    0.182208 0.010394 0.168871 0.248993
H33   H     H_    0.262562 0.027059 0.391859 0.242345
H34   H     H_    0.326169 0.079717 0.249064 0.258346
H35   H     H_    0.391748 0.854752 0.234357 0.206095
H36   H     H_    0.334663 0.822878 0.393042 0.187476
C47   C     C_2   0.476383 0.939183 0.786632 0.448990
H37   H     H_    0.419814 0.973856 0.839438 0.087014
O13   O     O_2   0.528289 0.878091 0.852274 -0.583560
C48   C     C_2   0.523616 0.060817 0.213367 0.448990
H38   H     H_    0.580184 0.026142 0.160561 0.087014
O14   O     O_2   0.471711 0.121910 0.147726 -0.583561
C49   C     C_2   0.358317 0.626072 0.896570 0.391735
H39   H     H_    0.295855 0.593431 0.921384 0.090149
O15   O     O_2   0.365504 0.718713 0.825146 -0.530831
C50   C     C_2   0.641683 0.373927 0.103429 0.391735
H40   H     H_    0.704144 0.406566 0.078613 0.090149
O16   O     O_2   0.634496 0.281288 0.174855 -0.530831
C51   C     C_3   0.645714 0.616371 0.899797 -0.351017
C52   C     C_3   0.690806 0.692231 0.017625 -0.394206
C53   C     C_3   0.779859 0.725940 0.973443 -0.818490
H41   H     H_    0.819833 0.639603 0.962828 0.253667
H42   H     H_    0.778357 0.773707 0.870698 0.276272
H43   H     H_    0.808359 0.789761 0.054986 0.246108
H44   H     H_    0.654309 0.780119 0.041784 0.242992
H45   H     H_    0.695173 0.637565 0.115864 0.227962
H46   H     H_    0.688740 0.540912 0.858338 0.190820
H47   H     H_    0.629014 0.679856 0.812559 0.258183
C54   C     C_3   0.354286 0.383628 0.100203 -0.351015
C55   C     C_3   0.309195 0.307767 0.982376 -0.394204
C56   C     C_3   0.220141 0.274060 0.026557 -0.818491
H48   H     H_    0.221642 0.226297 0.129305 0.276272
H49   H     H_    0.180166 0.360397 0.037167 0.253666
H50   H     H_    0.191642 0.210236 0.945015 0.246108
H51   H     H_    0.304829 0.362431 0.884135 0.227960
H52   H     H_    0.345692 0.219877 0.958220 0.242992
H53   H     H_    0.370986 0.320144 0.187442 0.258182
H54   H     H_    0.311260 0.459088 0.141661 0.190819

loop_
_geom_bond_atom_site_label_1
_geom_bond_atom_site_label_2
_ccdc_geom_bond_type
C35   H7    S    
C7    C29   S    
Cu1   O4    S    
C39   H21   S    
C51   C52   S    
C54   H54   S    
C41   H28   S    
C43   H23   S    
C56   H48   S    
C31   O9    D    
C34   H11   S    
C33   C34   S    
C49   O15   D    
C17   C23   S    
Cu1   O5    S    
C10   N1    S    
C18   C24   S    
C17   C26   S    
C40   O12   D    
C53   H41   S    
C4    C7    S    
C52   H44   S    
C11   C14   S    
C19   C31   S    
C24   C39   S    
C56   H49   S    
C14   N2    S    
C3    H1    S    
C50   H40   S    
C51   H46   S    
Cu2   O7    S    
C55   H51   S    
C11   N1    S    
C9    C13   S    
C52   C53   S    
C42   H27   S    
C33   H12   S    
Cu1   Cu2   S    
C50   O16   D    
C38   H15   S    
Cu1   O8    S    
C11   C49   S    
C32   O10   D    
Cu2   O3    S    
C37   H18   S    
C16   O6    A    
C13   N1    S    
C53   H43   S    
Cu2   O2    S    
C21   C27   T    
C14   C54   S    
C22   C28   T    
C12   N2    S    
C39   O11   D    
C18   C25   S    
C30   C44   S    
C19   C25   S    
C10   C12   S    
C41   H29   S    
C43   H24   S    
C34   H10   S    
C4    H2    S    
C1    C6    S    
C45   H33   S    
C40   H22   S    
C4    C6    S    
C3    C8    S    
C10   C14   S    
C16   O8    A    
C46   H30   S    
C5    C7    S    
C56   H50   S    
C6    C8    S    
C36   C37   S    
Cu1   N1    S    
C44   H35   S    
C51   H47   S    
C42   H26   S    
C46   H31   S    
C33   H13   S    
C31   H5    S    
C29   C41   S    
C20   C23   S    
C38   H16   S    
C32   H6    S    
Cu2   O6    S    
C37   H17   S    
C36   H20   S    
C48   O14   D    
C9    C11   S    
C54   C55   S    
C7    C47   S    
C1    O3    A    
C47   O13   D    
C36   H19   S    
Cu2   N2    S    
C35   H8    S    
C2    C5    S    
C15   O7    A    
C17   C33   S    
C43   H25   S    
C12   C50   S    
C5    C30   S    
C34   C35   S    
C16   C22   S    
C24   C26   S    
C54   H53   S    
C42   C43   S    
C3    C5    S    
C45   H34   S    
C25   C27   S    
C49   H39   S    
C26   C28   S    
C47   H37   S    
C44   H36   S    
C8    C30   S    
C37   C38   S    
C19   C24   S    
C55   C56   S    
C15   O5    A    
C13   C51   S    
C46   H32   S    
C52   H45   S    
C3    C29   S    
C45   C46   S    
C20   C26   S    
C2    O4    A    
C9    N2    S    
C17   C19   S    
Cu1   O1    S    
C18   C20   S    
C23   C25   S    
C55   H52   S    
C48   H38   S    
C18   C36   S    
C1    O1    A    
C41   C42   S    
C2    O2    A    
C15   C21   S    
C6    C29   S    
C12   C13   S    
C20   C32   S    
C38   H14   S    
C35   H9    S    
C9    H3    S    
C23   C40   S    
C10   H4    S    
C44   C45   S    
C8    C48   S    
C4    C30   S    
C53   H42   S    
