data_mof_unit_38232.cif
_audit_creation_date              2012-12-11T15:31:48-0500
_audit_creation_method            fapswitch 2.2
_symmetry_space_group_name_H-M    P1
_symmetry_Int_Tables_number       1
_space_group_crystal_system       triclinic
_cell_length_a                    13.515403
_cell_length_b                    13.557743
_cell_length_c                    27.690324
_cell_angle_alpha                 90.338882
_cell_angle_beta                  90.443379
_cell_angle_gamma                 119.705471
_cell_volume                      4406.72546984

loop_
_atom_site_label
_atom_site_type_symbol
_atom_type_description
_atom_site_fract_x
_atom_site_fract_y
_atom_site_fract_z
_atom_type_partial_charge
C1    C     C_R   0.619331 0.898407 0.431206 0.537630
C2    C     C_R   0.563381 0.299413 0.209081 0.281145
C3    C     C_R   0.548241 0.273490 0.258487 0.230579
C4    C     C_R   0.635623 0.270350 0.285408 -0.007914
C5    C     C_R   0.665059 0.320149 0.186669 -0.055329
C6    C     C_1   0.683303 0.349879 0.136504 -0.033536
C7    C     C_1   0.617364 0.237745 0.335354 0.009868
C8    C     C_1   0.697896 0.382980 0.095566 -0.014523
C9    C     C_1   0.231617 0.862789 0.382801 -0.016836
C10   C     C_R   0.084632 0.750745 0.270138 -0.114984
C11   C     C_R   0.066852 0.740215 0.220131 -0.114686
C12   C     C_R   0.572658 0.171092 0.425596 0.551347
C13   C     C_R   0.240574 0.919685 0.209038 -0.096609
C14   C     C_R   0.258415 0.930123 0.259104 -0.095613
C15   C     C_R   0.180479 0.845686 0.289740 0.032939
C16   C     C_R   0.144948 0.824341 0.189443 0.033318
C17   C     C_1   0.124223 0.811798 0.138095 -0.055281
C18   C     C_1   0.203737 0.853624 0.340841 -0.060668
C19   C     C_1   0.097247 0.793832 0.095989 -0.010902
C20   C     C_1   0.633883 0.865897 0.383492 -0.012409
C21   C     C_R   0.620131 0.893236 0.257952 -0.095034
C22   C     C_R   0.627482 0.881076 0.208110 -0.103059
C23   C     C_R   0.279215 0.878891 0.430549 0.534497
C24   C     C_R   0.686094 0.741172 0.222636 -0.117524
C25   C     C_R   0.678393 0.753060 0.272504 -0.116111
C26   C     C_R   0.646268 0.829863 0.290297 0.037687
C27   C     C_R   0.661038 0.805412 0.190318 0.033404
C28   C     C_1   0.675325 0.796683 0.139234 -0.064265
C29   C     C_1   0.641069 0.846107 0.341515 -0.055609
C30   C     C_1   0.693199 0.787047 0.097324 -0.018957
C31   C     C_R   0.645480 0.293133 0.611854 0.023291
C32   C     C_R   0.751051 0.318193 0.632202 -0.128775
C33   C     C_R   0.778904 0.361008 0.679211 -0.114768
C34   C     C_R   0.620857 0.901185 0.569134 0.547516
C35   C     C_R   0.700506 0.377182 0.706153 0.038712
C36   C     C_R   0.598754 0.359212 0.684070 -0.117179
C37   C     C_R   0.572782 0.319987 0.637164 -0.107991
C38   C     C_R   0.666628 0.459650 0.779146 -0.116142
C39   C     C_R   0.649782 0.456307 0.828409 0.246320
C40   C     C_R   0.759699 0.359543 0.838265 -0.172594
C41   C     C_R   0.763655 0.351114 0.788155 -0.129847
C42   C     C_R   0.716019 0.400716 0.758290 -0.011619
C43   C     C_R   0.701235 0.410432 0.858709 0.028340
C44   C     C_R   0.220383 0.863368 0.614395 0.026323
C45   C     C_R   0.602434 0.224487 0.568007 0.562602
C46   C     C_R   0.231785 0.956444 0.642274 0.265160
C47   C     C_R   0.202886 0.940255 0.690964 -0.097044
C48   C     C_R   0.155670 0.832253 0.711261 -0.007045
C49   C     C_R   0.132411 0.738389 0.681987 -0.139762
C50   C     C_R   0.165464 0.753977 0.633981 -0.177595
C51   C     C_R   0.162100 0.746461 0.789691 -0.116382
C52   C     C_R   0.139687 0.731336 0.838845 -0.125668
C53   C     C_R   0.073768 0.868364 0.836625 -0.137496
C54   C     C_R   0.093907 0.881654 0.787460 -0.129012
C55   C     C_R   0.136248 0.819302 0.763443 0.035211
C56   C     C_R   0.279849 0.882020 0.568339 0.558907
C57   C     C_R   0.092527 0.790019 0.862348 0.018426
C58   C     C_R   0.641687 0.864070 0.615870 -0.006106
C59   C     C_R   0.553892 0.768060 0.637974 -0.132536
C60   C     C_R   0.563338 0.746941 0.686260 -0.154389
C61   C     C_R   0.660508 0.821070 0.713071 -0.000351
C62   C     C_R   0.752501 0.915532 0.690777 0.063723
C63   C     C_R   0.742148 0.934649 0.641918 -0.128848
C64   C     C_R   0.744339 0.765098 0.779025 -0.083297
C65   C     C_R   0.758750 0.754085 0.827804 -0.047358
C66   C     C_R   0.610134 0.799158 0.846755 -0.143386
C67   C     C_1   0.598724 0.208980 0.376848 0.001067
C68   C     C_R   0.595994 0.810957 0.797533 -0.099391
C69   C     C_R   0.665033 0.796271 0.763886 0.054368
C70   C     C_R   0.692836 0.772320 0.861679 0.077702
C71   C     C_R   0.049656 0.761128 0.048235 0.545512
C72   C     C_R   0.713982 0.434605 0.049297 0.541920
C73   C     C_R   0.723769 0.770696 0.049612 0.542048
C74   C     C_R   0.043059 0.755309 0.910243 0.536708
C75   C     C_R   0.710202 0.435715 0.910341 0.555687
C76   C     C_R   0.717226 0.765184 0.911988 0.534447
C77   C     C_R   0.739612 0.297559 0.263625 0.227224
C78   C     C_R   0.752315 0.319487 0.213828 -0.171684
Cr1   Cr    Cr6+3 0.417720 0.831920 0.499820 1.011059
Cr2   Cr    Cr6+3 0.668190 0.085770 0.500360 1.022579
Cr3   Cr    Cr6+3 0.414060 0.082260 0.499840 1.022576
Cr4   Cr    Cr6+3 0.908000 0.821090 0.979770 1.027969
Cr5   Cr    Cr6+3 0.912420 0.571130 0.979880 1.022609
Cr6   Cr    Cr6+3 0.657970 0.566940 0.980940 1.027643
H1    H     H_    0.608501 0.931601 0.183569 0.116167
H2    H     H_    0.712689 0.682755 0.209268 0.098328
H3    H     H_    0.698569 0.703459 0.297072 0.101446
H4    H     H_    0.809107 0.299255 0.612855 0.126256
H5    H     H_    0.635297 0.504256 0.757050 0.110770
H6    H     H_    0.858912 0.376538 0.695057 0.105517
H7    H     H_    0.801682 0.304087 0.773020 0.133804
H8    H     H_    0.800625 0.325190 0.861023 0.128777
H9    H     H_    0.534391 0.367499 0.703784 0.093118
H10   H     H_    0.830475 0.336248 0.196334 0.130520
H11   H     H_    0.491180 0.302266 0.622267 0.148635
H12   H     H_    0.198003 0.699992 0.772091 0.102866
H13   H     H_    0.155003 0.670620 0.857977 0.124325
H14   H     H_    0.223505 0.013853 0.713399 0.107822
H15   H     H_    0.072479 0.937722 0.767972 0.126341
H16   H     H_    0.036274 0.913994 0.853678 0.145397
H17   H     H_    0.092778 0.653599 0.696710 0.116736
H18   H     H_    0.153186 0.681143 0.612874 0.133447
H19   H     H_    0.475525 0.712123 0.618667 0.134655
H20   H     H_    0.797306 0.752984 0.753180 0.107690
H21   H     H_    0.821949 0.731833 0.839340 0.116792
H22   H     H_    0.493718 0.673733 0.703114 0.109054
H23   H     H_    0.534334 0.834985 0.785738 0.115659
H24   H     H_    0.558908 0.812892 0.872917 0.093651
H25   H     H_    0.809581 0.009376 0.625022 0.158652
H26   H     H_    0.024583 0.684418 0.293400 0.097203
H27   H     H_    0.992470 0.666135 0.205361 0.102227
H28   H     H_    0.301361 0.985335 0.185732 0.141165
H29   H     H_    0.333618 0.003230 0.273905 0.157609
H30   H     H_    0.595140 0.952923 0.271305 0.122712
O1    O     O_R   0.302900 0.805360 0.446400 -0.508241
O2    O     O_R   0.657980 0.180990 0.549630 -0.500545
O3    O     O_R   0.503420 0.197810 0.553190 -0.493826
O4    O     O_R   0.320350 0.978840 0.548910 -0.454841
O5    O     O_3   0.499990 0.999990 0.500010 -0.262086
O6    O     O_R   0.819150 0.845650 0.033320 -0.500765
O7    O     O_R   0.006060 0.815720 0.028680 -0.489908
O8    O     O_R   0.028100 0.664460 0.032550 -0.509372
O9    O     O_R   0.811290 0.477490 0.029660 -0.494963
O10   O     O_R   0.638120 0.455970 0.034270 -0.514435
O11   O     O_R   0.667540 0.672320 0.030160 -0.505777
O12   O     O_R   0.522090 0.841370 0.450730 -0.498274
O13   O     O_R   0.814460 0.840990 0.926980 -0.516719
O14   O     O_R   0.001710 0.811400 0.930110 -0.508073
O15   O     O_R   0.023410 0.659800 0.926210 -0.516497
O16   O     O_R   0.806940 0.473170 0.931090 -0.506948
O17   O     O_R   0.633420 0.451310 0.927930 -0.474876
O18   O     O_R   0.663190 0.668000 0.931580 -0.477134
O19   O     O_3   0.826130 0.653050 0.980200 -0.249912
O20   O     O_R   0.693280 0.995650 0.447220 -0.508393
O21   O     O_R   0.657260 0.178740 0.451050 -0.488709
O22   O     O_R   0.502640 0.195380 0.446850 -0.517255
O23   O     O_R   0.319630 0.976590 0.450330 -0.517128
O24   O     O_R   0.303680 0.807790 0.552740 -0.528774
O25   O     O_R   0.522820 0.843620 0.549310 -0.498559
O26   O     O_R   0.694060 0.998080 0.553560 -0.521282
O27   O     O_3   0.823996 0.292509 0.290558 -0.554172
C79   C     C_3   0.927607 0.397534 0.289961 0.012428
H31   H     H_    0.949228 0.429576 0.327779 0.150863
H32   H     H_    0.924114 0.465789 0.268877 0.104291
C80   C     C_3   0.022712 0.378563 0.270598 -0.259066
H33   H     H_    0.031420 0.316598 0.293812 0.178350
H34   H     H_    0.000532 0.342697 0.233364 0.164934
C81   C     C_3   0.136569 0.489154 0.269740 -0.489917
H35   H     H_    0.130873 0.551292 0.245568 0.158777
H36   H     H_    0.203605 0.471988 0.255985 0.145995
H37   H     H_    0.161303 0.526251 0.306700 0.154535
O28   O     O_3   0.591710 0.507846 0.846963 -0.549161
C82   C     C_3   0.473701 0.435082 0.839102 0.022690
H38   H     H_    0.445139 0.351478 0.856605 0.139392
H39   H     H_    0.453052 0.421418 0.799735 0.109856
C83   C     C_3   0.408626 0.489414 0.861120 -0.247735
H40   H     H_    0.430181 0.506373 0.900218 0.184479
H41   H     H_    0.434237 0.571381 0.843076 0.165848
C84   C     C_3   0.280149 0.412719 0.855058 -0.491736
H42   H     H_    0.256544 0.396128 0.816143 0.145845
H43   H     H_    0.235584 0.454967 0.871177 0.148087
H44   H     H_    0.251808 0.330731 0.873610 0.154074
O29   O     O_3   0.288553 0.066038 0.624547 -0.553500
C85   C     C_3   0.212898 0.109571 0.620060 0.002217
H45   H     H_    0.264480 0.203622 0.622591 0.135681
H46   H     H_    0.149601 0.082808 0.649650 0.147064
C86   C     C_3   0.151918 0.077127 0.570797 -0.249223
H47   H     H_    0.216164 0.108627 0.541644 0.181917
H48   H     H_    0.099979 0.983183 0.567466 0.156371
C87   C     C_3   0.074087 0.127883 0.564368 -0.478006
H49   H     H_    0.007843 0.096032 0.592618 0.187905
H50   H     H_    0.031297 0.102883 0.528421 0.149699
H51   H     H_    0.124312 0.222037 0.566654 0.142086
O30   O     O_3   0.474617 0.296611 0.182611 -0.536541
C88   C     C_3   0.495500 0.408573 0.175086 0.021138
H52   H     H_    0.537482 0.439106 0.139698 0.155837
H53   H     H_    0.551220 0.470405 0.203510 0.092863
C89   C     C_3   0.381594 0.406982 0.173891 -0.252208
H54   H     H_    0.329256 0.353587 0.142921 0.177322
H55   H     H_    0.334690 0.369020 0.207681 0.175353
C90   C     C_3   0.398132 0.526258 0.169022 -0.487852
H56   H     H_    0.444154 0.578774 0.201203 0.158414
H57   H     H_    0.313752 0.521296 0.166427 0.148475
H58   H     H_    0.446988 0.567312 0.135984 0.162061
C91   C     C_2   0.857336 0.999266 0.717454 0.552809
O31   O     O_2   0.855397 0.014365 0.760937 -0.523865
O32   O     O_R   0.958442 0.063687 0.692279 -0.755585
H59   H     H_    0.023733 0.118018 0.714084 0.323910
O33   O     O_3   0.443847 0.242143 0.279085 -0.555135
C92   C     C_3   0.449915 0.336814 0.303545 0.014876
H60   H     H_    0.482351 0.411951 0.279662 0.122137
H61   H     H_    0.506748 0.359736 0.335884 0.130961
C93   C     C_3   0.330644 0.306691 0.320039 -0.247427
H62   H     H_    0.271464 0.278297 0.288404 0.173918
H63   H     H_    0.299399 0.235683 0.346101 0.177773
C94   C     C_3   0.330457 0.408297 0.343983 -0.489456
H64   H     H_    0.387093 0.436663 0.376416 0.155306
H65   H     H_    0.242626 0.383810 0.355255 0.151058
H66   H     H_    0.359995 0.479755 0.318257 0.146993

loop_
_geom_bond_atom_site_label_1
_geom_bond_atom_site_label_2
_ccdc_geom_bond_type
C48   C55   S    
C66   C68   A    
C21   C26   A    
C92   H60   S    
Cr1   O1    S    
C15   C18   S    
C41   C42   A    
C52   H13   S    
C71   O8    A    
C19   C71   S    
C35   C36   A    
C24   C27   A    
Cr4   O6    S    
C80   H33   S    
C85   H46   S    
C86   H48   S    
C31   C32   A    
C53   C54   A    
Cr3   O23   S    
C38   H5    S    
C47   H14   S    
C85   H45   S    
C81   H36   S    
Cr5   O15   S    
C13   H28   S    
C10   C15   A    
C3    O33   S    
C49   H17   S    
C5    C6    S    
C73   O11   A    
C91   O32   S    
C87   H49   S    
C45   O3    A    
C65   C70   A    
C32   H4    S    
C90   H56   S    
C34   O25   A    
C58   C63   A    
Cr2   O20   S    
C37   H11   S    
C22   H1    S    
C49   C50   A    
C35   C42   S    
O30   C88   S    
C44   C50   A    
C92   C93   S    
C17   C19   T    
C46   C47   A    
O27   C79   S    
C36   H9    S    
C40   C43   A    
C74   O14   A    
O29   C85   S    
C75   O17   A    
C16   C17   S    
C93   H63   S    
C12   O21   A    
Cr1   O5    S    
C12   O22   A    
C84   H43   S    
C68   H23   S    
C86   C87   S    
Cr4   O7    S    
C75   O16   A    
C51   H12   S    
Cr2   O5    S    
C59   C60   A    
C82   H38   S    
C73   O6    A    
C21   C22   A    
C72   O10   A    
C79   C80   S    
C61   C62   A    
C94   H66   S    
C65   H21   S    
C80   H34   S    
C44   C46   A    
C89   H54   S    
C88   C89   S    
C20   C29   T    
C90   H57   S    
C53   H16   S    
C43   C75   S    
C12   C67   S    
Cr6   O19   S    
C8    C72   S    
C11   H27   S    
C51   C52   A    
C47   C48   A    
Cr2   O2    S    
C81   H37   S    
C24   C25   A    
Cr5   O16   S    
C94   H65   S    
Cr1   O25   S    
C52   C57   A    
C86   H47   S    
C30   C73   S    
C53   C57   A    
C68   C69   A    
C6    C8    T    
C4    C7    S    
C58   C59   A    
C77   C78   A    
C23   O1    A    
C39   O28   S    
Cr6   O18   S    
C40   H8    S    
C31   C37   A    
C60   C61   A    
C57   C74   S    
C63   H25   S    
C62   C63   A    
C21   H30   S    
C56   O24   A    
C11   C16   A    
C44   C56   S    
C84   H42   S    
C93   C94   S    
C84   H44   S    
C64   C69   A    
C1    O12   A    
C82   C83   S    
Cr2   O21   S    
Cr4   O14   S    
C62   C91   S    
Cr3   O3    S    
C40   C41   A    
C41   H7    S    
Cr1   O12   S    
C50   H18   S    
C88   H53   S    
C22   C27   A    
C72   O9    A    
C70   C76   S    
C79   H32   S    
C54   H15   S    
C74   O15   A    
C2    C5    A    
C82   H39   S    
C3    C4    A    
C80   C81   S    
C60   H22   S    
Cr3   O22   S    
C90   H58   S    
C61   C69   S    
Cr6   O11   S    
C64   H20   S    
C54   C55   A    
C83   H40   S    
C1    C20   S    
C92   H61   S    
C14   C15   A    
C56   O4    A    
C23   O23   A    
C83   C84   S    
C9    C23   S    
C66   H24   S    
C94   H64   S    
C89   H55   S    
C38   C42   A    
Cr6   O10   S    
C14   H29   S    
Cr3   O5    S    
Cr6   O17   S    
C46   O29   S    
C59   H19   S    
C64   C65   A    
Cr4   O19   S    
C83   H41   S    
C2    C3    A    
C25   C26   A    
C4    C77   A    
C88   H52   S    
Cr2   O26   S    
C33   H6    S    
C32   C33   A    
C76   O18   A    
C45   O2    A    
C91   O31   D    
C38   C39   A    
C87   H50   S    
C78   H10   S    
C48   C49   A    
Cr3   O4    S    
C34   O26   A    
C33   C35   A    
C28   C30   T    
C10   H26   S    
C51   C55   A    
C81   H35   S    
C85   C86   S    
Cr5   O8    S    
O33   C92   S    
C77   O27   S    
Cr4   O13   S    
Cr5   O19   S    
C89   C90   S    
C10   C11   A    
C7    C67   T    
C25   H3    S    
C71   O7    A    
C9    C18   T    
O32   H59   S    
Cr1   O24   S    
C66   C70   A    
C39   C43   A    
C26   C29   S    
C36   C37   A    
C93   H62   S    
C31   C45   S    
C13   C16   A    
C27   C28   S    
C34   C58   S    
C76   O13   A    
C79   H31   S    
O28   C82   S    
Cr5   O9    S    
C5    C78   A    
C13   C14   A    
C24   H2    S    
C2    O30   S    
C1    O20   A    
C87   H51   S    
