data_mof_unit_36597.cif
_audit_creation_date              2012-10-26T20:51:14-0400
_audit_creation_method            fapswitch 2.2
_symmetry_space_group_name_H-M    P1
_symmetry_Int_Tables_number       1
_space_group_crystal_system       triclinic
_cell_length_a                    13.140534
_cell_length_b                    10.829324
_cell_length_c                    9.520353
_cell_angle_alpha                 90.166795
_cell_angle_beta                  94.193672
_cell_angle_gamma                 90.487083
_cell_volume                      1351.09111519

loop_
_atom_site_label
_atom_site_type_symbol
_atom_type_description
_atom_site_fract_x
_atom_site_fract_y
_atom_site_fract_z
_atom_type_partial_charge
C1    C     C_R   0.497977 0.262301 0.499369 0.553886
C2    C     C_R   0.513856 0.935495 0.374895 -0.163074
C3    C     C_R   0.489593 0.870746 0.496067 0.000098
C4    C     C_R   0.300544 0.504137 0.477114 0.544470
C5    C     C_R   0.449946 0.936373 0.605885 0.015071
C6    C     C_3   0.471927 0.931497 0.762289 -0.102561
C7    C     C_3   0.471327 0.072517 0.761047 -0.249033
C8    C     C_R   0.537084 0.599638 0.077972 0.155984
C9    C     C_R   0.459228 0.404394 0.070089 -0.021399
C10   C     C_R   0.459796 0.404187 0.921467 -0.019695
C11   C     C_R   0.537228 0.599532 0.930084 0.154968
C12   C     C_R   0.022776 0.499958 0.571110 0.043958
C13   C     C_3   0.644326 0.646778 0.936004 -0.274325
C14   C     C_3   0.643772 0.648075 0.094897 -0.279847
C15   C     C_R   0.498314 0.737728 0.499780 0.547020
C16   C     C_R   0.698639 0.499215 0.524239 0.551283
C17   C     C_R   0.809398 0.496673 0.537375 -0.000207
C18   C     C_R   0.188037 0.513328 0.469937 -0.011753
C19   C     C_R   0.031450 0.535394 0.317257 -0.008716
C20   C     C_R   0.137508 0.528578 0.336440 -0.146195
C21   C     C_R   0.130264 0.507608 0.591329 -0.012789
C22   C     C_3   0.984785 0.559241 0.169092 -0.261298
C23   C     C_R   0.973049 0.518016 0.434925 0.044459
C24   C     C_3   0.950531 0.693772 0.151453 -0.295646
C25   C     C_3   0.923324 0.723803 0.996736 -0.454931
C26   C     C_3   0.178647 0.510121 0.742740 -0.227485
C27   C     C_3   0.198761 0.378070 0.796827 -0.287006
C28   C     C_3   0.206794 0.372749 0.957416 -0.466279
C29   C     C_3   0.384098 0.872339 0.837503 -0.273891
C30   C     C_3   0.401018 0.887131 0.997020 -0.446810
C31   C     C_R   0.865927 0.516989 0.420662 -0.135058
C32   C     C_R   0.858665 0.472333 0.668408 -0.147740
C33   C     C_R   0.963294 0.472766 0.685071 -0.149374
C34   C     C_R   0.450033 0.063532 0.605325 -0.003675
C35   C     C_R   0.488836 0.129212 0.494975 0.006535
C36   C     C_R   0.513178 0.064100 0.374130 -0.164875
Cu1   Cu    Cu3+1 0.499990 0.499980 0.640670 0.914380
Cu2   Cu    Cu3+1 0.500010 0.500020 0.359330 0.927455
H1    H     H_    0.825396 0.532040 0.319811 0.113114
H2    H     H_    0.648140 0.742592 0.140794 0.111411
H3    H     H_    0.816371 0.451757 0.759131 0.122489
H4    H     H_    0.995301 0.448843 0.788890 0.113487
H5    H     H_    0.181615 0.537937 0.245170 0.129736
H6    H     H_    0.537702 0.111893 0.282491 0.128067
H7    H     H_    0.539179 0.887546 0.284030 0.125221
H8    H     H_    0.992433 0.719238 0.936315 0.148378
H9    H     H_    0.865671 0.657207 0.950375 0.151780
H10   H     H_    0.891671 0.818433 0.987598 0.142484
H11   H     H_    0.883091 0.711010 0.212268 0.156833
H12   H     H_    0.548189 0.892632 0.792906 0.137211
H13   H     H_    0.013111 0.757046 0.191958 0.167801
H14   H     H_    0.041841 0.541053 0.091230 0.132119
H15   H     H_    0.920667 0.494145 0.141299 0.128605
H16   H     H_    0.241155 0.283787 0.992872 0.131798
H17   H     H_    0.254358 0.450174 0.003026 0.160491
H18   H     H_    0.129648 0.378384 0.996878 0.139756
H19   H     H_    0.136358 0.314194 0.757355 0.156953
H20   H     H_    0.269630 0.342871 0.755653 0.179426
H21   H     H_    0.247039 0.570128 0.757569 0.166541
H22   H     H_    0.128733 0.560252 0.812389 0.112974
H23   H     H_    0.406370 0.114178 0.812128 0.120125
H24   H     H_    0.476915 0.851162 0.034579 0.145464
H25   H     H_    0.396698 0.985888 0.027563 0.146034
H26   H     H_    0.341365 0.834712 0.049053 0.144164
H27   H     H_    0.309752 0.914126 0.801141 0.146870
H28   H     H_    0.379675 0.772283 0.811577 0.169428
H29   H     H_    0.547249 0.114455 0.791882 0.129533
H30   H     H_    0.426863 0.326323 0.122157 0.115588
H31   H     H_    0.429251 0.325434 0.862954 0.108189
H32   H     H_    0.697702 0.577913 0.896891 0.145913
H33   H     H_    0.650723 0.740296 0.890280 0.113508
H34   H     H_    0.697726 0.580898 0.146133 0.145932
N1    N     N_R   0.500660 0.500930 0.148010 -0.231395
N2    N     N_R   0.500660 0.500890 0.852110 -0.235582
O1    O     O_R   0.500000 0.319640 0.618810 -0.510034
O2    O     O_R   0.500010 0.319680 0.381230 -0.512726
O3    O     O_R   0.348990 0.499960 0.599490 -0.517945
O4    O     O_R   0.349000 0.500000 0.361910 -0.506114
O5    O     O_R   0.499990 0.680320 0.618770 -0.508160
O6    O     O_R   0.500000 0.680360 0.381190 -0.504845
O7    O     O_R   0.651000 0.500000 0.638090 -0.507912
O8    O     O_R   0.651010 0.500040 0.400510 -0.508615

loop_
_geom_bond_atom_site_label_1
_geom_bond_atom_site_label_2
_ccdc_geom_bond_type
Cu1   N2    S    
C30   H26   S    
C18   C21   A    
C11   C13   S    
C35   C36   A    
C21   C26   S    
C28   H18   S    
Cu2   O2    S    
Cu1   O5    S    
C12   C23   A    
C26   C27   S    
C29   C30   S    
C33   H4    S    
C5    C6    S    
C13   H32   S    
C34   C35   A    
C8    N1    A    
C7    H23   S    
C19   C20   A    
C16   C17   S    
C32   H3    S    
C9    C10   A    
C25   H9    S    
C4    C18   S    
C24   H13   S    
Cu1   O1    S    
C30   H25   S    
Cu2   O8    S    
Cu1   O7    S    
C9    N1    A    
C28   H17   S    
C22   H15   S    
C2    H7    S    
C15   O5    A    
C1    O1    A    
C19   C22   S    
C24   C25   S    
C27   H19   S    
C28   H16   S    
Cu2   O4    S    
C7    H29   S    
C12   C21   A    
C27   H20   S    
C23   C31   A    
C19   C23   A    
C4    O4    A    
Cu1   Cu2   S    
C15   O6    A    
C5    C34   A    
C16   O8    A    
C6    H12   S    
C25   H10   S    
C29   H27   S    
C30   H24   S    
C17   C31   A    
C7    C34   S    
C22   C24   S    
C36   H6    S    
C20   H5    S    
C3    C15   S    
C1    C35   S    
C22   H14   S    
C26   H21   S    
C2    C36   A    
C24   H11   S    
Cu1   O3    S    
C8    C14   S    
C1    O2    A    
C14   H34   S    
C3    C5    A    
C11   N2    A    
C6    C7    S    
C13   H33   S    
C32   C33   A    
C2    C3    A    
C9    H30   S    
C4    O3    A    
C10   N2    A    
Cu2   O6    S    
C8    C11   A    
C16   O7    A    
C31   H1    S    
C18   C20   A    
C14   H2    S    
C29   H28   S    
C10   H31   S    
C6    C29   S    
C27   C28   S    
C17   C32   A    
C12   C33   A    
C13   C14   S    
C26   H22   S    
C25   H8    S    
Cu2   N1    S    
