data_mof_unit_12057.cif
_audit_creation_date              2013-03-05T16:30:59-0500
_audit_creation_method            fapswitch 2.2
_symmetry_space_group_name_H-M    P1
_symmetry_Int_Tables_number       1
_space_group_crystal_system       triclinic
_cell_length_a                    12.979067
_cell_length_b                    10.880072
_cell_length_c                    9.566414
_cell_angle_alpha                 91.036915
_cell_angle_beta                  97.302009
_cell_angle_gamma                 91.093067
_cell_volume                      1339.41723949

loop_
_atom_site_label
_atom_site_type_symbol
_atom_site_description
_atom_site_fract_x
_atom_site_fract_y
_atom_site_fract_z
_atom_type_partial_charge
O1    O     O_R   0.500000 0.319640 0.618810 -0.592925
O2    O     O_R   0.500010 0.319680 0.381230 -0.503838
C1    C     C_R   0.496219 0.262134 0.498357 0.868760
O3    O     O_R   0.348990 0.499960 0.599490 -0.590190
O4    O     O_R   0.349000 0.500000 0.361910 -0.528690
C2    C     C_R   0.300064 0.501501 0.471623 0.833323
Cu1   Cu    Cu3+1 0.499990 0.499980 0.640670 1.048754
Cu2   Cu    Cu3+1 0.500010 0.500020 0.359330 1.094844
O5    O     O_R   0.499990 0.680320 0.618770 -0.555037
O6    O     O_R   0.500000 0.680360 0.381190 -0.581284
O7    O     O_R   0.651000 0.500000 0.638090 -0.553739
O8    O     O_R   0.651010 0.500040 0.400510 -0.575078
C3    C     C_R   0.498945 0.737073 0.500950 0.843034
C4    C     C_R   0.699330 0.498036 0.527303 0.857303
C5    C     C_R   0.812371 0.497380 0.543733 -0.136438
C6    C     C_R   0.185969 0.498862 0.451121 -0.163275
C7    C     C_R   0.022041 0.420534 0.329039 -0.153418
C8    C     C_R   0.127056 0.449275 0.327136 0.324061
C9    C     C_R   0.134722 0.539466 0.562989 -0.212108
C10   C     C_R   0.027380 0.525486 0.556184 0.100937
C11   C     C_R   0.970843 0.458479 0.442347 -0.011321
C12   C     C_R   0.863792 0.435940 0.442603 0.276765
C13   C     C_R   0.868476 0.569044 0.651239 -0.129459
C14   C     C_R   0.975934 0.578464 0.661289 -0.085930
H1    H     H_    0.828741 0.620802 0.724879 0.188660
H2    H     H_    0.980061 0.376213 0.236607 0.245511
H3    H     H_    0.018217 0.632476 0.747020 0.180651
H4    H     H_    0.178427 0.583875 0.654972 0.180126
C15   C     C_R   0.541567 0.066808 0.614682 0.019255
C16   C     C_R   0.494558 0.127940 0.496147 -0.217001
C17   C     C_R   0.449549 0.056326 0.377331 0.370768
C18   C     C_R   0.458503 0.928905 0.378028 -0.119961
H5    H     H_    0.426184 0.875090 0.285808 0.211542
C19   C     C_R   0.497544 0.869508 0.501007 -0.084040
C20   C     C_R   0.536446 0.939829 0.619442 -0.052403
C21   C     C_3   0.509979 0.939624 0.767616 0.197651
C22   C     C_3   0.521713 0.079228 0.765529 0.084895
H6    H     H_    0.569099 0.893584 0.841797 0.156273
H7    H     H_    0.450499 0.131219 0.779273 0.157724
C23   C     C_R   0.551938 0.590490 0.084689 0.160421
N1    N     N_R   0.500660 0.500930 0.148010 -0.219280
C24   C     C_R   0.434049 0.425604 0.061288 0.109725
H8    H     H_    0.379962 0.366845 0.106213 0.230982
C25   C     C_R   0.434485 0.424724 0.912551 0.031535
H9    H     H_    0.382886 0.361989 0.846813 0.145233
N2    N     N_R   0.500660 0.500890 0.852110 -0.169084
C26   C     C_R   0.556223 0.586377 0.938990 0.193903
C27   C     C_3   0.670963 0.617739 0.959468 -0.018236
C28   C     C_3   0.663011 0.630324 0.117066 0.060899
H10   H     H_    0.690856 0.703948 0.907244 0.134277
H11   H     H_    0.711955 0.566003 0.183222 0.197212
N3    N     N_R   0.808424 0.345273 0.348652 0.127300
O9    O     O_R   0.796056 0.360366 0.213102 -0.280847
O10   O     O_R   0.758991 0.255046 0.400276 -0.292183
N4    N     N_R   0.613435 0.124638 0.858303 0.175004
O11   O     O_R   0.706340 0.091775 0.837544 -0.263962
O12   O     O_R   0.601533 0.188527 0.971036 -0.222842
N5    N     N_R   0.739008 0.515809 0.933919 0.138893
O13   O     O_R   0.838620 0.530074 0.970288 -0.316666
O14   O     O_R   0.701638 0.406213 0.898892 -0.226628
N6    N     N_R   0.674350 0.757392 0.170562 0.141733
O15   O     O_R   0.616764 0.843789 0.112040 -0.322481
O16   O     O_R   0.739473 0.783581 0.282469 -0.306200
N7    N     N_R   0.169517 0.434536 0.196413 0.150956
O17   O     O_R   0.141259 0.339834 0.114420 -0.272743
O18   O     O_R   0.210126 0.529930 0.142081 -0.339681
S1    S     S_3+6 0.364927 0.115722 0.237433 0.072832
O19   O     O_2   0.427348 0.151339 0.122334 -0.220996
O20   O     O_2   0.284865 0.019864 0.180205 -0.205931
O21   O     O_3   0.303395 0.237687 0.293635 -0.530461
H12   H     H_    0.264738 0.205965 0.368777 0.336550
S2    S     S_3+6 0.378056 0.892619 0.783216 0.030646
O22   O     O_2   0.342486 0.960945 0.905537 -0.185201
O23   O     O_2   0.307668 0.921393 0.651135 -0.294566
O24   O     O_3   0.371183 0.741164 0.812703 -0.519713
H13   H     H_    0.299085 0.725326 0.832425 0.374902

loop_
_geom_bond_atom_site_label_1
_geom_bond_atom_site_label_2
_geom_bond_distance
_ccdc_geom_bond_type
C23   C26   1.401912 A    
N4    O11   1.302319 A    
S2    O23   1.503647 D    
N1    C24   1.368726 A    
C9    C10   1.391727 A    
C14   H3    1.083961 S    
Cu1   Cu2   2.691456 S    
C25   H9    1.081600 S    
Cu1   O7    1.963256 S    
C7    H2    1.078596 S    
C21   C22   1.524368 S    
S2    O24   1.679447 S    
O4    C2    1.294018 A    
O7    C4    1.298413 A    
N5    O14   1.300590 A    
C23   C28   1.489911 S    
C19   C20   1.390128 A    
N6    O16   1.300551 A    
O5    C3    1.293629 A    
C5    C12   1.409251 A    
C26   C27   1.508850 S    
N3    O10   1.301263 A    
C28   H11   1.106620 S    
C13   C14   1.387463 A    
O21   H12   0.990777 S    
C27   H10   1.111999 S    
C11   C12   1.406600 A    
C24   C25   1.423467 A    
O3    Cu1   1.949329 S    
C25   N2    1.369366 A    
C28   N6    1.463690 S    
S1    O19   1.499718 D    
Cu1   N2    2.021481 S    
C10   C14   1.397655 A    
Cu2   N1    2.022866 S    
O3    C2    1.305184 A    
N5    O13   1.301039 A    
C7    C11   1.401543 A    
O1    C1    1.296158 A    
C20   C21   1.500392 S    
C18   C19   1.395331 A    
C1    C16   1.459516 S    
C17   S1    1.760607 S    
O24   H13   0.990377 S    
C15   C16   1.402645 A    
C17   C18   1.393486 A    
Cu2   O8    1.949329 S    
C7    C8    1.395042 A    
C9    H4    1.084800 S    
Cu2   O6    1.969461 S    
C23   N1    1.363261 A    
O8    C4    1.293507 A    
N4    O12   1.299767 A    
C24   H8    1.075054 S    
N3    O9    1.300008 A    
C12   N3    1.440147 S    
Cu1   O5    1.977032 S    
N2    C26   1.367487 A    
C27   C28   1.528075 S    
O1    Cu1   1.969463 S    
O2    Cu2   1.977032 S    
S2    O22   1.501335 D    
O6    C3    1.293143 A    
O4    Cu2   1.963253 S    
C27   N5    1.466974 S    
C15   C20   1.383721 A    
S1    O21   1.676767 S    
C18   H5    1.083942 S    
C21   H6    1.110144 S    
O2    C1    1.299291 A    
C3    C19   1.441356 S    
C22   H7    1.113430 S    
N7    O17   1.301768 A    
C8    N7    1.436870 S    
C16   C17   1.422012 A    
C6    C9    1.399248 A    
C5    C13   1.398162 A    
C13   H1    1.080946 S    
N6    O15   1.301980 A    
C2    C6    1.468517 S    
C22   N4    1.463594 S    
C10   C11   1.415496 A    
C6    C8    1.418833 A    
C15   C22   1.501963 S    
C4    C5    1.455727 S    
S1    O20   1.503535 D    
C21   S2    1.802748 S    
N7    O18   1.301339 A    
