data_mof_unit_63899.cif
_audit_creation_date              2012-12-10T16:51:56-0500
_audit_creation_method            fapswitch 2.2
_symmetry_space_group_name_H-M    P1
_symmetry_Int_Tables_number       1
_space_group_crystal_system       triclinic
_cell_length_a                    18.302893
_cell_length_b                    18.398977
_cell_length_c                    18.324182
_cell_angle_alpha                 90.969077
_cell_angle_beta                  119.399585
_cell_angle_gamma                 119.399372
_cell_volume                      4405.09198621

loop_
_atom_site_label
_atom_site_type_symbol
_atom_type_description
_atom_site_fract_x
_atom_site_fract_y
_atom_site_fract_z
_atom_type_partial_charge
C1    C     C_R   0.777122 0.638290 0.638555 0.511520
C2    C     C_2   0.112224 0.309228 0.297827 -0.116401
C3    C     C_2   0.418797 0.168866 0.723897 -0.023467
C4    C     C_R   0.222857 0.361810 0.360572 0.508086
C5    C     C_2   0.501675 0.192564 0.805072 -0.094587
C6    C     C_2   0.436170 0.215770 0.663601 -0.019646
C7    C     C_2   0.489756 0.305487 0.693478 -0.101738
C8    C     C_2   0.056433 0.777554 0.718569 -0.164144
C9    C     C_2   0.112219 0.809982 0.807720 -0.098622
C10   C     C_2   0.944001 0.724122 0.662344 -0.162557
C11   C     C_2   0.887897 0.691017 0.695298 -0.096552
C12   C     C_3   0.595256 0.824334 0.805012 -0.134602
C13   C     C_2   0.406101 0.165764 0.185998 -0.039415
C14   C     C_2   0.493891 0.192379 0.194552 -0.093524
C15   C     C_2   0.416840 0.220442 0.253053 -0.137685
C16   C     C_R   0.500334 0.638776 0.361683 0.506200
C17   C     C_2   0.466861 0.308465 0.272484 0.002425
C18   C     C_2   0.442372 0.779980 0.223946 -0.161424
C19   C     C_2   0.498764 0.803297 0.191031 -0.096449
C20   C     C_2   0.440050 0.721447 0.277739 -0.162093
C21   C     C_2   0.504143 0.696326 0.308576 -0.097959
C22   C     C_R   0.498543 0.138296 0.861431 0.496313
C23   C     C_3   0.532040 0.793908 0.701897 -0.116801
C24   C     C_R   0.499801 0.861162 0.138255 0.513983
C25   C     C_R   0.777163 0.138185 0.136257 0.497230
C26   C     C_R   0.222968 0.862023 0.861614 0.508219
C27   C     C_R   0.498083 0.140452 0.139914 0.503119
C28   C     C_R   0.499783 0.361105 0.638433 0.500405
C29   C     C_R   0.500163 0.858536 0.858144 0.500341
C30   C     C_R   0.494705 0.359485 0.353403 0.515637
C31   C     C_R   0.500107 0.641713 0.641780 0.504251
C32   C     C_3   0.564199 0.728791 0.801620 -0.112649
C33   C     C_3   0.468610 0.706612 0.797373 -0.133740
C34   C     C_3   0.436883 0.771183 0.698004 0.015721
C35   C     C_3   0.499717 0.801415 0.800090 0.063136
C36   C     C_3   0.309560 0.096163 0.692245 -0.224497
C37   C     C_3   0.237126 0.125291 0.648027 -0.310832
C38   C     C_3   0.129767 0.054025 0.621638 -0.457156
C39   C     C_3   0.393658 0.159755 0.572741 -0.215229
C40   C     C_3   0.479442 0.176641 0.563931 -0.277824
C41   C     C_3   0.435575 0.121819 0.471795 -0.451382
C42   C     C_3   0.301831 0.081359 0.115363 -0.214730
C43   C     C_3   0.211303 0.077993 0.104497 -0.313696
C44   C     C_3   0.109456 0.995009 0.028589 -0.459616
C45   C     C_3   0.404884 0.675788 0.694211 -0.115012
C46   C     C_3   0.486116 0.356110 0.209739 -0.249576
C47   C     C_3   0.423023 0.395028 0.173532 -0.290836
C48   C     C_3   0.441313 0.442120 0.110430 -0.454216
C49   C     C_3   0.364380 0.795699 0.638447 -0.240409
C50   C     C_3   0.316638 0.755059 0.539892 -0.301932
C51   C     C_3   0.245518 0.780852 0.481058 -0.458375
C52   C     C_3   0.902636 0.096122 0.106578 -0.227483
C53   C     C_3   0.961417 0.128354 0.063355 -0.309922
C54   C     C_3   0.908237 0.056840 0.977306 -0.464689
C55   C     C_3   0.500587 0.699111 0.699325 0.056991
C56   C     C_2   0.946118 0.171222 0.184611 -0.024831
C57   C     C_2   0.888484 0.192446 0.192642 -0.076906
C58   C     C_2   0.057040 0.222271 0.254863 -0.152686
H1    H     H_    0.076985 0.345150 0.281458 0.107211
H2    H     H_    0.394672 0.803712 0.210496 0.152214
H3    H     H_    0.545173 0.779358 0.200819 0.103110
H4    H     H_    0.673292 0.885763 0.851433 0.103857
H5    H     H_    0.558024 0.828887 0.661978 0.100920
H6    H     H_    0.326821 0.614241 0.647905 0.104505
H7    H     H_    0.094775 0.188724 0.266637 0.147012
H8    H     H_    0.442889 0.671710 0.837459 0.109900
H9    H     H_    0.097610 0.991368 0.573931 0.152358
H10   H     H_    0.131734 0.041352 0.681430 0.152168
H11   H     H_    0.079032 0.076605 0.589283 0.146861
H12   H     H_    0.577062 0.249649 0.827455 0.088689
H13   H     H_    0.267227 0.187506 0.694996 0.164022
H14   H     H_    0.231743 0.138120 0.587131 0.166014
H15   H     H_    0.281171 0.035386 0.644624 0.142318
H16   H     H_    0.306513 0.078778 0.748858 0.166619
H17   H     H_    0.387834 0.049879 0.460299 0.141666
H18   H     H_    0.388129 0.138969 0.419542 0.160336
H19   H     H_    0.499009 0.136037 0.466750 0.141912
H20   H     H_    0.530485 0.247744 0.574958 0.180614
H21   H     H_    0.526555 0.158390 0.615091 0.151390
H22   H     H_    0.347720 0.088232 0.563418 0.124623
H23   H     H_    0.521416 0.339742 0.761225 0.093761
H24   H     H_    0.339471 0.169856 0.518269 0.172461
H25   H     H_    0.101083 0.995531 0.964346 0.151128
H26   H     H_    0.104607 0.934451 0.041158 0.154821
H27   H     H_    0.045640 0.993102 0.023664 0.143610
H28   H     H_    0.215184 0.077125 0.166916 0.158035
H29   H     H_    0.214349 0.137526 0.090073 0.166365
H30   H     H_    0.291749 0.076711 0.050056 0.155361
H31   H     H_    0.299490 0.023086 0.132955 0.173263
H32   H     H_    0.565901 0.254330 0.245019 0.093563
H33   H     H_    0.523400 0.497461 0.145749 0.157683
H34   H     H_    0.094025 0.791185 0.684590 0.149269
H35   H     H_    0.418329 0.394827 0.052429 0.150368
H36   H     H_    0.395059 0.469721 0.085726 0.143353
H37   H     H_    0.340265 0.340714 0.137001 0.149811
H38   H     H_    0.443485 0.443497 0.228907 0.185733
H39   H     H_    0.569033 0.409860 0.246338 0.154628
H40   H     H_    0.465016 0.311469 0.151164 0.147506
H41   H     H_    0.383884 0.699412 0.293139 0.152603
H42   H     H_    0.562914 0.718554 0.296866 0.103956
H43   H     H_    0.182371 0.756686 0.489625 0.151905
H44   H     H_    0.288675 0.854081 0.498354 0.147705
H45   H     H_    0.078001 0.800583 0.843959 0.101383
H46   H     H_    0.211950 0.750512 0.410133 0.146143
H47   H     H_    0.377878 0.778608 0.528789 0.168551
H48   H     H_    0.272174 0.681558 0.520081 0.171266
H49   H     H_    0.302920 0.771324 0.649356 0.160609
H50   H     H_    0.408149 0.869137 0.657851 0.157988
H51   H     H_    0.897105 0.994536 0.989815 0.148732
H52   H     H_    0.832635 0.043388 0.926547 0.145552
H53   H     H_    0.955791 0.079791 0.950794 0.144211
H54   H     H_    0.966763 0.188250 0.047848 0.169250
H55   H     H_    0.040252 0.146124 0.109938 0.159039
H56   H     H_    0.906681 0.710749 0.591094 0.152570
H57   H     H_    0.907543 0.042734 0.131004 0.143624
H58   H     H_    0.821348 0.067128 0.053532 0.175539
H59   H     H_    0.923469 0.249025 0.247248 0.087019
H60   H     H_    0.921911 0.700499 0.765402 0.104027
H61   H     H_    0.616798 0.710484 0.843618 0.127063
H62   H     H_    0.394137 0.188248 0.294412 0.132843
O1    O     O_3   0.500000 0.500000 0.500000 -0.434469
O2    O     O_R   0.270900 0.886160 0.946260 -0.548599
O3    O     O_R   0.560160 0.177420 0.117340 -0.540349
O4    O     O_R   0.729180 0.615300 0.675360 -0.542281
O5    O     O_R   0.440020 0.882760 0.822680 -0.557242
O6    O     O_R   0.439990 0.057240 0.117340 -0.554508
O7    O     O_R   0.560190 0.882760 0.942820 -0.546540
O8    O     O_R   0.729270 0.053840 0.113900 -0.548137
O9    O     O_R   0.270910 0.884750 0.824690 -0.547237
O10   O     O_R   0.560170 0.175430 0.946260 -0.538906
O11   O     O_R   0.440000 0.886160 0.115330 -0.540596
O12   O     O_R   0.439910 0.615300 0.386140 -0.542009
O13   O     O_R   0.270820 0.446200 0.386140 -0.543076
O14   O     O_R   0.560090 0.613880 0.384720 -0.550369
O15   O     O_R   0.439920 0.324620 0.553780 -0.548626
O16   O     O_R   0.560100 0.442800 0.382710 -0.548481
O17   O     O_R   0.560070 0.617290 0.677370 -0.545804
O18   O     O_R   0.439930 0.322630 0.382710 -0.558709
O19   O     O_R   0.439900 0.617290 0.557220 -0.548561
O20   O     O_R   0.560080 0.446200 0.675360 -0.540599
O21   O     O_R   0.729180 0.613880 0.553780 -0.539655
O22   O     O_R   0.270820 0.324620 0.384720 -0.546306
O23   O     O_3   0.500090 0.000040 0.000040 -0.434126
O24   O     O_R   0.440010 0.053840 0.824690 -0.551508
O25   O     O_R   0.560180 0.884750 0.113900 -0.540219
O26   O     O_R   0.729260 0.175430 0.115330 -0.537536
Zn1   Zn    Zn3+2 0.414150 0.543930 0.458110 0.923230
Zn2   Zn    Zn3+2 0.585850 0.541910 0.456060 0.921114
Zn3   Zn    Zn3+2 0.414160 0.370220 0.456060 0.905375
Zn4   Zn    Zn3+2 0.585840 0.543930 0.629770 0.932619
Zn5   Zn    Zn3+2 0.585940 0.956110 0.041940 0.926729
Zn6   Zn    Zn3+2 0.585930 0.129820 0.043980 0.931586
Zn7   Zn    Zn3+2 0.414240 0.958130 0.043980 0.918845
Zn8   Zn    Zn3+2 0.414250 0.956110 0.870280 0.906637

loop_
_geom_bond_atom_site_label_1
_geom_bond_atom_site_label_2
_ccdc_geom_bond_type
C16   C21   S    
C30   O18   A    
C29   O5    A    
C28   O15   A    
C33   C45   S    
C28   O20   A    
C3    C6    S    
C16   O14   A    
C49   H49   S    
C37   H13   S    
C53   C54   S    
O1    Zn4   S    
C51   H44   S    
C12   C23   S    
O19   Zn1   S    
C5    H12   S    
C48   H36   S    
O22   Zn3   S    
C36   C37   S    
C25   O8    A    
C18   C19   D    
C24   O25   A    
C4    O22   A    
O9    Zn8   S    
C27   O6    A    
O23   Zn7   S    
C15   H62   S    
C54   H52   S    
C34   C35   S    
C14   H32   S    
C58   H7    S    
O21   Zn2   S    
O7    Zn5   S    
C46   C47   S    
C5    C22   S    
C56   C58   S    
C8    C9    D    
C48   H33   S    
C1    C11   S    
C33   H8    S    
C50   H47   S    
C47   H38   S    
O1    Zn1   S    
C25   O26   A    
C8    H34   S    
C14   C27   S    
C31   O17   A    
C32   C55   S    
C18   C20   S    
C10   H56   S    
C44   H25   S    
O23   Zn5   S    
C46   H40   S    
C38   H11   S    
C13   C14   D    
C22   O10   A    
C17   C30   S    
O12   Zn1   S    
C25   C57   S    
C13   C42   S    
C53   H55   S    
C9    C26   S    
C49   H50   S    
C52   H58   S    
O18   Zn3   S    
O1    Zn2   S    
C48   H35   S    
O11   Zn7   S    
C17   C46   S    
C36   H15   S    
C39   C40   S    
C21   H42   S    
C27   O3    A    
C2    H1    S    
O23   Zn8   S    
C3    C5    D    
C51   H46   S    
O15   Zn3   S    
C7    C28   S    
C54   H51   S    
C2    C4    S    
C43   C44   S    
C37   C38   S    
C41   H17   S    
C12   H4    S    
O8    Zn5   S    
C47   C48   S    
C9    H45   S    
C23   C34   S    
C50   C51   S    
C40   H21   S    
C34   C45   S    
O25   Zn5   S    
C52   C53   S    
C38   H9    S    
C12   C35   S    
O16   Zn2   S    
C26   O9    A    
C36   H16   S    
O13   Zn1   S    
C53   H54   S    
C18   H2    S    
C40   C41   S    
C7    H23   S    
C46   H39   S    
C38   H10   S    
C30   O16   A    
C29   O7    A    
O10   Zn6   S    
O2    Zn7   S    
O26   Zn6   S    
O17   Zn4   S    
C42   H30   S    
C56   C57   D    
C32   H61   S    
C31   O19   A    
C44   H27   S    
O20   Zn4   S    
O5    Zn8   S    
C57   H59   S    
C52   H57   S    
C15   C17   D    
O4    Zn4   S    
O3    Zn6   S    
O23   Zn6   S    
C34   C49   S    
C43   H28   S    
C39   H24   S    
C44   H26   S    
C2    C58   D    
C23   C55   S    
C6    C7    D    
C51   H43   S    
O14   Zn2   S    
C29   C35   S    
C45   H6    S    
C42   H31   S    
C43   H29   S    
C39   H22   S    
C13   C15   S    
C19   C24   S    
C1    O4    A    
C32   C33   S    
C41   H18   S    
C41   H19   S    
C24   O11   A    
C20   H41   S    
C3    C36   S    
C19   H3    S    
C23   H5    S    
C33   C35   S    
O1    Zn3   S    
C54   H53   S    
C40   H20   S    
O24   Zn8   S    
C16   O12   A    
C1    O21   A    
C10   C11   D    
O6    Zn7   S    
C20   C21   D    
C45   C55   S    
C8    C10   S    
C49   C50   S    
C42   C43   S    
C37   H14   S    
C22   O24   A    
C50   H48   S    
C47   H37   S    
C6    C39   S    
C26   O2    A    
C31   C55   S    
C11   H60   S    
C12   C32   S    
C52   C56   S    
C4    O13   A    
