data_mof_unit_60926.cif
_audit_creation_date              2013-03-05T16:46:00-0500
_audit_creation_method            fapswitch 2.2
_symmetry_space_group_name_H-M    P1
_symmetry_Int_Tables_number       1
_space_group_crystal_system       triclinic
_cell_length_a                    15.78351
_cell_length_b                    17.025601
_cell_length_c                    17.345096
_cell_angle_alpha                 90.125653
_cell_angle_beta                  96.86725
_cell_angle_gamma                 83.500531
_cell_volume                      4597.55420543

loop_
_atom_site_label
_atom_site_type_symbol
_atom_site_description
_atom_site_fract_x
_atom_site_fract_y
_atom_site_fract_z
_atom_type_partial_charge
O1    O     O_R   0.579730 0.382480 0.503570 -0.527154
O2    O     O_R   0.420270 0.617520 0.496430 -0.527158
O3    O     O_R   0.436070 0.388960 0.497130 -0.603516
O4    O     O_R   0.563930 0.611040 0.502870 -0.603514
C1    C     C_R   0.510836 0.347937 0.502157 0.895033
C2    C     C_R   0.489164 0.652063 0.497844 0.895095
O5    O     O_R   0.580160 0.496380 0.617190 -0.600167
O6    O     O_R   0.419840 0.503620 0.382810 -0.600183
O7    O     O_R   0.436500 0.502850 0.610750 -0.556215
O8    O     O_R   0.563500 0.497150 0.389250 -0.556197
C3    C     C_R   0.511071 0.501899 0.650344 0.844211
C4    C     C_R   0.488929 0.498096 0.349656 0.844150
Cu1   Cu    Cu3+1 0.585060 0.496170 0.503810 1.033407
Cu2   Cu    Cu3+1 0.414940 0.503830 0.496190 1.033380
C5    C     C_R   0.517837 0.506298 0.734749 -0.148851
C6    C     C_R   0.482166 0.493675 0.265251 -0.148875
C7    C     C_R   0.455352 0.552683 0.772362 0.310424
C8    C     C_R   0.544679 0.447315 0.227649 0.310435
C9    C     C_R   0.461342 0.549857 0.853234 -0.175152
C10   C     C_R   0.538679 0.450108 0.146776 -0.175129
C11   C     C_R   0.529109 0.502772 0.896647 0.102852
C12   C     C_R   0.470881 0.497143 0.103348 0.102876
C13   C     C_R   0.593161 0.460674 0.859116 -0.112058
C14   C     C_R   0.406806 0.539218 0.140869 -0.112088
C15   C     C_R   0.587380 0.462068 0.778616 -0.206407
C16   C     C_R   0.412591 0.537851 0.221371 -0.206380
C17   C     C_2   0.535066 0.497351 0.981433 -0.170383
C18   C     C_2   0.464926 0.502550 0.018561 -0.170376
H1    H     H_    0.363736 0.572957 0.249525 0.186389
H2    H     H_    0.636214 0.426943 0.750451 0.186381
H3    H     H_    0.401217 0.513186 0.986466 0.166152
H4    H     H_    0.598776 0.486716 0.013523 0.166157
H5    H     H_    0.646476 0.425015 0.892078 0.166618
H6    H     H_    0.353468 0.574839 0.107898 0.166607
H7    H     H_    0.585533 0.413320 0.117937 0.176939
H8    H     H_    0.414511 0.586660 0.882088 0.176967
C19   C     C_R   0.516876 0.260816 0.509320 -0.243146
C20   C     C_R   0.483124 0.739184 0.490685 -0.243128
C21   C     C_R   0.440484 0.225842 0.509326 -0.309079
C22   C     C_R   0.559514 0.774159 0.490674 -0.309070
C23   C     C_R   0.441695 0.144530 0.520146 0.290167
C24   C     C_R   0.558303 0.855472 0.479856 0.290170
C25   C     C_R   0.521031 0.095965 0.526729 0.166001
C26   C     C_R   0.478966 0.904035 0.473278 0.165999
C27   C     C_R   0.598051 0.130479 0.531376 0.189273
C28   C     C_R   0.401948 0.869522 0.468637 0.189273
C29   C     C_R   0.596604 0.212519 0.522047 0.250131
C30   C     C_R   0.403395 0.787481 0.477967 0.250134
N1    N     N_2   0.524944 0.012443 0.526729 -0.121048
N2    N     N_2   0.475053 0.987558 0.473279 -0.121052
H9    H     H_    0.620852 0.737730 0.496301 0.224536
H10   H     H_    0.379147 0.262270 0.503693 0.224538
N3    N     N_R   0.287170 0.509590 0.490460 -0.204770
N4    N     N_R   0.712830 0.490410 0.509540 -0.204775
C31   C     C_R   0.251307 0.465113 0.540183 0.072362
C32   C     C_R   0.748691 0.534880 0.459809 0.072407
C33   C     C_R   0.161790 0.467955 0.537426 -0.261472
C34   C     C_R   0.838207 0.532034 0.462558 -0.261429
C35   C     C_R   0.106980 0.517464 0.482816 0.278894
C36   C     C_R   0.893019 0.482526 0.517168 0.278872
C37   C     C_R   0.145765 0.563685 0.431806 0.212426
C38   C     C_R   0.854235 0.436313 0.568183 0.212467
C39   C     C_R   0.236420 0.557743 0.436947 0.050918
C40   C     C_R   0.763582 0.442261 0.563055 0.050944
N5    N     N_2   0.014666 0.520965 0.476262 -0.151254
N6    N     N_2   0.985333 0.479022 0.523723 -0.151304
H11   H     H_    0.707662 0.573205 0.417778 0.154292
H12   H     H_    0.292334 0.426785 0.582213 0.154284
H13   H     H_    0.863910 0.568763 0.422271 0.219949
H14   H     H_    0.136086 0.431221 0.577708 0.219922
H15   H     H_    0.266860 0.592318 0.398330 0.189178
H16   H     H_    0.733148 0.407687 0.601678 0.189163
N7    N     N_R   0.388304 0.605380 0.730006 0.139993
O9    O     O_R   0.312806 0.617034 0.753824 -0.300679
O10   O     O_R   0.406098 0.650950 0.675426 -0.303411
N8    N     N_R   0.611775 0.394681 0.270020 0.139976
O11   O     O_R   0.687294 0.383128 0.246232 -0.300722
O12   O     O_R   0.594022 0.349067 0.324583 -0.303339
N9    N     N_R   0.094943 0.616372 0.374651 0.160139
O13   O     O_R   0.016124 0.643505 0.382835 -0.276587
O14   O     O_R   0.129233 0.641881 0.316237 -0.294469
N10   N     N_R   0.905064 0.383626 0.625332 0.160126
O15   O     O_R   0.983822 0.356373 0.617055 -0.276494
O16   O     O_R   0.870821 0.358219 0.683819 -0.294534
N11   N     N_R   0.637053 0.887428 0.470896 0.170054
O17   O     O_R   0.638094 0.941582 0.418287 -0.266361
O18   O     O_R   0.709656 0.854440 0.506342 -0.275501
N12   N     N_R   0.362944 0.112575 0.529104 0.170052
O19   O     O_R   0.361899 0.058426 0.581718 -0.266354
O20   O     O_R   0.290343 0.145560 0.493652 -0.275501
Br1   Br    Br    0.706312 0.064849 0.548597 -0.166952
Br2   Br    Br    0.293685 0.935151 0.451424 -0.166941
N13   N     N_R   0.676333 0.245780 0.526041 0.155967
O21   O     O_R   0.724542 0.247613 0.592165 -0.299185
O22   O     O_R   0.706102 0.263945 0.462437 -0.232571
N14   N     N_R   0.323667 0.754221 0.473984 0.155966
O23   O     O_R   0.275443 0.752395 0.407866 -0.299136
O24   O     O_R   0.293914 0.736047 0.537593 -0.232574

loop_
_geom_bond_atom_site_label_1
_geom_bond_atom_site_label_2
_geom_bond_distance
_ccdc_geom_bond_type
N13   O21   1.300741 A    
C1    C19   1.480077 S    
N7    O10   1.301233 A    
N7    O9    1.301478 A    
C40   H16   1.081081 S    
C31   H12   1.081739 S    
C21   C23   1.395136 A    
N11   O17   1.301444 A    
O5    C3    1.286531 A    
O1    C1    1.291216 A    
N8    O12   1.301240 A    
C9    C11   1.403443 A    
C14   C16   1.388426 A    
C9    H8    1.082433 S    
C33   C35   1.413718 A    
C28   Br2   1.924766 S    
C34   C36   1.413714 A    
C36   C38   1.420690 A    
C27   C29   1.403788 A    
O4    Cu1   1.946164 S    
C37   C39   1.415021 A    
C38   C40   1.415000 A    
C10   H7    1.082414 S    
C3    C5    1.457492 S    
C4    C6    1.457515 S    
C13   H5    1.083695 S    
N14   O24   1.300716 A    
O6    Cu2   1.977305 S    
C2    C20   1.480080 S    
C33   H14   1.082154 S    
C19   C29   1.417233 A    
C20   C30   1.417234 A    
N11   O18   1.301508 A    
C21   H10   1.083137 S    
C38   N10   1.442797 S    
C36   N6    1.442294 S    
N13   O22   1.300714 A    
C12   C18   1.464819 S    
Cu1   Cu2   2.660850 S    
C7    N7    1.437579 S    
C23   C25   1.412986 A    
O2    C2    1.291218 A    
C24   C26   1.412987 A    
C27   Br1   1.924766 S    
C26   C28   1.402721 A    
N4    C32   1.361730 A    
N3    C31   1.361724 A    
C6    C16   1.402319 A    
C28   C30   1.403787 A    
C35   C37   1.420726 A    
N8    O11   1.301485 A    
O4    C2    1.295005 A    
N9    O14   1.301678 A    
C25   N1    1.416358 S    
N10   O15   1.301141 A    
C14   H6    1.083697 S    
O7    Cu2   1.975254 S    
C25   C27   1.402721 A    
O6    C4    1.286538 A    
N14   O23   1.300742 A    
C29   N13   1.431555 S    
C24   N11   1.436929 S    
O7    C3    1.288276 A    
C39   H15   1.081078 S    
O3    Cu2   1.946164 S    
O8    C4    1.288282 A    
N12   O20   1.301509 A    
N5    N6    1.253208 D    
N10   O16   1.301666 A    
C11   C13   1.396720 A    
C12   C14   1.396717 A    
O1    Cu1   1.946934 S    
C22   H9    1.083138 S    
Cu1   N4    1.998437 S    
C26   N2    1.416357 S    
C15   H2    1.083877 S    
C5    C7    1.413241 A    
C23   N12   1.436928 S    
C8    N8    1.437571 S    
C30   N14   1.431555 S    
C17   H4    1.085886 S    
C18   H3    1.085895 S    
C10   C12   1.403452 A    
O3    C1    1.295006 A    
O8    Cu1   1.975254 S    
C34   H13   1.082155 S    
C32   H11   1.081737 S    
C31   C33   1.403298 A    
C19   C21   1.403894 A    
C35   N5    1.442295 S    
C20   C22   1.403893 A    
N3    C39   1.360938 A    
N4    C40   1.360940 A    
C37   N9    1.442833 S    
C22   C24   1.395138 A    
C7    C9    1.395163 A    
C32   C34   1.403303 A    
C8    C10   1.395155 A    
C13   C15   1.388415 A    
C11   C17   1.464794 S    
O2    Cu2   1.946930 S    
C5    C15   1.402307 A    
N9    O13   1.301162 A    
O5    Cu1   1.977305 S    
Cu2   N3    1.998437 S    
N12   O19   1.301444 A    
C16   H1    1.083864 S    
C6    C8    1.413233 A    
N1    N2    1.248339 D    
C17   C18   1.340218 D    
