data_mof_unit_23169.cif
_audit_creation_date              2012-12-10T21:26:06-0500
_audit_creation_method            fapswitch 2.2
_symmetry_space_group_name_H-M    P1
_symmetry_Int_Tables_number       1
_space_group_crystal_system       triclinic
_cell_length_a                    8.575901
_cell_length_b                    16.183388
_cell_length_c                    16.753436
_cell_angle_alpha                 85.147343
_cell_angle_beta                  92.263666
_cell_angle_gamma                 100.426667
_cell_volume                      2277.87570563

loop_
_atom_site_label
_atom_site_type_symbol
_atom_type_description
_atom_site_fract_x
_atom_site_fract_y
_atom_site_fract_z
_atom_type_partial_charge
C1    C     C_R   0.501560 0.487350 0.653077 0.868978
C2    C     C_R   0.398036 0.156607 0.419514 0.320344
C3    C     C_R   0.629619 0.763356 0.556988 -0.220739
C4    C     C_R   0.411972 0.244227 0.424916 -0.208990
C5    C     C_R   0.799824 0.521087 0.501572 0.885993
C6    C     C_R   0.200250 0.479135 0.496920 0.855824
C7    C     C_2   0.963647 0.528577 0.513382 0.149970
C8    C     C_2   0.036562 0.472319 0.481870 0.157004
C9    C     C_R   0.522992 0.478383 0.739370 -0.131123
C10   C     C_R   0.510463 0.525742 0.261154 -0.124214
C11   C     C_R   0.615059 0.545936 0.776241 -0.325972
C12   C     C_R   0.502048 0.513067 0.347200 0.876820
C13   C     C_R   0.417550 0.466331 0.215535 -0.336040
C14   C     C_R   0.634127 0.542419 0.858514 -0.169110
C15   C     C_R   0.432822 0.472624 0.133577 -0.145483
C16   C     C_R   0.560649 0.470866 0.905131 0.269478
C17   C     C_R   0.545443 0.537170 0.096715 0.277814
C18   C     C_R   0.478501 0.401183 0.868470 -0.312256
C19   C     C_R   0.632969 0.598998 0.141706 -0.327183
C20   C     C_R   0.454013 0.404774 0.785143 0.467516
C21   C     C_R   0.615213 0.594625 0.224868 0.453468
C22   C     C_3   0.034558 0.560444 0.641257 0.076703
C23   C     C_R   0.420232 0.757927 0.459735 0.206235
C24   C     C_3   0.139202 0.624514 0.691306 -0.285847
C25   C     C_3   0.146315 0.591579 0.779230 -0.975601
C26   C     C_3   0.011010 0.419288 0.356873 0.072397
C27   C     C_3   0.926325 0.481462 0.305551 -0.337818
C28   C     C_3   0.989054 0.496340 0.220616 -0.948018
C29   C     C_3   0.213639 0.311835 0.778639 0.093463
C30   C     C_3   0.197326 0.224369 0.824084 -0.364179
C31   C     C_3   0.185296 0.154231 0.767631 -0.829822
C32   C     C_3   0.723627 0.733456 0.248906 0.081207
C33   C     C_3   0.895232 0.774370 0.231965 -0.324866
C34   C     C_R   0.545013 0.235540 0.551655 0.206546
C35   C     C_3   0.910172 0.868339 0.207719 -0.991500
C36   C     C_3   0.759859 0.320335 0.627107 -0.687354
C37   C     C_3   0.289492 0.689898 0.342696 -0.705684
C38   C     C_3   0.766838 0.115289 0.620562 0.121757
C39   C     C_3   0.865064 0.132014 0.543508 -0.386504
C40   C     C_3   0.042104 0.154361 0.563203 -0.939818
C41   C     C_3   0.459432 0.895244 0.318915 0.070158
C42   C     C_3   0.453271 0.979514 0.271751 -0.246630
C43   C     C_3   0.526647 0.984231 0.189606 -1.025147
C44   C     C_3   0.713696 0.867363 0.692563 0.078046
C45   C     C_R   0.441689 0.847022 0.451078 0.259325
C46   C     C_3   0.556552 0.886683 0.720816 -0.345842
C47   C     C_3   0.531995 0.858500 0.809347 -0.973560
C48   C     C_3   0.173250 0.128681 0.337125 0.062745
C49   C     C_3   0.062552 0.048113 0.367703 -0.301273
C50   C     C_3   0.889907 0.052690 0.345193 -1.009306
C51   C     C_R   0.543915 0.147962 0.546450 0.273332
C52   C     C_R   0.544987 0.894437 0.505220 0.078184
C53   C     C_R   0.469502 0.107912 0.479142 0.100777
C54   C     C_R   0.637667 0.851173 0.559762 0.353909
H1    H     H_    0.334555 0.414457 0.243552 0.163214
H2    H     H_    0.910421 0.550963 0.662216 0.119774
H3    H     H_    0.261340 0.638194 0.667752 0.248016
H4    H     H_    0.091325 0.684200 0.686531 0.212256
H5    H     H_    0.222513 0.639690 0.813905 0.271442
H6    H     H_    0.197745 0.533010 0.785435 0.262831
H7    H     H_    0.025603 0.578324 0.804416 0.265287
H8    H     H_    0.982281 0.357046 0.331267 0.161254
H9    H     H_    0.141908 0.439048 0.352973 0.114492
H10   H     H_    0.797289 0.455737 0.302994 0.244468
H11   H     H_    0.944207 0.542820 0.332811 0.227566
H12   H     H_    0.671165 0.602170 0.741340 0.173421
H13   H     H_    0.116898 0.524900 0.221817 0.260687
H14   H     H_    0.923910 0.540340 0.184496 0.282377
H15   H     H_    0.972546 0.436032 0.191603 0.262469
H16   H     H_    0.126532 0.309181 0.727605 0.150773
H17   H     H_    0.178897 0.357209 0.818317 0.075525
H18   H     H_    0.300364 0.221337 0.865680 0.219216
H19   H     H_    0.088729 0.212933 0.860418 0.174098
H20   H     H_    0.070024 0.147759 0.734326 0.234034
H21   H     H_    0.190818 0.093541 0.802919 0.239710
H22   H     H_    0.284058 0.167602 0.724828 0.290047
H23   H     H_    0.359655 0.425891 0.099078 0.154441
H24   H     H_    0.684126 0.763461 0.299876 0.149140
H25   H     H_    0.644613 0.746573 0.196602 0.115291
H26   H     H_    0.968776 0.765981 0.287070 0.235282
H27   H     H_    0.940540 0.743121 0.183389 0.214921
H28   H     H_    0.840566 0.878650 0.151590 0.266786
H29   H     H_    0.036611 0.896301 0.197565 0.270373
H30   H     H_    0.866598 0.900359 0.256115 0.270886
H31   H     H_    0.566400 0.236224 0.675652 0.245510
H32   H     H_    0.825993 0.297243 0.680079 0.165631
H33   H     H_    0.759305 0.387114 0.636238 0.232879
H34   H     H_    0.702249 0.596388 0.885694 0.156970
H35   H     H_    0.825353 0.315946 0.572179 0.259516
H36   H     H_    0.178461 0.728460 0.437465 0.248757
H37   H     H_    0.216355 0.727076 0.303320 0.199199
H38   H     H_    0.239548 0.622263 0.337999 0.232571
H39   H     H_    0.412408 0.703153 0.320835 0.224725
H40   H     H_    0.800239 0.058811 0.654266 0.188962
H41   H     H_    0.802109 0.165533 0.661267 0.133158
H42   H     H_    0.843407 0.074583 0.510202 0.258122
H43   H     H_    0.832180 0.185162 0.504116 0.216170
H44   H     H_    0.067309 0.211414 0.597339 0.273745
H45   H     H_    0.426302 0.346176 0.905763 0.139474
H46   H     H_    0.108955 0.168434 0.507027 0.264189
H47   H     H_    0.083682 0.100785 0.598261 0.270977
H48   H     H_    0.409586 0.844697 0.279820 0.148736
H49   H     H_    0.586928 0.891471 0.331766 0.102794
H50   H     H_    0.328004 0.988147 0.263178 0.246290
H51   H     H_    0.520332 0.030969 0.305837 0.264578
H52   H     H_    0.652484 0.976445 0.196104 0.270250
H53   H     H_    0.521594 0.046625 0.157509 0.278097
H54   H     H_    0.460319 0.934357 0.153321 0.265479
H55   H     H_    0.811747 0.900687 0.729602 0.158224
H56   H     H_    0.720842 0.647498 0.112551 0.146464
H57   H     H_    0.718099 0.799169 0.704109 0.122867
H58   H     H_    0.556932 0.955460 0.711443 0.261425
H59   H     H_    0.455326 0.853352 0.685682 0.213907
H60   H     H_    0.528058 0.789432 0.819790 0.267574
H61   H     H_    0.417902 0.873234 0.827995 0.268958
H62   H     H_    0.629598 0.892020 0.846500 0.263443
H63   H     H_    0.154535 0.138546 0.271260 0.163765
H64   H     H_    0.139841 0.183875 0.363222 0.117744
H65   H     H_    0.094935 0.992929 0.341449 0.246975
H66   H     H_    0.076071 0.038678 0.433869 0.237165
H67   H     H_    0.709826 0.730572 0.593299 0.171244
H68   H     H_    0.855958 0.109628 0.367187 0.270427
H69   H     H_    0.811653 0.996021 0.372488 0.269988
H70   H     H_    0.872151 0.055138 0.279100 0.270496
H71   H     H_    0.366348 0.282514 0.376662 0.169002
H72   H     H_    0.078898 0.499512 0.650498 0.109580
N1    N     N_2   0.552571 0.469351 0.988881 -0.187994
N2    N     N_2   0.572234 0.540749 0.014200 -0.190179
N3    N     N_R   0.519180 0.718290 0.509780 -0.134598
N4    N     N_R   0.480820 0.281710 0.490220 -0.119337
N5    N     N_2   0.559091 0.984127 0.508709 -0.080456
N6    N     N_2   0.455188 0.018637 0.471522 -0.063413
N7    N     N_2   0.598370 0.273667 0.623902 -0.229990
N8    N     N_2   0.282955 0.709607 0.424987 -0.223903
O1    O     O_R   0.493140 0.422050 0.612640 -0.554064
O2    O     O_3   0.956451 0.408526 0.436548 -0.639490
O3    O     O_3   0.368016 0.336958 0.747444 -0.613007
O4    O     O_3   0.717585 0.646980 0.273064 -0.646036
O5    O     O_3   0.598837 0.098751 0.609648 -0.642115
O6    O     O_3   0.366317 0.886985 0.388481 -0.610375
O7    O     O_3   0.742867 0.897273 0.611513 -0.629282
O8    O     O_3   0.333386 0.119466 0.351284 -0.644890
O9    O     O_R   0.506860 0.577950 0.387360 -0.580099
O10   O     O_R   0.505450 0.562230 0.618920 -0.634647
O11   O     O_R   0.494550 0.437770 0.381080 -0.631017
O12   O     O_R   0.723530 0.446300 0.497600 -0.585119
O13   O     O_R   0.276470 0.553700 0.502400 -0.560958
O14   O     O_R   0.735850 0.586490 0.503880 -0.592196
O15   O     O_R   0.264150 0.413510 0.496120 -0.610536
O16   O     O_3   0.041164 0.591562 0.559814 -0.630728
Zn1   Zn    Zn3+2 0.491780 0.406400 0.495810 0.976755
Zn2   Zn    Zn3+2 0.508220 0.593600 0.504190 0.973454

loop_
_geom_bond_atom_site_label_1
_geom_bond_atom_site_label_2
_ccdc_geom_bond_type
C36   H35   S    
C12   O11   A    
C47   H60   S    
C22   O16   S    
C23   C45   A    
C46   H58   S    
C8    O2    S    
C41   C42   S    
C28   H15   S    
C50   H68   S    
C36   N7    S    
C7    C8    D    
C15   H23   S    
C47   H61   S    
C26   C27   S    
C4    H71   S    
C22   C24   S    
C28   H14   S    
O15   Zn1   S    
C40   H44   S    
C30   C31   S    
H36   N8    S    
C3    C54   A    
C39   H43   S    
C49   H66   S    
C41   H48   S    
C23   N3    A    
C41   O6    S    
C33   C35   S    
C40   H47   S    
C6    O15   A    
C44   C46   S    
C44   O7    S    
C38   H41   S    
C38   O5    S    
C37   H38   S    
C25   H6    S    
C46   H59   S    
C11   H12   S    
C44   H55   S    
C10   C21   A    
C5    O14   A    
C21   O4    S    
C42   H51   S    
C35   H28   S    
C52   C54   A    
C36   H33   S    
C47   H62   S    
C37   H37   S    
C48   O8    S    
C28   H13   S    
C1    C9    S    
C24   C25   S    
N3    Zn2   S    
C39   C40   S    
C5    C7    S    
C30   H19   S    
C35   H29   S    
C24   H3    S    
C31   H20   S    
C4    N4    A    
C45   C52   A    
C36   H32   S    
C43   H53   S    
C10   C13   A    
C45   O6    S    
C41   H49   S    
C48   H64   S    
C51   C53   A    
C43   H52   S    
C38   C39   S    
C20   O3    S    
C2    C4    A    
C26   H9    S    
C32   O4    S    
C29   C30   S    
C27   H11   S    
C7    O16   S    
C9    C20   A    
C31   H21   S    
C38   H40   S    
C34   C51   A    
C37   H39   S    
C17   N2    S    
C53   N6    S    
C25   H7    S    
C9    C11   A    
O11   Zn1   S    
C10   C12   S    
C16   C18   A    
O9    Zn2   S    
C13   C15   A    
C2    O8    S    
C14   C16   A    
C42   C43   S    
C17   C19   A    
N1    N2    D    
C26   O2    S    
N4    Zn1   S    
C29   H16   S    
C19   H56   S    
C15   C17   A    
C46   C47   S    
C48   C49   S    
C5    O12   A    
C23   N8    S    
C19   C21   A    
C3    N3    A    
C52   N5    S    
C50   H70   S    
C50   H69   S    
O14   Zn2   S    
C30   H18   S    
C2    C53   A    
C42   H50   S    
C40   H46   S    
C6    C8    S    
C35   H30   S    
C33   H26   S    
C48   H63   S    
C29   O3    S    
C34   N7    S    
C12   O9    A    
C22   H2    S    
C32   C33   S    
O13   Zn2   S    
C26   H8    S    
C14   H34   S    
O10   Zn2   S    
C1    O10   A    
C32   H25   S    
C6    O13   A    
C31   H22   S    
C49   H65   S    
O1    Zn1   S    
C11   C14   A    
C18   C20   A    
C43   H54   S    
C16   N1    S    
C39   H42   S    
C22   H72   S    
C27   H10   S    
C32   H24   S    
O12   Zn1   S    
C44   H57   S    
C3    H67   S    
C54   O7    S    
C34   N4    A    
C24   H4    S    
C49   C50   S    
C18   H45   S    
C27   C28   S    
C37   N8    S    
C25   H5    S    
C13   H1    S    
C1    O1    A    
C33   H27   S    
N5    N6    D    
H31   N7    S    
C29   H17   S    
C51   O5    S    
