data_mof_unit_14036.cif
_audit_creation_date              2012-12-11T17:04:53-0500
_audit_creation_method            fapswitch 2.2
_symmetry_space_group_name_H-M    P1
_symmetry_Int_Tables_number       1
_space_group_crystal_system       triclinic
_cell_length_a                    17.421606
_cell_length_b                    24.312272
_cell_length_c                    14.97919
_cell_angle_alpha                 89.999156
_cell_angle_beta                  125.382726
_cell_angle_gamma                 89.585853
_cell_volume                      5172.53785731

loop_
_atom_site_label
_atom_site_type_symbol
_atom_type_description
_atom_site_fract_x
_atom_site_fract_y
_atom_site_fract_z
_atom_type_partial_charge
C1    C     C_R   0.811490 0.627863 0.908328 -0.144449
C2    C     C_R   0.029281 0.500722 0.702810 0.068558
C3    C     C_R   0.770284 0.045656 0.272441 -0.131601
C4    C     C_R   0.852169 0.348833 0.912489 -0.139753
C5    C     C_R   0.150255 0.349066 0.089874 -0.129850
C6    C     C_R   0.349318 0.849707 0.911800 -0.133455
C7    C     C_R   0.647999 0.848442 0.089552 -0.136858
C8    C     C_R   0.903138 0.628046 0.091305 -0.134276
C9    C     C_R   0.096718 0.632481 0.913028 -0.112236
C10   C     C_R   0.401319 0.126382 0.090571 -0.133937
C11   C     C_R   0.592264 0.136033 0.912054 -0.111689
C12   C     C_R   0.814009 0.642286 0.999337 0.112990
C13   C     C_R   0.565609 0.001275 0.366650 0.077665
C14   C     C_R   0.186223 0.643679 0.006463 0.112127
C15   C     C_R   0.310761 0.138211 0.998291 0.111185
C16   C     C_R   0.678735 0.151246 0.005343 0.110231
C17   C     C_3   0.269790 0.599466 0.854171 0.193405
C18   C     C_3   0.317069 0.601883 0.794288 -0.297037
C19   C     C_3   0.362367 0.546807 0.800160 -1.020796
C20   C     C_3   0.771561 0.599228 0.182933 0.167248
C21   C     C_3   0.739694 0.593372 0.258466 -0.280459
C22   C     C_3   0.717947 0.533677 0.266804 -1.019886
C23   C     C_3   0.764542 0.102351 0.854918 0.192836
C24   C     C_R   0.531280 0.000686 0.704975 0.067011
C25   C     C_3   0.811382 0.104724 0.794510 -0.300571
C26   C     C_3   0.856260 0.049588 0.799815 -1.014321
C27   C     C_3   0.267495 0.096230 0.178568 0.168358
C28   C     C_3   0.240914 0.087442 0.258510 -0.278768
C29   C     C_3   0.220242 0.027124 0.263930 -1.022824
C30   C     C_R   0.675534 0.500166 0.689959 0.040984
C31   C     C_R   0.306350 0.498343 0.358040 0.040903
C32   C     C_R   0.191463 0.998949 0.644113 0.041783
C33   C     C_R   0.825077 0.999371 0.300946 0.037212
C34   C     C_3   0.502779 0.473607 0.620907 -0.147451
C35   C     C_3   0.460918 0.445854 0.508931 -0.165330
C36   C     C_3   0.038597 0.946065 0.497399 -0.164922
C37   C     C_R   0.189824 0.625760 0.095546 -0.154424
C38   C     C_3   0.000727 0.968353 0.382041 -0.150870
C39   C     C_3   0.439370 0.525091 0.563494 -0.154484
C40   C     C_3   0.536489 0.472194 0.500280 -0.149373
C41   C     C_3   0.960301 0.976640 0.495972 -0.143688
C42   C     C_3   0.063368 0.020089 0.432887 -0.149441
C43   C     C_3   0.400120 0.497336 0.453831 0.186873
C44   C     C_3   0.576522 0.499871 0.610134 0.186798
C45   C     C_3   0.924074 0.998862 0.382580 0.185447
C46   C     C_3   0.098627 0.997820 0.545969 0.186009
C47   C     C_3   0.474670 0.523562 0.444380 -0.143595
C48   C     C_R   0.308112 0.123064 0.907353 -0.148657
C49   C     C_3   0.515575 0.551349 0.555310 -0.168234
C50   C     C_3   0.984279 0.050596 0.430845 -0.167510
C51   C     C_3   0.021279 0.028238 0.545264 -0.149386
C52   C     C_R   0.877823 0.245693 0.113596 0.145722
C53   C     C_R   0.113083 0.236184 0.894870 0.156755
C54   C     C_R   0.376161 0.744426 0.112003 0.145821
C55   C     C_R   0.609306 0.735429 0.894805 0.157265
C56   C     C_R   0.863011 0.262743 0.015660 -0.023778
C57   C     C_R   0.138971 0.259433 0.993829 -0.034902
C58   C     C_R   0.358254 0.763178 0.013455 -0.023383
C59   C     C_R   0.682892 0.133448 0.094606 -0.150120
C60   C     C_R   0.634663 0.758659 0.993579 -0.034797
C61   C     C_R   0.813889 0.228224 0.924108 -0.361080
C62   C     C_R   0.193028 0.227101 0.089337 -0.330798
C63   C     C_R   0.311634 0.728261 0.922127 -0.353324
C64   C     C_R   0.691160 0.727107 0.089734 -0.338569
C65   C     C_R   0.945545 0.350345 0.095263 -0.153667
C66   C     C_R   0.056226 0.349234 0.907539 -0.163037
C67   C     C_R   0.442279 0.850924 0.094836 -0.149330
C68   C     C_R   0.553972 0.848790 0.907455 -0.166630
C69   C     C_R   0.265653 0.681693 0.924051 0.548408
C70   C     C_R   0.883652 0.318750 0.006515 0.120843
C71   C     C_R   0.739948 0.680813 0.090090 0.550464
C72   C     C_R   0.761623 0.184877 0.924292 0.550912
C73   C     C_R   0.237978 0.178964 0.088914 0.548639
C74   C     C_R   0.262023 0.673464 0.014855 -0.151884
C75   C     C_R   0.736248 0.669430 0.994683 -0.163375
C76   C     C_R   0.754915 0.179897 0.013414 -0.144679
C77   C     C_R   0.233526 0.166365 0.993354 -0.167293
C78   C     C_R   0.328047 0.700300 0.112612 0.100106
C79   C     C_R   0.660289 0.691831 0.895286 0.116485
C80   C     C_R   0.823569 0.204920 0.112188 0.100325
C81   C     C_R   0.119850 0.317614 0.997887 0.119534
C82   C     C_R   0.160315 0.190661 0.894498 0.113548
C83   C     C_3   0.318603 0.726003 0.196837 -0.475772
C84   C     C_3   0.652623 0.713864 0.796714 -0.484839
C85   C     C_3   0.816286 0.232929 0.196152 -0.481685
C86   C     C_3   0.156502 0.212202 0.798005 -0.479732
C87   C     C_3   0.875804 0.277924 0.197715 -0.488504
C88   C     C_3   0.104091 0.261601 0.798260 -0.507048
C89   C     C_3   0.371816 0.774453 0.196336 -0.489193
C90   C     C_3   0.596298 0.761121 0.796024 -0.507980
C91   C     C_R   0.083407 0.552345 0.606771 0.183801
C92   C     C_R   0.378680 0.819750 0.005482 0.114912
C93   C     C_R   0.098150 0.552884 0.526249 0.134124
C94   C     C_R   0.583168 0.052354 0.606838 0.178850
C95   C     C_R   0.596520 0.052818 0.525221 0.138703
C96   C     C_R   0.074460 0.502469 0.646438 0.017841
C97   C     C_R   0.101353 0.503254 0.481346 0.041874
C98   C     C_R   0.575839 0.002495 0.647948 0.019029
C99   C     C_R   0.600099 0.003170 0.480748 0.043517
C100  C     C_R   0.104786 0.454030 0.623921 -0.211371
C101  C     C_R   0.118353 0.454406 0.540725 -0.205954
C102  C     C_R   0.605936 0.954099 0.625052 -0.210889
C103  C     C_R   0.616190 0.816817 0.997583 0.125430
C104  C     C_R   0.618094 0.954407 0.540726 -0.206195
C105  C     C_3   0.038253 0.603523 0.474189 -0.508291
C106  C     C_3   0.022134 0.602693 0.562423 -0.508804
C107  C     C_3   0.535117 0.102847 0.472442 -0.507710
C108  C     C_3   0.520533 0.102179 0.561924 -0.511062
C109  C     C_R   0.052017 0.546600 0.303880 -0.175533
C110  C     C_R   0.002258 0.546384 0.733436 -0.144108
C111  C     C_R   0.551491 0.046571 0.303677 -0.176960
C112  C     C_R   0.504521 0.046378 0.735757 -0.146662
C113  C     C_R   0.731191 0.453978 0.732429 -0.146965
C114  C     C_R   0.066567 0.501352 0.367098 0.079271
C115  C     C_R   0.258335 0.453265 0.297945 -0.129500
C116  C     C_R   0.240892 0.953615 0.703816 -0.127814
C117  C     C_R   0.769291 0.953529 0.262633 -0.147635
C118  C     C_R   0.049200 0.455162 0.304331 -0.125514
C119  C     C_R   0.007767 0.454382 0.738344 -0.127896
C120  C     C_R   0.548664 0.955103 0.304047 -0.128095
C121  C     C_R   0.508718 0.954353 0.739376 -0.125709
C122  C     C_R   0.730155 0.546127 0.720992 -0.141897
C123  C     C_R   0.258290 0.545203 0.302482 -0.159312
C124  C     C_R   0.240105 0.045619 0.698241 -0.165885
H1    H     H_    0.754659 0.634147 0.824970 0.108401
H2    H     H_    0.539237 0.594648 0.575618 0.101927
H3    H     H_    0.299585 0.100987 0.341587 0.208375
H4    H     H_    0.177639 0.112781 0.231999 0.191534
H5    H     H_    0.160719 0.012813 0.182002 0.268227
H6    H     H_    0.200920 0.022274 0.322286 0.265905
H7    H     H_    0.283495 0.001283 0.292729 0.273243
H8    H     H_    0.960857 0.093502 0.401834 0.104629
H9    H     H_    0.032046 0.052699 0.614250 0.111650
H10   H     H_    0.808986 0.237355 0.850220 0.152134
H11   H     H_    0.207428 0.241099 0.166174 0.154725
H12   H     H_    0.304519 0.738863 0.847471 0.152022
H13   H     H_    0.705174 0.740815 0.166542 0.155277
H14   H     H_    0.358734 0.703018 0.275788 0.180175
H15   H     H_    0.610337 0.686829 0.724083 0.180182
H16   H     H_    0.853127 0.209666 0.274721 0.178988
H17   H     H_    0.248218 0.627914 0.180423 0.112024
H18   H     H_    0.112462 0.186260 0.724029 0.180590
H19   H     H_    0.244552 0.736424 0.164841 0.199135
H20   H     H_    0.721012 0.727564 0.814638 0.196163
H21   H     H_    0.743418 0.246775 0.163341 0.198496
H22   H     H_    0.226658 0.223229 0.817921 0.197899
H23   H     H_    0.946425 0.280413 0.276975 0.180466
H24   H     H_    0.029780 0.263679 0.725057 0.182868
H25   H     H_    0.442467 0.779111 0.274816 0.180675
H26   H     H_    0.521529 0.760938 0.723710 0.183656
H27   H     H_    0.837018 0.317734 0.166141 0.201741
H28   H     H_    0.248326 0.124160 0.823240 0.112688
H29   H     H_    0.144364 0.300381 0.818106 0.197119
H30   H     H_    0.328461 0.812742 0.164219 0.200967
H31   H     H_    0.632900 0.801100 0.812939 0.196704
H32   H     H_    0.107383 0.415033 0.660363 0.130242
H33   H     H_    0.129241 0.415533 0.514359 0.125432
H34   H     H_    0.609365 0.915163 0.662197 0.130215
H35   H     H_    0.628992 0.915546 0.514335 0.125333
H36   H     H_    0.972275 0.596376 0.391913 0.216374
H37   H     H_    0.054362 0.638335 0.618710 0.225054
H38   H     H_    0.468922 0.094870 0.390746 0.217463
H39   H     H_    0.735749 0.142294 0.178595 0.106023
H40   H     H_    0.552377 0.138228 0.617158 0.224705
H41   H     H_    0.994108 0.336928 0.179258 0.099620
H42   H     H_    0.006951 0.334890 0.824835 0.101396
H43   H     H_    0.489570 0.837216 0.178819 0.099118
H44   H     H_    0.503550 0.834684 0.824858 0.102039
H45   H     H_    0.079914 0.639504 0.479939 0.192667
H46   H     H_    0.947464 0.594436 0.529553 0.191818
H47   H     H_    0.575463 0.139146 0.476488 0.192611
H48   H     H_    0.446415 0.093340 0.530674 0.191865
H49   H     H_    0.075214 0.588086 0.331814 0.108614
H50   H     H_    0.518241 0.453435 0.696231 0.117032
H51   H     H_    0.001321 0.588343 0.712266 0.108716
H52   H     H_    0.574365 0.088091 0.331671 0.109571
H53   H     H_    0.505770 0.088359 0.716490 0.112011
H54   H     H_    0.710226 0.411359 0.716112 0.101926
H55   H     H_    0.273489 0.410440 0.321998 0.087656
H56   H     H_    0.226515 0.910887 0.680030 0.088193
H57   H     H_    0.790941 0.910806 0.279074 0.102859
H58   H     H_    0.065511 0.412894 0.331983 0.083628
H59   H     H_    0.017490 0.411694 0.726950 0.093172
H60   H     H_    0.564804 0.912824 0.331661 0.084719
H61   H     H_    0.436428 0.402702 0.488527 0.109277
H62   H     H_    0.518331 0.911647 0.727904 0.092743
H63   H     H_    0.708055 0.586879 0.686195 0.084976
H64   H     H_    0.273890 0.586895 0.332954 0.093542
H65   H     H_    0.223768 0.087353 0.667079 0.096120
H66   H     H_    0.793386 0.086114 0.306681 0.083413
H67   H     H_    0.812362 0.333743 0.829408 0.090786
H68   H     H_    0.190237 0.334868 0.173828 0.087747
H69   H     H_    0.308938 0.834909 0.828490 0.090068
H70   H     H_    0.686939 0.834047 0.173303 0.087817
H71   H     H_    0.931616 0.634216 0.176403 0.149684
H72   H     H_    0.062308 0.903153 0.525980 0.109396
H73   H     H_    0.068174 0.647738 0.832070 0.127753
H74   H     H_    0.429406 0.133172 0.175423 0.148118
H75   H     H_    0.562276 0.150817 0.830404 0.127251
H76   H     H_    0.395897 0.546367 0.585431 0.113074
H77   H     H_    0.578906 0.450890 0.476814 0.114743
H78   H     H_    0.915631 0.959009 0.519393 0.115142
H79   H     H_    0.108929 0.037732 0.410839 0.111710
H80   H     H_    0.220482 0.564460 0.822960 0.133805
H81   H     H_    0.323952 0.590248 0.942896 0.073634
H82   H     H_    0.264024 0.613058 0.706999 0.210584
H83   H     H_    0.988610 0.944084 0.312246 0.116152
H84   H     H_    0.372020 0.634146 0.831929 0.190704
H85   H     H_    0.416072 0.534892 0.886819 0.267723
H86   H     H_    0.397338 0.550254 0.757707 0.266050
H87   H     H_    0.308014 0.514317 0.759502 0.275758
H88   H     H_    0.832544 0.571249 0.212131 0.127946
H89   H     H_    0.713980 0.585137 0.098908 0.083127
H90   H     H_    0.796027 0.608271 0.341589 0.208736
H91   H     H_    0.675641 0.619089 0.226335 0.191505
H92   H     H_    0.660945 0.518015 0.184731 0.267655
H93   H     H_    0.694493 0.530978 0.321576 0.269289
H94   H     H_    0.460703 0.543949 0.369874 0.113708
H95   H     H_    0.781921 0.507554 0.301427 0.272131
H96   H     H_    0.715295 0.067335 0.823995 0.134168
H97   H     H_    0.818815 0.093163 0.943647 0.074751
H98   H     H_    0.758146 0.116043 0.707363 0.211829
H99   H     H_    0.866566 0.136832 0.832021 0.190830
H100  H     H_    0.910892 0.037868 0.886317 0.266583
H101  H     H_    0.889925 0.052838 0.755818 0.268300
H102  H     H_    0.801934 0.017051 0.760386 0.275128
H103  H     H_    0.327418 0.068491 0.201805 0.128525
H104  H     H_    0.206883 0.083851 0.094798 0.082676
N1    N     N_R   0.892620 0.603790 0.941770 -0.043385
N2    N     N_R   0.973690 0.529110 0.793240 -0.041505
N3    N     N_R   0.526310 0.029110 0.206760 -0.040832
N4    N     N_R   0.473690 0.029110 0.793240 -0.039767
N5    N     N_R   0.818570 0.472310 0.793020 -0.037123
N6    N     N_R   0.181430 0.472310 0.206980 -0.035769
N7    N     N_R   0.318570 0.972310 0.793020 -0.036837
N8    N     N_R   0.681430 0.972310 0.206980 -0.036736
N9    N     N_R   0.026930 0.472300 0.207330 -0.038359
N10   N     N_R   0.973070 0.472300 0.792670 -0.040029
N11   N     N_R   0.526930 0.972300 0.207330 -0.039076
N12   N     N_R   0.107380 0.603790 0.058230 -0.042692
N13   N     N_R   0.473070 0.972300 0.792670 -0.038981
N14   N     N_R   0.817960 0.529130 0.792460 -0.036502
N15   N     N_R   0.182040 0.529130 0.207540 -0.033895
N16   N     N_R   0.317960 0.029130 0.792460 -0.036109
N17   N     N_R   0.682040 0.029130 0.207540 -0.034979
N18   N     N_R   0.894850 0.397640 0.943830 -0.039661
N19   N     N_R   0.105150 0.397640 0.056170 -0.040512
N20   N     N_R   0.394850 0.897640 0.943830 -0.040751
N21   N     N_R   0.605150 0.897640 0.056170 -0.039132
N22   N     N_R   0.950040 0.603780 0.055950 -0.049142
N23   N     N_R   0.392620 0.103790 0.941770 -0.043614
N24   N     N_R   0.049960 0.603780 0.944050 -0.050177
N25   N     N_R   0.450040 0.103780 0.055950 -0.048907
N26   N     N_R   0.549960 0.103780 0.944050 -0.049696
N27   N     N_R   0.607380 0.103790 0.058230 -0.041720
N28   N     N_R   0.952270 0.397640 0.058010 -0.040465
N29   N     N_R   0.047730 0.397640 0.941990 -0.039293
N30   N     N_R   0.452270 0.897640 0.058010 -0.040725
N31   N     N_R   0.547730 0.897640 0.941990 -0.039007
N32   N     N_R   0.026310 0.529110 0.206760 -0.039321
Ni1   Ni    Ni4+2 0.934160 0.565860 0.869070 0.208063
Ni2   Ni    Ni4+2 0.065840 0.565860 0.130930 0.204472
Ni3   Ni    Ni4+2 0.434160 0.065860 0.869070 0.206679
Ni4   Ni    Ni4+2 0.565840 0.065860 0.130930 0.205790
Ni5   Ni    Ni4+2 0.067260 0.435560 0.132230 0.203544
Ni6   Ni    Ni4+2 0.932740 0.435560 0.867770 0.206333
Ni7   Ni    Ni4+2 0.567260 0.935560 0.132230 0.203951
Ni8   Ni    Ni4+2 0.432740 0.935560 0.867770 0.205951
O1    O     O_3   0.216948 0.648331 0.833245 -0.688679
O2    O     O_3   0.801697 0.653882 0.188352 -0.680242
O3    O     O_3   0.711624 0.151145 0.834259 -0.689199
O4    O     O_3   0.297365 0.151241 0.186964 -0.679784

loop_
_geom_bond_atom_site_label_1
_geom_bond_atom_site_label_2
_ccdc_geom_bond_type
C44   C49   S    
C40   C47   S    
C71   C75   A    
N3    Ni4   S    
C33   C117  A    
N4    Ni3   S    
C22   H92   S    
C87   H27   S    
C10   N25   A    
C33   C45   S    
C97   C114  S    
C32   C124  A    
C122  H63   S    
C24   C112  A    
C68   C103  A    
C90   H26   S    
C66   N29   A    
C102  H34   S    
C106  H37   S    
C123  N15   A    
C42   H79   S    
C57   C62   A    
C47   C49   S    
C107  H47   S    
C110  H51   S    
C26   H102  S    
C113  N5    A    
C49   H2    S    
C108  H40   S    
C94   C108  S    
C55   C79   A    
C80   C85   S    
C31   C43   S    
C7    N21   A    
C24   C98   S    
C14   C74   S    
C6    N20   A    
C28   C29   S    
C85   H21   S    
C18   C19   S    
C55   C90   S    
C10   C15   A    
C63   C69   A    
C79   C84   S    
C95   C99   A    
C27   H104  S    
N23   N25   A    
C105  H36   S    
C91   C93   A    
C28   H4    S    
C3    C33   A    
C26   H101  S    
C65   C70   A    
C19   H86   S    
C65   N28   A    
C65   H41   S    
N7    Ni8   S    
C11   N26   A    
C111  N3    A    
N29   Ni6   S    
C8    H71   S    
N9    Ni5   S    
C34   C35   S    
C42   C46   S    
C64   C71   A    
C31   C115  A    
C123  H64   S    
N22   Ni2   S    
C38   C45   S    
N31   Ni8   S    
C110  N2    A    
C93   C105  S    
N5    Ni6   S    
C78   C83   S    
N14   Ni1   S    
C29   H5    S    
C23   H97   S    
C84   H15   S    
N8    Ni7   S    
C107  C108  S    
C21   H91   S    
C62   C73   A    
C36   C46   S    
N15   Ni2   S    
C124  N16   A    
C22   H95   S    
C35   C43   S    
C74   C78   A    
N1    N22   A    
C28   H3    S    
C72   C76   A    
N6    N15   A    
C55   C60   A    
C100  H32   S    
C89   H25   S    
C99   C104  A    
C121  H62   S    
N2    Ni1   S    
C101  H33   S    
C7    C103  A    
C21   C22   S    
C95   C107  S    
C106  H46   S    
C4    H67   S    
C30   C44   S    
C36   C41   S    
C1    C12   A    
C84   C90   S    
C15   C48   A    
N21   N31   A    
N30   Ni7   S    
C86   H22   S    
C4    C70   A    
C124  H65   S    
N19   N29   A    
C9    H73   S    
C61   H10   S    
C50   C51   S    
C64   H13   S    
C118  H58   S    
C83   C89   S    
C47   H94   S    
C113  H54   S    
C38   H83   S    
C66   H42   S    
C85   C87   S    
C59   N27   A    
C111  H52   S    
C67   N30   A    
C86   H18   S    
C30   C122  A    
N10   Ni6   S    
C9    N24   A    
C34   C44   S    
C54   C89   S    
N32   Ni2   S    
C3    H66   S    
N12   Ni2   S    
C53   C57   A    
C10   H74   S    
N6    Ni5   S    
C39   C43   S    
C117  N8    A    
C25   C26   S    
C82   C86   S    
C46   C51   S    
C21   H90   S    
C115  H55   S    
N4    N13   A    
C116  N7    A    
C53   C82   A    
C16   C59   A    
C62   H11   S    
C13   C99   S    
C17   H80   S    
C121  N13   A    
C9    C14   A    
C36   H72   S    
C84   H20   S    
N26   N27   A    
C34   H50   S    
C98   C102  A    
C72   O3    S    
C5    C81   A    
C11   C16   A    
C93   C97   A    
C29   H6    S    
C107  H38   S    
C25   H98   S    
C8    C12   A    
C23   O3    S    
C20   C21   S    
N28   Ni5   S    
C17   C18   S    
C88   H24   S    
N13   Ni8   S    
N11   Ni7   S    
C69   C74   A    
N16   Ni3   S    
C119  H59   S    
C41   C45   S    
C32   C116  A    
C7    H70   S    
C102  C104  A    
C120  H60   S    
C85   H16   S    
C4    N18   A    
C114  C118  A    
C50   H8    S    
N24   Ni1   S    
C42   C50   S    
N20   N30   A    
C109  C114  A    
C118  N9    A    
C61   C72   A    
C39   C49   S    
C22   H93   S    
N26   Ni3   S    
N12   N24   A    
C43   C47   S    
C56   C70   S    
C8    N22   A    
C108  H48   S    
C48   H28   S    
C26   H100  S    
C105  H45   S    
C6    H69   S    
C19   H87   S    
N2    N10   A    
C75   C79   A    
C104  H35   S    
C36   C38   S    
C60   C103  S    
C20   O2    S    
C13   C120  A    
C67   C92   A    
N25   Ni4   S    
N27   Ni4   S    
C54   C58   A    
C67   H43   S    
C58   C63   A    
C116  H56   S    
N9    N32   A    
C23   H96   S    
C2    C110  A    
C73   C77   A    
C17   O1    S    
C19   H85   S    
C32   C46   S    
N8    N17   A    
C52   C87   S    
C16   C76   S    
C76   C80   A    
C5    H68   S    
C1    H1    S    
N3    N11   A    
C37   N12   A    
C73   O4    S    
C68   N31   A    
C2    C119  A    
C34   C39   S    
C119  N10   A    
C38   C42   S    
N20   Ni8   S    
N1    Ni1   S    
C122  N14   A    
C105  C106  S    
C2    C96   S    
C112  N4    A    
C18   H82   S    
C60   C64   A    
C18   H84   S    
C20   H89   S    
N21   Ni7   S    
C109  N32   A    
C91   C106  S    
C35   C40   S    
C41   H78   S    
C25   H99   S    
C31   C123  A    
C13   C111  A    
N18   Ni6   S    
C35   H61   S    
C88   H29   S    
C66   C81   A    
C83   H19   S    
C51   H9    S    
C27   H103  S    
C89   H30   S    
C15   C77   S    
N18   N28   A    
C77   C82   A    
C48   N23   A    
C71   O2    S    
C6    C92   A    
C96   C100  A    
C86   C88   S    
C17   H81   S    
C24   C121  A    
C39   H76   S    
C27   O4    S    
C53   C88   S    
C109  H49   S    
C29   H7    S    
C20   H88   S    
C37   H17   S    
C94   C95   A    
C57   C81   S    
C11   H75   S    
N7    N16   A    
C68   H44   S    
C83   H14   S    
C59   H39   S    
C12   C75   S    
C120  N11   A    
C69   O1    S    
N19   Ni5   S    
C1    N1    A    
N5    N14   A    
C40   C44   S    
C23   C25   S    
C40   H77   S    
C91   C96   A    
C87   H23   S    
C117  H57   S    
C27   C28   S    
C94   C98   A    
C56   C61   A    
C63   H12   S    
C100  C101  A    
C45   C50   S    
C3    N17   A    
C5    N19   A    
C54   C78   A    
C90   H31   S    
C52   C80   A    
N17   Ni4   S    
C58   C92   S    
C41   C51   S    
C115  N6    A    
C97   C101  A    
C52   C56   A    
N23   Ni3   S    
C112  H53   S    
C14   C37   A    
C30   C113  A    
