data_mof_unit_26726.cif
_audit_creation_date              2012-12-11T15:43:08-0500
_audit_creation_method            fapswitch 2.2
_symmetry_space_group_name_H-M    P1
_symmetry_Int_Tables_number       1
_space_group_crystal_system       triclinic
_cell_length_a                    19.445315
_cell_length_b                    10.993892
_cell_length_c                    18.613306
_cell_angle_alpha                 90.132764
_cell_angle_beta                  89.594442
_cell_angle_gamma                 89.857579
_cell_volume                      3979.02402168

loop_
_atom_site_label
_atom_site_type_symbol
_atom_type_description
_atom_site_fract_x
_atom_site_fract_y
_atom_site_fract_z
_atom_type_partial_charge
C1    C     C_R   0.710213 0.325774 0.139266 0.570383
C2    C     C_R   0.992963 0.998392 0.038006 -0.161458
C3    C     C_R   0.759695 0.446987 0.567955 -0.019824
C4    C     C_R   0.730632 0.383783 0.349751 0.534053
C5    C     C_R   0.287315 0.332305 0.640265 0.573563
C6    C     C_R   0.227655 0.875341 0.353474 0.550527
C7    C     C_R   0.770520 0.879173 0.648099 0.547253
C8    C     C_R   0.561322 0.153415 0.361026 0.558223
C9    C     C_R   0.468635 0.157584 0.647725 0.544893
C10   C     C_R   0.030145 0.656836 0.351515 0.534162
C11   C     C_R   0.964256 0.657548 0.644953 0.547746
C12   C     C_R   0.741656 0.971091 0.353833 0.541679
C13   C     C_R   0.504077 0.498317 0.964262 -0.163001
C14   C     C_R   0.258872 0.967802 0.646921 0.551871
C15   C     C_R   0.242508 0.467906 0.352591 0.538912
C16   C     C_R   0.761398 0.477017 0.643517 0.551021
C17   C     C_R   0.499936 0.163884 0.925145 -0.030484
C18   C     C_R   0.498674 0.164625 0.075782 -0.036175
C19   C     C_R   0.999905 0.663880 0.925167 -0.030495
C20   C     C_R   0.998642 0.664633 0.075804 -0.034937
C21   C     C_R   0.500821 0.276276 0.962698 -0.005797
C22   C     C_R   0.496596 0.276484 0.038568 -0.005872
C23   C     C_R   0.000796 0.776275 0.962718 -0.006024
C24   C     C_R   0.492966 0.498389 0.037986 -0.161637
C25   C     C_R   0.996570 0.776489 0.038588 -0.005101
C26   C     C_R   0.493185 0.054569 0.037676 0.160063
C27   C     C_R   0.505454 0.053578 0.963425 0.156607
C28   C     C_R   0.993136 0.554581 0.037704 0.161317
C29   C     C_R   0.005409 0.553576 0.963454 0.156193
C30   C     C_3   0.494715 0.842004 0.083567 -0.289899
C31   C     C_3   0.520710 0.863113 0.891600 -0.272485
C32   C     C_3   0.994694 0.342016 0.083603 -0.290004
C33   C     C_3   0.020691 0.363109 0.891647 -0.272018
C34   C     C_3   0.610833 0.721360 0.569426 -0.307796
C35   C     C_R   0.787474 0.828829 0.939944 0.000966
C36   C     C_3   0.402454 0.790871 0.397892 -0.325560
C37   C     C_3   0.109866 0.169915 0.521711 -0.311306
C38   C     C_3   0.919469 0.331452 0.404493 -0.308407
C39   C     C_R   0.213770 0.827466 0.059758 0.001126
C40   C     C_R   0.287472 0.328825 0.939945 -0.000331
C41   C     C_R   0.713769 0.327469 0.059758 0.001213
C42   C     C_R   0.738600 0.766853 0.981488 0.017171
C43   C     C_R   0.266939 0.773075 0.020117 0.015059
C44   C     C_R   0.238593 0.266857 0.981489 0.016995
C45   C     C_R   0.290025 0.325825 0.860536 0.571831
C46   C     C_R   0.766935 0.273073 0.020118 0.015284
C47   C     C_R   0.725746 0.802304 0.052612 0.020489
C48   C     C_R   0.279609 0.807614 0.948950 0.017711
C49   C     C_R   0.225739 0.302309 0.052613 0.021227
C50   C     C_R   0.779606 0.307613 0.948952 0.016706
C51   C     C_R   0.825513 0.926935 0.049642 -0.149277
C52   C     C_R   0.173379 0.915461 0.947825 -0.154261
C53   C     C_R   0.325514 0.426924 0.049645 -0.148369
C54   C     C_R   0.673380 0.415469 0.947827 -0.154524
C55   C     C_R   0.835271 0.899617 0.977191 -0.142350
C56   C     C_R   0.210214 0.825773 0.139266 0.570941
C57   C     C_R   0.163344 0.889046 0.020619 -0.147793
C58   C     C_R   0.335273 0.399601 0.977194 -0.142344
C59   C     C_R   0.663346 0.389060 0.020622 -0.148066
C60   C     C_3   0.664577 0.751896 0.967166 -0.264233
C61   C     C_3   0.340872 0.772279 0.037056 -0.249467
C62   C     C_3   0.164569 0.251902 0.967169 -0.264490
C63   C     C_3   0.840866 0.272280 0.037061 -0.249163
C64   C     C_3   0.650671 0.794336 0.043181 -0.282413
C65   C     C_3   0.354731 0.811223 0.960599 -0.263382
C66   C     C_3   0.150663 0.294341 0.043186 -0.282479
C67   C     C_R   0.790025 0.825827 0.860536 0.569283
C68   C     C_3   0.854727 0.311225 0.960605 -0.263568
C69   C     C_R   0.764766 0.893043 0.085415 0.011818
C70   C     C_R   0.236697 0.890741 0.914126 0.012904
C71   C     C_R   0.264764 0.393042 0.085416 0.012820
C72   C     C_R   0.736696 0.390742 0.914127 0.011849
C73   C     C_R   0.530492 0.155700 0.147452 0.541903
C74   C     C_R   0.469192 0.155432 0.852903 0.540535
C75   C     C_R   0.030487 0.655702 0.147456 0.531866
C76   C     C_R   0.969185 0.655431 0.852911 0.540736
C77   C     C_R   0.505351 0.169067 0.580636 0.002490
C78   C     C_R   0.508046 0.388693 0.926742 -0.098633
C79   C     C_R   0.541223 0.161576 0.435522 -0.005521
C80   C     C_R   0.981497 0.667344 0.570349 0.013254
C81   C     C_R   0.999020 0.659076 0.421886 0.031033
C82   C     C_R   0.533737 0.064684 0.550550 0.031882
C83   C     C_R   0.555829 0.062720 0.479405 0.018424
C84   C     C_R   0.003451 0.562517 0.537289 0.022147
C85   C     C_R   0.013341 0.559403 0.465388 0.055844
C86   C     C_R   0.504844 0.261786 0.463198 -0.160407
C87   C     C_R   0.491327 0.268487 0.536383 -0.165513
C88   C     C_R   0.966219 0.760507 0.452467 -0.169462
C89   C     C_R   0.488769 0.388675 0.075020 -0.095913
C90   C     C_R   0.957956 0.764955 0.527512 -0.156887
C91   C     C_3   0.492617 0.952245 0.540468 -0.241285
C92   C     C_3   0.521012 0.945001 0.466649 -0.253057
C93   C     C_3   0.064968 0.487769 0.553086 -0.284899
C94   C     C_3   0.077610 0.486206 0.472809 -0.244190
C95   C     C_R   0.755877 0.913928 0.574733 0.016330
C96   C     C_R   0.239770 0.904427 0.427926 0.023567
C97   C     C_R   0.275922 0.344188 0.562889 0.014055
C98   C     C_R   0.749019 0.438725 0.418297 0.015701
C99   C     C_R   0.812580 0.953516 0.535597 0.004475
C100  C     C_R   0.008033 0.888688 0.926762 -0.098667
C101  C     C_R   0.182404 0.917575 0.472451 -0.015565
C102  C     C_R   0.327878 0.401524 0.524806 -0.011931
C103  C     C_R   0.694104 0.476206 0.461856 -0.001412
C104  C     C_R   0.812017 0.957953 0.462329 0.009627
C105  C     C_R   0.187125 0.921403 0.545991 0.036228
C106  C     C_R   0.320795 0.426724 0.453115 0.019336
C107  C     C_R   0.699104 0.473087 0.534611 -0.003989
C108  C     C_R   0.700906 0.862944 0.461712 -0.114018
C109  C     C_R   0.308335 0.881289 0.534565 -0.132051
C110  C     C_R   0.213562 0.320031 0.449634 -0.138128
C111  C     C_R   0.988756 0.888681 0.075040 -0.095786
C112  C     C_R   0.820081 0.435532 0.524894 -0.121218
C113  C     C_R   0.698582 0.867793 0.537251 0.120647
C114  C     C_R   0.304477 0.889285 0.459004 0.106992
C115  C     C_R   0.218458 0.294486 0.524045 0.122606
C116  C     C_R   0.814990 0.431070 0.448985 0.107636
C117  C     C_3   0.850445 0.070331 0.543423 -0.279740
C118  C     C_3   0.119447 0.842542 0.474380 -0.246059
C119  C     C_3   0.359439 0.522525 0.540787 -0.268003
C120  C     C_3   0.624130 0.422513 0.467080 -0.245963
C121  C     C_R   0.742940 0.965806 0.148721 0.537649
C122  C     C_R   0.004074 0.998314 0.964282 -0.163110
C123  C     C_R   0.257304 0.965680 0.851357 0.534071
C124  C     C_R   0.242940 0.465806 0.148721 0.537629
C125  C     C_R   0.757303 0.465677 0.851355 0.536865
C126  C     C_3   0.849504 0.076971 0.462665 -0.265639
C127  C     C_3   0.125472 0.842332 0.555086 -0.285476
C128  C     C_3   0.353143 0.547973 0.462395 -0.276048
C129  C     C_3   0.631177 0.416779 0.547274 -0.283344
C130  C     C_R   0.754422 0.919757 0.424079 -0.014016
C131  C     C_R   0.249979 0.906822 0.578179 -0.013425
C132  C     C_R   0.260694 0.397975 0.416476 -0.017258
Cr1   Cr    Cr6+3 0.772010 0.169670 0.250090 0.978962
Cr2   Cr    Cr6+3 0.383290 0.010760 0.749160 0.980479
Cr3   Cr    Cr6+3 0.116710 0.510760 0.250840 0.982872
Cr4   Cr    Cr6+3 0.883290 0.510760 0.749160 0.991072
Cr5   Cr    Cr6+3 0.227990 0.169670 0.749910 0.996578
Cr6   Cr    Cr6+3 0.272010 0.669670 0.250090 0.979698
Cr7   Cr    Cr6+3 0.727990 0.669670 0.749910 0.985312
Cr8   Cr    Cr6+3 0.615000 0.323260 0.249260 0.986756
Cr9   Cr    Cr6+3 0.385000 0.323260 0.750740 0.986536
Cr10  Cr    Cr6+3 0.115000 0.823260 0.249260 0.988311
Cr11  Cr    Cr6+3 0.885000 0.823260 0.750740 0.991267
Cr12  Cr    Cr6+3 0.616710 0.010760 0.250840 0.985082
H1    H     H_    0.489514 0.336620 0.429071 0.138041
H2    H     H_    0.481988 0.958907 0.425720 0.198624
H3    H     H_    0.104834 0.537654 0.583786 0.129016
H4    H     H_    0.071330 0.396849 0.446660 0.137945
H5    H     H_    0.657999 0.827942 0.432033 0.128290
H6    H     H_    0.356516 0.861649 0.559919 0.128525
H7    H     H_    0.169105 0.292736 0.419317 0.125197
H8    H     H_    0.870321 0.433782 0.549548 0.154617
H9    H     H_    0.902925 0.057720 0.565500 0.134193
H10   H     H_    0.127984 0.751788 0.449782 0.144289
H11   H     H_    0.413509 0.519787 0.558910 0.125264
H12   H     H_    0.465635 0.347266 0.557572 0.137698
H13   H     H_    0.625692 0.331624 0.442374 0.162518
H14   H     H_    0.819152 0.142602 0.570027 0.139744
H15   H     H_    0.075245 0.896235 0.454317 0.148885
H16   H     H_    0.325509 0.582214 0.574068 0.155291
H17   H     H_    0.583473 0.486033 0.448301 0.129590
H18   H     H_    0.817193 0.153873 0.443770 0.176214
H19   H     H_    0.082297 0.889684 0.582838 0.136296
H20   H     H_    0.316045 0.623201 0.453085 0.165819
H21   H     H_    0.593966 0.475755 0.576425 0.132394
H22   H     H_    0.901532 0.068829 0.437955 0.119670
H23   H     H_    0.952885 0.838620 0.420041 0.119035
H24   H     H_    0.138400 0.751559 0.577528 0.127631
H25   H     H_    0.403581 0.550526 0.433990 0.123032
H26   H     H_    0.635445 0.322380 0.568223 0.143376
H27   H     H_    0.519771 0.393536 0.869988 0.134547
H28   H     H_    0.477201 0.392984 0.131861 0.136661
H29   H     H_    0.019761 0.893528 0.870009 0.134715
H30   H     H_    0.977191 0.892991 0.131882 0.134457
H31   H     H_    0.008611 0.082929 0.935672 0.096741
H32   H     H_    0.987875 0.083180 0.066804 0.096347
H33   H     H_    0.508605 0.582936 0.935654 0.096661
H34   H     H_    0.935599 0.844862 0.552056 0.145581
H35   H     H_    0.487868 0.583174 0.066785 0.096460
H36   H     H_    0.861249 0.987819 0.074697 0.140358
H37   H     H_    0.135414 0.969600 0.920793 0.137591
H38   H     H_    0.361252 0.487805 0.074701 0.140448
H39   H     H_    0.635417 0.469611 0.920794 0.137598
H40   H     H_    0.875872 0.945363 0.948801 0.167188
H41   H     H_    0.119899 0.928203 0.047946 0.167186
H42   H     H_    0.375879 0.445336 0.948805 0.167008
H43   H     H_    0.619905 0.428231 0.047949 0.167167
H44   H     H_    0.149935 0.156500 0.958235 0.141982
H45   H     H_    0.049027 0.399448 0.576208 0.140010
H46   H     H_    0.860833 0.180746 0.049223 0.133099
H47   H     H_    0.649943 0.656496 0.958232 0.141994
H48   H     H_    0.360836 0.680742 0.049219 0.133003
H49   H     H_    0.648656 0.815275 0.924853 0.172862
H50   H     H_    0.351475 0.842399 0.077866 0.177814
H51   H     H_    0.148644 0.315282 0.924858 0.173008
H52   H     H_    0.851465 0.342399 0.077871 0.177346
H53   H     H_    0.627165 0.886357 0.045274 0.178340
H54   H     H_    0.374656 0.905640 0.957172 0.175973
H55   H     H_    0.127155 0.386359 0.045282 0.178533
H56   H     H_    0.124577 0.536887 0.456684 0.140400
H57   H     H_    0.874649 0.405644 0.957182 0.175659
H58   H     H_    0.627591 0.722788 0.077817 0.131741
H59   H     H_    0.381761 0.739996 0.928612 0.124997
H60   H     H_    0.127584 0.222792 0.077821 0.131705
H61   H     H_    0.881760 0.239999 0.928620 0.124788
H62   H     H_    0.429791 0.980999 0.116110 0.251117
H63   H     H_    0.460439 0.777670 0.112178 0.104176
H64   H     H_    0.539014 0.854478 0.119399 0.178551
H65   H     H_    0.509777 0.799621 0.032138 0.172895
H66   H     H_    0.594134 0.995230 0.913164 0.240819
H67   H     H_    0.437672 0.976620 0.539627 0.165685
H68   H     H_    0.535757 0.774512 0.913973 0.104169
H69   H     H_    0.540971 0.867959 0.835687 0.145821
H70   H     H_    0.464572 0.865436 0.889890 0.179754
H71   H     H_    0.929775 0.481006 0.116166 0.248986
H72   H     H_    0.960427 0.277679 0.112225 0.103781
H73   H     H_    0.039005 0.354491 0.119417 0.178659
H74   H     H_    0.009741 0.299630 0.032172 0.172998
H75   H     H_    0.094109 0.495237 0.913225 0.241809
H76   H     H_    0.035722 0.274513 0.914038 0.103956
H77   H     H_    0.040981 0.367933 0.835746 0.147909
H78   H     H_    0.554520 0.866280 0.456961 0.142998
H79   H     H_    0.964556 0.365447 0.889901 0.179218
H80   H     H_    0.630216 0.883306 0.623999 0.262453
H81   H     H_    0.563089 0.710079 0.601614 0.105998
H82   H     H_    0.649533 0.662044 0.592472 0.219672
H83   H     H_    0.600846 0.694478 0.513016 0.132237
H84   H     H_    0.358805 0.956984 0.371580 0.262332
H85   H     H_    0.445093 0.811351 0.359871 0.123250
H86   H     H_    0.370485 0.725119 0.368762 0.198022
H87   H     H_    0.424806 0.752225 0.447512 0.140286
H88   H     H_    0.142212 0.282474 0.603217 0.269131
H89   H     H_    0.505808 0.877624 0.577154 0.158863
H90   H     H_    0.066740 0.230423 0.507843 0.098296
H91   H     H_    0.087828 0.098757 0.556877 0.152252
H92   H     H_    0.130029 0.127598 0.472015 0.160405
H93   H     H_    0.866977 0.471206 0.353964 0.256231
H94   H     H_    0.968851 0.354808 0.377882 0.154866
H95   H     H_    0.895923 0.257620 0.372468 0.153828
H96   H     H_    0.930486 0.300904 0.460090 0.138305
N1    N     N_2   0.458813 0.955394 0.071892 -0.513812
N2    N     N_2   0.549109 0.960894 0.934579 -0.523150
N3    N     N_2   0.958783 0.455402 0.071938 -0.513886
N4    N     N_2   0.049077 0.460896 0.934628 -0.523061
N5    N     N_2   0.635556 0.844343 0.573807 -0.522537
N6    N     N_2   0.364694 0.900679 0.415410 -0.530508
N7    N     N_2   0.162842 0.234510 0.560780 -0.471477
N8    N     N_2   0.875021 0.436791 0.404749 -0.503282
O1    O     O_R   0.787520 0.042810 0.170440 -0.535807
O2    O     O_R   0.454050 0.051210 0.669140 -0.528388
O3    O     O_R   0.045950 0.551210 0.330860 -0.525770
O4    O     O_R   0.954050 0.551210 0.669140 -0.522229
O5    O     O_R   0.681390 0.959480 0.325510 -0.519547
O6    O     O_R   0.318610 0.959480 0.674490 -0.516424
O7    O     O_R   0.181390 0.459480 0.325510 -0.512611
O8    O     O_R   0.818610 0.459480 0.674490 -0.510288
O9    O     O_3   0.667900 0.167900 0.250060 -0.283380
O10   O     O_3   0.332100 0.167900 0.749940 -0.286837
O11   O     O_3   0.167900 0.667900 0.250060 -0.267371
O12   O     O_R   0.212480 0.042810 0.829560 -0.538628
O13   O     O_3   0.832100 0.667900 0.749940 -0.269708
O14   O     O_R   0.765640 0.292100 0.175020 -0.507497
O15   O     O_R   0.234360 0.292100 0.824980 -0.503576
O16   O     O_R   0.265640 0.792100 0.175020 -0.506316
O17   O     O_R   0.734360 0.792100 0.824980 -0.509270
O18   O     O_R   0.670190 0.408840 0.168540 -0.522051
O19   O     O_R   0.329810 0.408840 0.831460 -0.518575
O20   O     O_R   0.170190 0.908840 0.168540 -0.520789
O21   O     O_R   0.829810 0.908840 0.831460 -0.524051
O22   O     O_R   0.556620 0.251410 0.175160 -0.521874
O23   O     O_R   0.287520 0.542810 0.170440 -0.536520
O24   O     O_R   0.443380 0.251410 0.824840 -0.527763
O25   O     O_R   0.056620 0.751410 0.175160 -0.526652
O26   O     O_R   0.943380 0.751410 0.824840 -0.527366
O27   O     O_R   0.545960 0.049620 0.170320 -0.512194
O28   O     O_R   0.454040 0.049620 0.829680 -0.518087
O29   O     O_R   0.045960 0.549620 0.170320 -0.516001
O30   O     O_R   0.954040 0.549620 0.829680 -0.518682
O31   O     O_R   0.681390 0.958010 0.176690 -0.503234
O32   O     O_R   0.318610 0.958010 0.823310 -0.504362
O33   O     O_R   0.181390 0.458010 0.176690 -0.502915
O34   O     O_R   0.712480 0.542810 0.829560 -0.535343
O35   O     O_R   0.818610 0.458010 0.823310 -0.504458
O36   O     O_R   0.787510 0.044390 0.330970 -0.523061
O37   O     O_R   0.212490 0.044390 0.669030 -0.493717
O38   O     O_R   0.287510 0.544390 0.330970 -0.529801
O39   O     O_R   0.712490 0.544390 0.669030 -0.530026
O40   O     O_R   0.765630 0.293570 0.323840 -0.502724
O41   O     O_R   0.234370 0.293570 0.676160 -0.499793
O42   O     O_R   0.265630 0.793570 0.323840 -0.504000
O43   O     O_R   0.734370 0.793570 0.676160 -0.499450
O44   O     O_R   0.670190 0.410420 0.329080 -0.527152
O45   O     O_R   0.556610 0.252880 0.323980 -0.512092
O46   O     O_R   0.329810 0.410420 0.670920 -0.519352
O47   O     O_R   0.170190 0.910420 0.329080 -0.518978
O48   O     O_R   0.829810 0.910420 0.670920 -0.517653
O49   O     O_R   0.443390 0.252880 0.676020 -0.521813
O50   O     O_R   0.056610 0.752880 0.323980 -0.514434
O51   O     O_R   0.943390 0.752880 0.676020 -0.512992
O52   O     O_R   0.545950 0.051210 0.330860 -0.526471

loop_
_geom_bond_atom_site_label_1
_geom_bond_atom_site_label_2
_ccdc_geom_bond_type
C27   N2    S    
C124  O23   A    
C58   H42   S    
C107  C129  S    
Cr7   O43   S    
C105  C131  A    
C31   H70   S    
C106  C132  A    
C12   C130  S    
C75   O29   A    
Cr9   O19   S    
C67   O17   A    
C95   C99   A    
C8    O45   A    
C14   O37   A    
C38   H94   S    
C35   C42   A    
C50   C72   A    
C15   C132  S    
C30   N1    S    
C127  H19   S    
Cr9   O10   S    
C48   C65   S    
C97   C115  A    
C117  C126  S    
C57   H41   S    
C119  C128  S    
Cr3   O29   S    
C21   C22   A    
C96   C114  A    
C2    C111  A    
C40   C58   A    
C34   H81   S    
H66   N2    S    
C47   C64   S    
C62   C66   S    
C20   C28   A    
C17   C21   A    
C82   C91   S    
C108  C113  A    
C19   C23   A    
Cr12  O52   S    
C39   C56   S    
C65   H59   S    
C3    C112  A    
Cr2   O10   S    
C9    C77   S    
C41   C59   A    
C12   O36   A    
C1    C41   S    
C117  H9    S    
Cr2   O2    S    
C53   C71   A    
C86   H1    S    
C91   C92   S    
C43   C61   S    
C62   H44   S    
C28   C29   A    
Cr4   O13   S    
C121  O31   A    
C48   C70   A    
C53   C58   A    
C11   O51   A    
C37   N7    S    
C72   C125  S    
C60   C64   S    
C44   C62   S    
Cr11  O21   S    
C5    O46   A    
Cr9   O46   S    
C77   C82   A    
C113  N5    S    
C30   H63   S    
C22   C89   A    
C51   C55   A    
C84   C93   S    
C81   C88   A    
C38   H96   S    
C61   C65   S    
C45   O19   A    
C13   C24   A    
C49   C71   A    
C54   H39   S    
Cr4   O4    S    
C103  C107  A    
C51   C69   A    
C32   H74   S    
C102  C119  S    
C6    O42   A    
C33   H76   S    
C31   N2    S    
C15   O7    A    
C101  C118  S    
Cr10  O20   S    
H84   N6    S    
C128  H20   S    
Cr9   O24   S    
C47   C69   A    
C121  O1    A    
C8    O52   A    
Cr11  O26   S    
C55   H40   S    
C59   H43   S    
Cr5   O37   S    
C108  C130  A    
C66   H60   S    
Cr9   O49   S    
C23   C100  A    
Cr7   O17   S    
C128  H25   S    
C75   O25   A    
C60   H49   S    
C37   H91   S    
C54   C59   A    
C94   H4    S    
C49   C66   S    
C105  C127  S    
C92   H2    S    
C120  C129  S    
C17   C27   A    
C116  N8    S    
C129  H26   S    
C91   H67   S    
C52   C57   A    
Cr8   O45   S    
C6    O47   A    
C36   H85   S    
C20   C75   S    
Cr4   O30   S    
C99   C117  S    
C14   O6    A    
C35   C67   S    
Cr1   O40   S    
C38   N8    S    
C16   O39   A    
Cr12  O9    S    
Cr10  O25   S    
C109  C114  A    
Cr6   O16   S    
C18   C73   S    
Cr7   O13   S    
Cr8   O18   S    
H62   N1    S    
C118  C127  S    
Cr1   O1    S    
C112  C116  A    
C13   C78   A    
C12   O5    A    
C117  H14   S    
C18   C22   A    
Cr3   O3    S    
C7    O48   A    
C76   O26   A    
C93   H45   S    
C63   H46   S    
C91   H89   S    
Cr3   O11   S    
C11   O4    A    
C46   C63   S    
Cr2   O32   S    
C9    O2    A    
C53   H38   S    
C118  H10   S    
Cr12  O31   S    
Cr10  O11   S    
C56   O20   A    
C25   C111  A    
C65   H54   S    
C32   H72   S    
C40   C44   A    
C77   C87   A    
C87   H12   S    
C96   C101  A    
C81   C85   A    
C3    C16   S    
C33   H77   S    
C90   H34   S    
C111  H30   S    
C103  C120  S    
C18   C26   A    
C80   C84   A    
C30   H65   S    
C26   N1    S    
Cr11  O51   S    
C26   C27   A    
C19   C76   S    
C34   H82   S    
C73   O22   A    
C45   O15   A    
C20   C25   A    
C98   C103  A    
C106  C128  S    
C36   N6    S    
H75   N4    S    
C63   C68   S    
C7    O43   A    
C31   H68   S    
C125  O35   A    
C127  H24   S    
C21   C78   A    
C109  C131  A    
C8    C79   S    
C112  H8    S    
C110  C132  A    
C9    O49   A    
C97   C102  A    
Cr6   O23   S    
Cr1   O9    S    
C99   C104  A    
C104  C130  A    
C64   H53   S    
C118  H15   S    
C62   H51   S    
C115  N7    S    
C14   C131  S    
C2    C122  A    
C40   C45   S    
Cr8   O9    S    
C84   C85   A    
C110  H7    S    
C123  O32   A    
Cr10  O47   S    
Cr5   O10   S    
C4    O44   A    
Cr8   O44   S    
C88   H23   S    
C30   H64   S    
C34   N5    S    
Cr7   O39   S    
C52   H37   S    
Cr5   O41   S    
C31   H69   S    
Cr5   O15   S    
C88   C90   A    
C120  H13   S    
C19   C29   A    
Cr6   O38   S    
Cr6   O11   S    
C74   O24   A    
Cr7   O34   S    
C68   H57   S    
C86   C87   A    
C126  H22   S    
C123  O12   A    
Cr1   O36   S    
C10   C81   S    
H71   N3    S    
C129  H21   S    
Cr6   O42   S    
C79   C83   A    
C16   O8    A    
C114  N6    S    
C36   H87   S    
C13   H33   S    
C78   H27   S    
C29   N4    S    
Cr8   O22   S    
C109  H6    S    
C94   H56   S    
C11   C80   S    
C67   O21   A    
C5    C97   S    
C82   C83   A    
Cr3   O7    S    
C50   C68   S    
C110  C115  A    
C79   C86   A    
C44   C49   A    
C93   C94   S    
C4    C98   S    
Cr2   O28   S    
Cr3   O33   S    
C24   C89   A    
C37   H90   S    
C124  O33   A    
C83   C92   S    
C4    O40   A    
Cr12  O27   S    
C56   O16   A    
C73   O27   A    
Cr11  O48   S    
C122  H31   S    
C39   C57   A    
C15   O38   A    
C10   O3    A    
Cr4   O35   S    
C2    H32   S    
C38   H95   S    
C70   C123  S    
C1    O18   A    
C119  H16   S    
C61   H48   S    
C41   C46   A    
C102  C106  A    
Cr11  O13   S    
C28   N3    S    
C43   C48   A    
C66   H55   S    
C101  C105  A    
Cr1   O14   S    
C35   C55   A    
C71   C124  S    
Cr2   O6    S    
C42   C60   S    
C39   C43   A    
C3    C107  A    
C1    O14   A    
H93   N8    S    
C63   H52   S    
C10   O50   A    
C85   C94   S    
C98   C116  A    
C69   C121  S    
Cr10  O50   S    
C24   H35   S    
C104  C126  S    
C120  H17   S    
C6    C96   S    
C32   N3    S    
C17   C74   S    
C51   H36   S    
C33   H79   S    
C100  H29   S    
C37   H92   S    
Cr5   O12   S    
C64   H58   S    
C119  H11   S    
Cr4   O8    S    
C32   H73   S    
C89   H28   S    
C5    O41   A    
C7    C95   S    
Cr12  O5    S    
C46   C50   A    
C76   O30   A    
H88   N7    S    
C92   H78   S    
C34   H83   S    
C95   C113  A    
C60   H47   S    
C74   O28   A    
C93   H3    S    
C100  C122  A    
C42   C47   A    
C23   C25   A    
C80   C90   A    
C52   C70   A    
C108  H5    S    
H80   N5    S    
C54   C72   A    
C125  O34   A    
C36   H86   S    
C68   H61   S    
C33   N4    S    
C126  H18   S    
C61   H50   S    
