data_mof_unit_25171.cif
_audit_creation_date              2012-12-10T19:32:19-0500
_audit_creation_method            fapswitch 2.2
_symmetry_space_group_name_H-M    P1
_symmetry_Int_Tables_number       1
_space_group_crystal_system       triclinic
_cell_length_a                    23.470193
_cell_length_b                    15.7242
_cell_length_c                    14.926687
_cell_angle_alpha                 89.891545
_cell_angle_beta                  90.172043
_cell_angle_gamma                 90.089621
_cell_volume                      5508.65257519

loop_
_atom_site_label
_atom_site_type_symbol
_atom_type_description
_atom_site_fract_x
_atom_site_fract_y
_atom_site_fract_z
_atom_type_partial_charge
C1    C     C_R   0.499879 0.337528 0.500048 0.908235
C2    C     C_R   0.500313 0.662483 0.499910 0.906370
C3    C     C_R   0.239502 0.535685 0.573125 -0.112869
C4    C     C_R   0.761554 0.469873 0.571822 -0.114318
C5    C     C_R   0.298476 0.534397 0.571199 -0.245913
C6    C     C_R   0.702573 0.470905 0.571703 -0.242587
C7    C     C_R   0.327100 0.494952 0.500161 -0.081344
C8    C     C_R   0.672830 0.506935 0.499486 -0.083972
C9    C     C_R   0.295804 0.454756 0.430736 -0.041101
C10   C     C_R   0.702977 0.544312 0.427127 -0.041080
C11   C     C_R   0.236428 0.458548 0.432634 -0.150258
C12   C     C_R   0.762328 0.540805 0.427289 -0.149508
C13   C     C_R   0.208483 0.498367 0.503620 0.314429
C14   C     C_R   0.791391 0.504068 0.499418 0.314286
C15   C     C_3   0.535499 0.971050 0.556882 -0.214001
C16   C     C_3   0.454176 0.029287 0.444636 -0.216482
C17   C     C_3   0.545735 0.026577 0.473334 0.068702
C18   C     C_3   0.443744 0.973567 0.528374 0.070269
C19   C     C_1   0.498321 0.248810 0.500137 -0.197387
C20   C     C_1   0.498875 0.751212 0.499711 -0.208561
C21   C     C_3   0.484996 0.028916 0.584293 -0.228635
C22   C     C_3   0.504737 0.971352 0.417095 -0.217943
C23   C     C_R   0.389169 0.498163 0.499896 0.860729
C24   C     C_R   0.610807 0.502364 0.499924 0.865293
C25   C     C_3   0.495758 0.082932 0.500431 0.147797
C26   C     C_3   0.493886 0.916978 0.501123 0.164491
C27   C     C_1   0.496877 0.173655 0.500198 -0.080780
C28   C     C_1   0.496725 0.826359 0.500090 -0.090839
C29   C     C_3   0.495108 0.419610 0.969835 -0.201313
C30   C     C_3   0.506577 0.580290 0.030409 -0.199303
C31   C     C_3   0.543838 0.453219 0.030316 0.173162
C32   C     C_3   0.457824 0.546631 0.970023 0.177333
C33   C     C_3   0.451356 0.466819 0.029883 -0.196854
C34   C     C_3   0.550394 0.533057 0.970305 -0.201443
C35   C     C_3   0.500524 0.499935 0.089612 0.053726
C36   C     C_3   0.501084 0.499966 0.910568 0.061052
C37   C     C_1   0.500210 0.499967 0.189781 0.053522
C38   C     C_1   0.500532 0.499985 0.810272 0.027025
C39   C     C_R   0.880855 0.577817 0.503707 0.506473
C40   C     C_R   0.118907 0.425076 0.511495 0.505480
C41   C     C_R   0.879402 0.426092 0.497832 0.482593
C42   C     C_R   0.120467 0.576575 0.500242 0.482424
C43   C     C_R   0.939489 0.422205 0.503848 -0.041445
C44   C     C_R   0.060321 0.580575 0.503906 -0.040910
C45   C     C_R   0.969856 0.500767 0.504785 -0.047374
C46   C     C_R   0.029933 0.502049 0.506212 -0.047236
C47   C     C_R   0.940174 0.578439 0.504073 -0.032588
C48   C     C_R   0.059588 0.424417 0.509728 -0.032059
C49   C     C_R   0.970542 0.344220 0.508585 0.092799
C50   C     C_R   0.029197 0.658621 0.504467 0.091269
C51   C     C_R   0.029988 0.347265 0.511744 -0.199847
C52   C     C_R   0.969731 0.655599 0.504719 -0.199073
H1    H     H_    0.490788 0.353314 0.945282 0.131626
H2    H     H_    0.510894 0.646534 0.055107 0.126537
H3    H     H_    0.591359 0.559904 0.946218 0.129686
H4    H     H_    0.410439 0.439934 0.053595 0.129354
H5    H     H_    0.053552 0.288148 0.515840 0.186855
H6    H     H_    0.946103 0.714763 0.505718 0.187543
H7    H     H_    0.217772 0.566114 0.628341 0.135729
H8    H     H_    0.784244 0.441986 0.627897 0.135402
H9    H     H_    0.321798 0.565264 0.624843 0.159506
H10   H     H_    0.680153 0.442300 0.627529 0.162115
H11   H     H_    0.211541 0.428773 0.380006 0.145029
H12   H     H_    0.786259 0.568316 0.372370 0.145277
H13   H     H_    0.568883 0.945707 0.602489 0.144397
H14   H     H_    0.420966 0.055065 0.398976 0.139633
H15   H     H_    0.511959 0.945372 0.348989 0.129641
H16   H     H_    0.476938 0.054229 0.652473 0.143745
N1    N     N_R   0.852115 0.502667 0.499995 -0.346866
N2    N     N_R   0.147734 0.500062 0.505521 -0.346896
N3    N     N_1   0.500020 0.500000 0.268010 -0.080401
N4    N     N_1   0.499980 0.500000 0.731990 -0.092036
O1    O     O_R   0.500000 0.376780 0.574460 -0.611879
O2    O     O_R   0.500000 0.623220 0.425540 -0.609324
O3    O     O_R   0.500010 0.376780 0.425520 -0.608348
O4    O     O_R   0.499990 0.623220 0.574480 -0.610784
O5    O     O_R   0.416150 0.499970 0.574490 -0.618481
O6    O     O_R   0.583850 0.500030 0.425510 -0.602911
O7    O     O_R   0.416160 0.499980 0.425550 -0.603064
O8    O     O_R   0.583840 0.500020 0.574450 -0.617830
O9    O     O_2   0.851779 0.651801 0.507376 -0.573695
O10   O     O_2   0.147905 0.351251 0.519055 -0.576671
O11   O     O_2   0.847812 0.355074 0.488471 -0.594090
O12   O     O_2   0.152102 0.647380 0.489675 -0.589206
Zn1   Zn    Zn3+2 0.499990 0.500000 0.599450 0.967110
Zn2   Zn    Zn3+2 0.500010 0.500000 0.400550 0.990397
C53   C     C_3   0.943582 0.256259 0.513095 -0.348590
C54   C     C_3   0.918424 0.238503 0.606192 -0.298491
C55   C     C_3   0.884926 0.155263 0.607085 -0.863936
H17   H     H_    0.848472 0.158893 0.559569 0.273871
H18   H     H_    0.912909 0.101359 0.588080 0.255853
H19   H     H_    0.868075 0.143393 0.675412 0.244852
H20   H     H_    0.953657 0.234254 0.655954 0.205339
H21   H     H_    0.889833 0.290777 0.627602 0.245252
H22   H     H_    0.912080 0.247340 0.458436 0.244150
H23   H     H_    0.975969 0.206222 0.500026 0.166124
C56   C     C_3   0.055948 0.746748 0.507919 -0.345867
C57   C     C_3   0.079108 0.766635 0.601924 -0.295967
C58   C     C_3   0.109647 0.852318 0.603560 -0.881678
H24   H     H_    0.146520 0.851547 0.557084 0.277140
H25   H     H_    0.080003 0.904026 0.583549 0.258596
H26   H     H_    0.125436 0.865365 0.672374 0.240444
H27   H     H_    0.043090 0.768402 0.650105 0.207280
H28   H     H_    0.109152 0.716650 0.624902 0.245478
H29   H     H_    0.088540 0.754772 0.455001 0.247382
H30   H     H_    0.023729 0.796266 0.491478 0.167822
C59   C     C_3   0.592617 0.399049 0.066911 -0.435924
C60   C     C_3   0.629525 0.363767 0.991204 -0.344734
C61   C     C_3   0.678159 0.309823 0.028354 -0.875278
H31   H     H_    0.705929 0.348715 0.072687 0.261183
H32   H     H_    0.661016 0.255028 0.066929 0.261513
H33   H     H_    0.704222 0.285124 0.972190 0.247662
H34   H     H_    0.603020 0.323917 0.945850 0.221257
H35   H     H_    0.647819 0.417097 0.951596 0.219763
H36   H     H_    0.619122 0.438694 0.112296 0.202171
H37   H     H_    0.574281 0.345750 0.106490 0.204167
C62   C     C_3   0.408383 0.600012 0.934396 -0.440176
C63   C     C_3   0.372756 0.636506 0.011049 -0.337372
C64   C     C_3   0.323435 0.689774 0.975097 -0.874311
H38   H     H_    0.339832 0.743939 0.934774 0.261842
H39   H     H_    0.294900 0.650134 0.932753 0.259705
H40   H     H_    0.298384 0.715377 0.031948 0.251140
H41   H     H_    0.355235 0.583831 0.052479 0.220140
H42   H     H_    0.399990 0.677171 0.054493 0.221711
H43   H     H_    0.425924 0.652655 0.892999 0.203510
H44   H     H_    0.381164 0.559226 0.891086 0.201999
C65   C     C_R   0.323199 0.405056 0.358317 0.138469
C66   C     C_R   0.311443 0.423925 0.268106 -0.149482
C67   C     C_R   0.336581 0.376369 0.199849 -0.150583
C68   C     C_R   0.373830 0.309980 0.220970 -0.121006
C69   C     C_R   0.385306 0.290149 0.310522 -0.114710
C70   C     C_R   0.359765 0.336960 0.379044 -0.090427
H45   H     H_    0.282989 0.475583 0.250689 0.127280
H46   H     H_    0.326983 0.390911 0.130570 0.121768
H47   H     H_    0.393495 0.273581 0.167958 0.122952
H48   H     H_    0.413798 0.238281 0.326881 0.127653
H49   H     H_    0.368538 0.320309 0.448161 0.099473
C71   C     C_R   0.674136 0.590710 0.353215 0.141543
C72   C     C_R   0.680575 0.563994 0.264043 -0.152997
C73   C     C_R   0.652272 0.606826 0.194799 -0.148154
C74   C     C_R   0.617578 0.676566 0.214005 -0.117911
C75   C     C_R   0.611508 0.704175 0.302396 -0.112581
C76   C     C_R   0.639852 0.661755 0.371789 -0.091825
H50   H     H_    0.706874 0.509502 0.248368 0.126287
H51   H     H_    0.657122 0.585912 0.126213 0.127875
H52   H     H_    0.595538 0.709348 0.160360 0.116945
H53   H     H_    0.584763 0.758361 0.317207 0.125998
H54   H     H_    0.634721 0.683710 0.440028 0.105284
C77   C     C_R   0.603305 0.060127 0.446496 0.119748
C78   C     C_R   0.625892 0.043267 0.361351 -0.152412
C79   C     C_R   0.679243 0.075753 0.337380 -0.136663
C80   C     C_R   0.710342 0.125133 0.398095 -0.096366
C81   C     C_R   0.688170 0.142052 0.482966 -0.127004
C82   C     C_R   0.634879 0.109630 0.507199 -0.159821
H55   H     H_    0.602455 0.005354 0.313342 0.116096
H56   H     H_    0.696462 0.062706 0.271647 0.129811
H57   H     H_    0.751597 0.150269 0.379396 0.137773
H58   H     H_    0.712261 0.180323 0.529951 0.142677
H59   H     H_    0.618104 0.123295 0.573134 0.129788
C83   C     C_R   0.384648 0.952214 0.560976 0.108964
C84   C     C_R   0.347396 0.019037 0.582235 -0.160743
C85   C     C_R   0.292592 0.001867 0.613974 -0.127900
C86   C     C_R   0.274453 0.917858 0.624719 -0.110741
C87   C     C_R   0.310968 0.850928 0.603263 -0.125586
C88   C     C_R   0.365848 0.867842 0.571527 -0.151351
H60   H     H_    0.360935 0.084539 0.574544 0.131976
H61   H     H_    0.264250 0.053721 0.630486 0.139537
H62   H     H_    0.232186 0.904651 0.649857 0.130069
H63   H     H_    0.296798 0.785822 0.611457 0.140483
H64   H     H_    0.392956 0.814755 0.555848 0.137254

loop_
_geom_bond_atom_site_label_1
_geom_bond_atom_site_label_2
_ccdc_geom_bond_type
C80   H57   S    
C53   C54   S    
C62   C63   S    
C29   C33   S    
C18   C21   S    
C49   C53   S    
C68   H47   S    
C18   C26   S    
C32   C62   S    
C66   C67   A    
N4    Zn1   S    
C45   C46   A    
C30   H2    S    
C29   C36   S    
C9    C65   S    
C40   N2    A    
C30   C35   S    
C32   C36   S    
C41   N1    A    
C87   C88   A    
C35   C37   S    
C67   C68   A    
C11   H11   S    
C71   C76   A    
C61   H32   S    
C41   O11   S    
C12   H12   S    
C7    C23   S    
C13   N2    S    
C57   H27   S    
C15   H13   S    
C56   C57   S    
C42   N2    A    
C60   C61   S    
C7    C9    A    
C60   H35   S    
C81   H58   S    
C63   C64   S    
C33   C35   S    
C65   C70   A    
C24   O8    A    
C48   C51   A    
C86   C87   A    
C49   C51   A    
C53   H22   S    
C50   C52   A    
C59   C60   S    
C51   H5    S    
C55   H18   S    
C19   C27   T    
C62   H44   S    
C84   H60   S    
C3    C13   A    
C56   H29   S    
O6    Zn2   S    
C33   H4    S    
C64   H39   S    
O5    Zn1   S    
C34   H3    S    
C88   H64   S    
C41   C43   A    
C87   H63   S    
C42   C44   A    
C44   C46   A    
C84   C85   A    
C46   C48   A    
C45   C47   A    
C76   H54   S    
C52   H6    S    
C72   C73   A    
C38   N4    T    
C1    C19   S    
C30   C34   S    
C2    C20   S    
C1    O3    A    
C40   O10   S    
C42   O12   S    
C73   C74   A    
C39   O9    S    
C4    C6    A    
C69   H48   S    
C61   H33   S    
C5    C7    A    
C43   C49   A    
C15   C26   S    
C6    C8    A    
C20   C28   T    
C70   H49   S    
C79   H56   S    
C23   O5    A    
C85   H61   S    
C22   H15   S    
C60   H34   S    
C77   C82   A    
C66   H45   S    
O8    Zn1   S    
N3    Zn2   S    
C9    C11   A    
C72   H50   S    
O3    Zn2   S    
C58   H24   S    
C79   C80   A    
O1    Zn1   S    
C53   H23   S    
C4    H8    S    
C39   N1    A    
C31   C34   S    
C5    H9    S    
C16   C18   S    
C63   H42   S    
C83   C88   A    
O2    Zn2   S    
C55   H19   S    
C43   C45   A    
C59   H36   S    
C10   C12   A    
C74   H52   S    
C56   H30   S    
C24   O6    A    
C58   H25   S    
C12   C14   A    
C78   H55   S    
C37   N3    T    
C21   H16   S    
C14   N1    S    
C31   C35   S    
C16   H14   S    
C69   C70   A    
C2    O4    A    
C39   C47   A    
C85   C86   A    
C64   H40   S    
C44   C50   A    
C16   C25   S    
C40   C48   A    
C21   C25   S    
C54   H20   S    
C50   C56   S    
C16   C22   S    
C78   C79   A    
C31   C59   S    
C75   H53   S    
C17   C77   S    
C3    C5    A    
C2    O2    A    
C73   H51   S    
C64   H38   S    
C15   C17   S    
C47   C52   A    
C25   C27   S    
C26   C28   S    
C17   C22   S    
C1    O1    A    
C83   C84   A    
C6    H10   S    
C36   C38   S    
C68   C69   A    
C55   H17   S    
C17   C25   S    
C82   H59   S    
C29   C31   S    
C77   C78   A    
C32   C33   S    
C30   C32   S    
C11   C13   A    
C29   H1    S    
C57   H28   S    
C8    C24   S    
C86   H62   S    
C34   C36   S    
C63   H41   S    
C4    C14   A    
C59   H37   S    
C18   C83   S    
C71   C72   A    
C67   H46   S    
C15   C21   S    
C58   H26   S    
C54   C55   S    
C8    C10   A    
C57   C58   S    
C22   C26   S    
C61   H31   S    
C54   H21   S    
C75   C76   A    
C80   C81   A    
C10   C71   S    
C23   O7    A    
C81   C82   A    
C74   C75   A    
C62   H43   S    
O4    Zn1   S    
O7    Zn2   S    
C65   C66   A    
C3    H7    S    
