data_mof_unit_59806.cif
_audit_creation_date              2012-12-10T19:14:21-0500
_audit_creation_method            fapswitch 2.2
_symmetry_space_group_name_H-M    P1
_symmetry_Int_Tables_number       1
_space_group_crystal_system       triclinic
_cell_length_a                    10.701362
_cell_length_b                    9.776181
_cell_length_c                    19.224471
_cell_angle_alpha                 89.848659
_cell_angle_beta                  89.172534
_cell_angle_gamma                 88.475623
_cell_volume                      2010.30782123

loop_
_atom_site_label
_atom_site_type_symbol
_atom_type_description
_atom_site_fract_x
_atom_site_fract_y
_atom_site_fract_z
_atom_type_partial_charge
C1    C     C_R   0.257841 0.500860 0.499628 0.895465
C2    C     C_R   0.510882 0.498373 0.069883 0.247387
C3    C     C_R   0.411137 0.564381 0.819034 -0.280251
C4    C     C_R   0.603924 0.428513 0.816572 -0.142054
C5    C     C_R   0.409678 0.566154 0.746492 0.421899
C6    C     C_R   0.605514 0.430357 0.744407 0.314474
C7    C     C_R   0.506957 0.499460 0.709201 -0.213868
C8    C     C_R   0.507908 0.495980 0.854154 -0.055395
C9    C     C_3   0.066698 0.646798 0.501914 -0.523758
C10   C     C_3   0.073840 0.421663 0.564402 -0.426383
C11   C     C_3   0.925874 0.646515 0.493546 0.271695
C12   C     C_3   0.929442 0.429391 0.566796 0.203698
C13   C     C_3   0.076570 0.426123 0.432730 -0.448344
C14   C     C_3   0.121535 0.499507 0.499282 0.068057
C15   C     C_3   0.879168 0.496122 0.498042 -0.012570
C16   C     C_R   0.500649 0.500083 0.365591 0.919712
C17   C     C_3   0.933001 0.415505 0.434430 -0.381230
C18   C     C_3   0.398858 0.084087 0.454703 -0.341902
C19   C     C_3   0.407187 0.923486 0.449245 -0.379035
C20   C     C_3   0.622599 0.078384 0.472981 0.209773
C21   C     C_3   0.624227 0.914965 0.475919 0.271054
C22   C     C_3   0.482224 0.084391 0.570841 0.288002
C23   C     C_3   0.473974 0.921283 0.569848 0.284858
C24   C     C_R   0.742496 0.498461 0.498767 0.884466
C25   C     C_R   0.501901 0.499808 0.633982 0.911279
C26   C     C_R   0.511159 0.623226 0.253398 -0.173830
C27   C     C_R   0.499758 0.375845 0.254031 -0.176531
C28   C     C_R   0.516818 0.624293 0.181300 0.445578
C29   C     C_R   0.501360 0.373405 0.181959 0.446659
C30   C     C_R   0.510753 0.498542 0.145045 -0.163253
C31   C     C_R   0.503456 0.499857 0.289930 -0.238466
C32   C     C_R   0.508914 0.496138 0.930016 0.332057
H1    H     H_    0.515112 0.719724 0.280792 0.189052
H2    H     H_    0.493054 0.279745 0.281877 0.186124
H3    H     H_    0.893219 0.455794 0.385109 0.190375
H4    H     H_    0.906997 0.306354 0.436819 0.210994
H5    H     H_    0.401428 0.130415 0.402015 0.169494
H6    H     H_    0.430339 0.894384 0.394860 0.171981
H7    H     H_    0.306100 0.118063 0.475437 0.186903
H8    H     H_    0.314445 0.879415 0.455220 0.160807
H9    H     H_    0.568435 0.109571 0.599991 0.024616
H10   H     H_    0.554302 0.886936 0.602326 0.051804
H11   H     H_    0.696797 0.111611 0.508739 0.127401
H12   H     H_    0.694175 0.884420 0.515754 0.093104
H13   H     H_    0.336120 0.616039 0.847824 0.165261
H14   H     H_    0.679488 0.375235 0.843111 0.189833
H15   H     H_    0.110553 0.713858 0.462068 0.194523
H16   H     H_    0.108880 0.313418 0.563002 0.212151
H17   H     H_    0.083605 0.687193 0.554408 0.157872
H18   H     H_    0.110860 0.467638 0.612626 0.167401
H19   H     H_    0.883950 0.707180 0.537486 0.117319
H20   H     H_    0.900132 0.497037 0.610925 0.122192
H21   H     H_    0.106267 0.483972 0.385649 0.174253
H22   H     H_    0.119397 0.321362 0.428792 0.187910
N1    N     N_R   0.604938 0.434640 0.033825 -0.142014
N2    N     N_R   0.415930 0.560955 0.035500 -0.144481
N3    N     N_R   0.603923 0.433627 0.964831 -0.171145
N4    N     N_R   0.415084 0.559884 0.966559 -0.164523
N5    N     N_3   0.499750 0.138610 0.498490 -0.108422
N6    N     N_3   0.499750 0.861390 0.498490 -0.130154
O1    O     O_R   0.314910 0.616040 0.499990 -0.620807
O2    O     O_R   0.314910 0.383960 0.499990 -0.607386
O3    O     O_R   0.500100 0.616080 0.398110 -0.599720
O4    O     O_R   0.500100 0.383920 0.398110 -0.608629
O5    O     O_R   0.685320 0.616040 0.499960 -0.588668
O6    O     O_R   0.685320 0.383960 0.499960 -0.577156
O7    O     O_R   0.500130 0.616000 0.601840 -0.554743
O8    O     O_R   0.500130 0.384000 0.601840 -0.598275
Zn1   Zn    Zn3+2 0.500150 0.654960 0.499970 1.002903
Zn2   Zn    Zn3+2 0.500150 0.345040 0.499970 0.999129
O9    O     O_3   0.658511 0.132184 0.407846 -0.705128
H23   H     H_    0.595712 0.109366 0.372888 0.332412
O10   O     O_3   0.668941 0.851501 0.414333 -0.625306
H24   H     H_    0.624582 0.889256 0.373664 0.333564
O11   O     O_3   0.378564 0.152176 0.603844 -0.573738
C33   C     C_3   0.389098 0.150497 0.677265 0.125058
H25   H     H_    0.475865 0.199722 0.694232 0.168167
H26   H     H_    0.390264 0.044500 0.698043 0.168618
C34   C     C_3   0.278232 0.229880 0.709069 -0.818118
H27   H     H_    0.189286 0.182388 0.694602 0.258616
H28   H     H_    0.285641 0.230836 0.766615 0.217660
H29   H     H_    0.276646 0.336805 0.689605 0.269529
O12   O     O_3   0.371862 0.862178 0.607100 -0.537806
C35   C     C_3   0.249956 0.902371 0.586435 0.226559
H30   H     H_    0.220298 0.833230 0.546314 0.137709
H31   H     H_    0.239324 0.005540 0.564723 0.151523
C36   C     C_3   0.158242 0.891016 0.647488 -0.846466
H32   H     H_    0.195858 0.937677 0.694983 0.264978
H33   H     H_    0.068308 0.943718 0.634491 0.205094
H34   H     H_    0.138926 0.782411 0.658627 0.257122
O13   O     O_3   0.529386 0.749927 0.149083 -0.730175
H35   H     H_    0.554338 0.737202 0.099773 0.351410
O14   O     O_3   0.491360 0.247130 0.150533 -0.731808
H36   H     H_    0.471912 0.258604 0.100742 0.351260
O15   O     O_3   0.312428 0.628446 0.711002 -0.752919
H37   H     H_    0.250312 0.665929 0.745162 0.326940
O16   O     O_3   0.705261 0.364735 0.711112 -0.741063
H38   H     H_    0.705725 0.389183 0.661298 0.355366
O17   O     O_3   0.889451 0.712858 0.431490 -0.676623
H39   H     H_    0.943458 0.679077 0.392508 0.346563
O18   O     O_3   0.879729 0.299739 0.580437 -0.747170
H40   H     H_    0.915074 0.233550 0.546005 0.341650

loop_
_geom_bond_atom_site_label_1
_geom_bond_atom_site_label_2
_ccdc_geom_bond_type
C36   H32   S    
O18   H40   S    
C27   C29   A    
O10   H24   S    
O15   H37   S    
C25   O7    A    
C33   C34   S    
C32   N4    A    
C4    C8    A    
C1    O2    A    
O16   H38   S    
C4    H14   S    
C16   C31   S    
O14   H36   S    
C23   H10   S    
C23   O12   S    
O12   C35   S    
C22   O11   S    
C18   H5    S    
C33   H26   S    
C2    N1    A    
C22   H9    S    
C21   O10   S    
O2    Zn2   S    
C11   O17   S    
C18   C19   S    
C18   H7    S    
C5    O15   S    
C11   C15   S    
O3    Zn1   S    
C35   C36   S    
C20   O9    S    
C16   O3    A    
O4    Zn2   S    
C24   O6    A    
C26   C31   A    
C13   C14   S    
C25   O8    A    
C32   N3    A    
C12   H20   S    
C13   H21   S    
C27   H2    S    
C23   N6    S    
C27   C31   A    
C8    C32   S    
C6    O16   S    
C9    H17   S    
C35   H30   S    
C21   N6    S    
C4    C6    A    
C3    C8    A    
C10   C14   S    
O13   H35   S    
C5    C7    A    
C9    C14   S    
C3    H13   S    
O7    Zn1   S    
O11   C33   S    
C29   C30   A    
C19   H6    S    
C21   H12   S    
C26   H1    S    
O17   H39   S    
C12   C15   S    
C33   H25   S    
C20   N5    S    
C9    C11   S    
C10   C12   S    
C24   O5    A    
C15   C24   S    
C17   H4    S    
C9    H15   S    
C36   H33   S    
C10   H16   S    
C10   H18   S    
C22   N5    S    
C20   H11   S    
C34   H28   S    
C13   H22   S    
O1    Zn1   S    
C15   C17   S    
C35   H31   S    
C3    C5    A    
C1    O1    A    
C34   H29   S    
C6    C7    A    
C19   N6    S    
C16   O4    A    
C26   C28   A    
C7    C25   S    
C13   C17   S    
C2    C30   S    
N1    N3    A    
C12   O18   S    
C2    N2    A    
C29   O14   S    
O6    Zn2   S    
N6    Zn1   S    
O5    Zn1   S    
C28   C30   A    
N2    N4    A    
C28   O13   S    
C11   H19   S    
C19   H8    S    
N5    Zn2   S    
C34   H27   S    
C18   N5    S    
O9    H23   S    
C20   C21   S    
O8    Zn2   S    
C36   H34   S    
C22   C23   S    
C1    C14   S    
C17   H3    S    
