data_mof_unit_56292.cif
_audit_creation_date              2012-12-11T16:37:27-0500
_audit_creation_method            fapswitch 2.2
_symmetry_space_group_name_H-M    P1
_symmetry_Int_Tables_number       1
_space_group_crystal_system       triclinic
_cell_length_a                    19.544072
_cell_length_b                    6.939281
_cell_length_c                    17.702169
_cell_angle_alpha                 89.996668
_cell_angle_beta                  109.076776
_cell_angle_gamma                 89.998444
_cell_volume                      2268.95172832

loop_
_atom_site_label
_atom_site_type_symbol
_atom_type_description
_atom_site_fract_x
_atom_site_fract_y
_atom_site_fract_z
_atom_type_partial_charge
O1    O     O_R   0.561710 0.369960 0.440200 -0.538695
O2    O     O_R   0.061710 0.630040 0.940200 -0.536050
O3    O     O_R   0.412630 0.033330 0.406330 -0.540983
O4    O     O_R   0.912630 0.966670 0.906330 -0.542115
O5    O     O_R   0.438290 0.869790 0.559800 -0.540235
O6    O     O_R   0.938290 0.130210 0.059800 -0.540126
C1    C     C_R   0.384603 0.203157 0.383525 0.696082
C2    C     C_R   0.884558 0.796885 0.883588 0.693372
O7    O     O_R   0.559570 0.039810 0.430640 -0.542835
O8    O     O_R   0.059570 0.960190 0.930640 -0.540278
O9    O     O_R   0.586280 0.876320 0.584290 -0.540001
O10   O     O_R   0.086280 0.123680 0.084290 -0.539581
C3    C     C_R   0.580747 0.208715 0.415275 0.688933
C4    C     C_R   0.080854 0.791359 0.915805 0.687738
O11   O     O_R   0.413720 0.363440 0.415710 -0.536891
O12   O     O_R   0.913720 0.636560 0.915710 -0.536860
O13   O     O_3   0.508590 0.205630 0.550380 -0.370939
O14   O     O_3   0.008590 0.794370 0.050380 -0.371942
V1    V     V_3+5 0.498410 0.928130 0.490650 1.379551
V2    V     V_3+5 0.998410 0.071870 0.990650 1.386835
O15   O     O_R   0.587370 0.546990 0.593670 -0.538229
O16   O     O_R   0.087370 0.453010 0.093670 -0.539187
C5    C     C_R   0.615554 0.716814 0.616494 0.691468
C6    C     C_R   0.115616 0.283205 0.116403 0.690870
O17   O     O_R   0.440430 0.540520 0.569360 -0.541910
O18   O     O_R   0.940430 0.459480 0.069360 -0.542082
C7    C     C_R   0.420297 0.708438 0.586399 0.682826
C8    C     C_R   0.920261 0.291399 0.086292 0.682291
V3    V     V_3+5 0.501590 0.428960 0.509350 1.386297
V4    V     V_3+5 0.001590 0.571040 0.009350 1.390059
O19   O     O_3   0.491410 0.701330 0.449620 -0.367933
O20   O     O_3   0.991410 0.298670 0.949620 -0.365738
C9    C     C_R   0.287703 0.904099 0.683890 -0.158460
C10   C     C_R   0.781497 0.101241 0.176047 -0.157814
H1    H     H_    0.261195 0.041016 0.683693 0.105586
H2    H     H_    0.748545 0.972789 0.168865 0.109483
C11   C     C_R   0.333740 0.886822 0.638101 -0.194031
C12   C     C_R   0.829439 0.116871 0.132469 -0.194661
H3    H     H_    0.338462 0.008681 0.602038 0.122789
H4    H     H_    0.831735 0.998973 0.093287 0.123188
C13   C     C_R   0.372639 0.716122 0.637838 -0.073475
C14   C     C_R   0.872289 0.282799 0.137235 -0.072379
C15   C     C_R   0.363295 0.558237 0.685551 0.077922
C16   C     C_R   0.866598 0.435054 0.189406 0.077579
C17   C     C_R   0.313916 0.575979 0.728032 -0.164766
C18   C     C_R   0.818243 0.415192 0.233053 -0.167138
H5    H     H_    0.304708 0.452393 0.760661 0.099558
H6    H     H_    0.815478 0.528323 0.274109 0.100375
C19   C     C_R   0.276603 0.748417 0.729278 0.070802
C20   C     C_R   0.774835 0.250887 0.226470 0.068198
C21   C     C_R   0.237922 0.650028 0.847214 -0.140731
C22   C     C_R   0.686991 0.403059 0.286233 -0.146722
H7    H     H_    0.284538 0.556655 0.868995 0.105173
H8    H     H_    0.693857 0.540695 0.260820 0.100689
C23   C     C_R   0.189686 0.656540 0.890633 -0.162256
C24   C     C_R   0.640982 0.393580 0.332302 -0.165541
H9    H     H_    0.199731 0.566302 0.943103 0.109609
H10   H     H_    0.614563 0.524314 0.341669 0.122670
C25   C     C_R   0.130390 0.782322 0.868203 -0.044279
C26   C     C_R   0.628856 0.217792 0.365279 -0.053845
C27   C     C_R   0.119789 0.900866 0.801108 -0.162438
C28   C     C_R   0.663646 0.051281 0.350462 -0.164426
H11   H     H_    0.074206 0.998957 0.782616 0.113451
H12   H     H_    0.655801 0.913462 0.375155 0.118681
C29   C     C_R   0.166595 0.889578 0.755776 -0.138817
C30   C     C_R   0.710395 0.061155 0.305065 -0.143927
H13   H     H_    0.154672 0.977471 0.702586 0.105282
H14   H     H_    0.737773 0.931111 0.296895 0.097293
C31   C     C_R   0.226621 0.763737 0.778019 0.091059
C32   C     C_R   0.723119 0.237549 0.272683 0.099820
C33   C     C_R   0.768980 0.621309 0.810728 0.107069
C34   C     C_R   0.269584 0.380150 0.310002 0.107271
C35   C     C_R   0.814192 0.782573 0.817894 -0.112334
C36   C     C_R   0.314316 0.217696 0.317716 -0.113168
C37   C     C_R   0.789875 0.928755 0.760403 -0.186862
C38   C     C_R   0.289785 0.071058 0.260522 -0.187057
H15   H     H_    0.822885 0.054915 0.762904 0.136312
H16   H     H_    0.322671 0.944589 0.263243 0.138526
C39   C     C_R   0.725243 0.906740 0.695557 -0.173880
C40   C     C_R   0.225136 0.092922 0.195710 -0.175127
H17   H     H_    0.709970 0.019213 0.650844 0.129407
H18   H     H_    0.209626 0.979830 0.151297 0.129911
C41   C     C_R   0.683162 0.736981 0.685713 -0.110221
C42   C     C_R   0.183319 0.263194 0.185507 -0.111828
C43   C     C_R   0.705201 0.598921 0.746307 0.099625
C44   C     C_R   0.205849 0.402635 0.245459 0.102931
C45   C     C_3   0.718247 0.389190 0.739830 -0.424528
C46   C     C_3   0.220031 0.611189 0.237644 -0.428207
C47   C     C_3   0.787104 0.412741 0.810615 -0.390519
C48   C     C_3   0.288645 0.587705 0.308652 -0.391120
H19   H     H_    0.728545 0.353176 0.683315 0.168297
H20   H     H_    0.230647 0.643600 0.180974 0.166487
H21   H     H_    0.676867 0.298743 0.753313 0.180589
H22   H     H_    0.179147 0.704929 0.250366 0.181814
H23   H     H_    0.837279 0.388016 0.795397 0.173221
H24   H     H_    0.338980 0.609330 0.293410 0.173152
H25   H     H_    0.785086 0.337718 0.865343 0.167314
H26   H     H_    0.286856 0.665490 0.362883 0.168107
C49   C     C_3   0.405355 0.370285 0.696026 -0.356193
C50   C     C_3   0.484600 0.397145 0.748463 -0.281501
C51   C     C_3   0.524652 0.204630 0.764115 -0.757048
H27   H     H_    0.496929 0.101170 0.792286 0.223323
H28   H     H_    0.527256 0.142297 0.707367 0.243776
H29   H     H_    0.580589 0.226762 0.805434 0.203945
H30   H     H_    0.513000 0.496809 0.719616 0.191726
H31   H     H_    0.486484 0.460774 0.806760 0.186143
H32   H     H_    0.381113 0.261526 0.725845 0.165090
H33   H     H_    0.400869 0.304538 0.637677 0.191970
C52   C     C_3   0.911246 0.618956 0.202970 -0.354797
C53   C     C_3   0.990378 0.581479 0.253367 -0.282621
C54   C     C_3   0.033414 0.769162 0.271611 -0.759708
H34   H     H_    0.036855 0.834206 0.215639 0.240367
H35   H     H_    0.007484 0.873487 0.301420 0.222923
H36   H     H_    0.088956 0.739427 0.312486 0.205856
H37   H     H_    0.992270 0.512938 0.310797 0.186926
H38   H     H_    0.016457 0.482119 0.221839 0.189738
H39   H     H_    0.906762 0.691082 0.145744 0.193715
H40   H     H_    0.888969 0.726254 0.235461 0.163978

loop_
_geom_bond_atom_site_label_1
_geom_bond_atom_site_label_2
_ccdc_geom_bond_type
C30   H14   S    
C51   H27   S    
C23   C25   A    
O13   V3    S    
C54   H34   S    
O4    C2    A    
V1    O19   S    
C52   H39   S    
C3    C26   S    
C4    C25   S    
O9    V1    S    
C50   H30   S    
C36   C38   A    
C15   C49   S    
C12   C14   A    
O3    C1    A    
C44   C46   S    
C9    C19   A    
C26   C28   A    
C8    C14   S    
C27   H11   S    
O7    C3    A    
C53   C54   S    
C50   C51   S    
C28   H12   S    
O13   V1    S    
O5    C7    A    
O7    V1    S    
O6    C8    A    
C46   H20   S    
O8    V2    S    
C29   H13   S    
O3    V1    S    
O14   V4    S    
V4    O20   S    
C21   C23   A    
C40   C42   A    
C16   C52   S    
C43   C45   S    
C2    O12   A    
C33   C43   A    
C11   C13   A    
C13   C15   A    
C14   C16   A    
C22   H8    S    
C52   H40   S    
O11   V3    S    
C1    C36   S    
C46   H22   S    
C17   H5    S    
O15   C5    A    
O17   V3    S    
C18   H6    S    
C25   C27   A    
C10   C20   A    
C45   H19   S    
C28   C30   A    
C34   C36   A    
O8    C4    A    
C33   C35   A    
C1    O11   A    
C16   C18   A    
O15   V3    S    
C9    C11   A    
C24   C26   A    
C47   H25   S    
C21   H7    S    
O4    V2    S    
C47   H23   S    
C49   H33   S    
C34   C48   S    
C7    C13   S    
C49   C50   S    
C33   C47   S    
C17   C19   A    
O10   V2    S    
O1    V3    S    
C54   H35   S    
C15   C17   A    
C37   H15   S    
C5    C41   S    
C40   H18   S    
C41   C43   A    
C46   C48   S    
O18   V4    S    
C51   H29   S    
C23   H9    S    
O16   C6    A    
O1    C3    A    
C35   C37   A    
C53   H38   S    
O6    V2    S    
C39   H17   S    
V2    O20   S    
C18   C20   A    
O16   V4    S    
C10   C12   A    
O18   C8    A    
C38   C40   A    
C38   H16   S    
C34   C44   A    
C48   H24   S    
O5    V1    S    
O17   C7    A    
C49   H32   S    
O10   C6    A    
C50   H31   S    
C51   H28   S    
O2    V4    S    
C45   C47   S    
C20   C32   S    
C11   H3    S    
C52   C53   S    
C12   H4    S    
C30   C32   A    
C37   C39   A    
C29   C31   A    
C45   H21   S    
O9    C5    A    
C2    C35   S    
C9    H1    S    
C10   H2    S    
C24   H10   S    
C54   H36   S    
O14   V2    S    
C6    C42   S    
O2    C4    A    
C22   C32   A    
C39   C41   A    
C27   C29   A    
V3    O19   S    
C42   C44   A    
C19   C31   S    
C21   C31   A    
O12   V4    S    
C53   H37   S    
C48   H26   S    
C22   C24   A    
