data_mof_unit_22622.cif
_audit_creation_date              2012-12-11T15:23:30-0500
_audit_creation_method            fapswitch 2.2
_symmetry_space_group_name_H-M    P1
_symmetry_Int_Tables_number       1
_space_group_crystal_system       triclinic
_cell_length_a                    6.933647
_cell_length_b                    17.634655
_cell_length_c                    19.222316
_cell_angle_alpha                 109.576242
_cell_angle_beta                  90.249094
_cell_angle_gamma                 90.65392
_cell_volume                      2214.2734765

loop_
_atom_site_label
_atom_site_type_symbol
_atom_type_description
_atom_site_fract_x
_atom_site_fract_y
_atom_site_fract_z
_atom_type_partial_charge
O1    O     O_R   0.505810 0.439670 0.562310 -0.499723
O2    O     O_R   0.169070 0.404920 0.411210 -0.530825
O3    O     O_R   0.005550 0.560330 0.437690 -0.530082
C1    C     C_R   0.338394 0.381420 0.383125 0.782403
O4    O     O_R   0.175650 0.430000 0.560110 -0.528917
O5    O     O_R   0.012170 0.585580 0.587650 -0.533803
C2    C     C_R   0.344696 0.415869 0.582608 0.821881
O6    O     O_R   0.499180 0.414420 0.412350 -0.541718
O7    O     O_3   0.341430 0.551020 0.508860 -0.387502
V1    V     V_3+5 0.063930 0.490540 0.498360 1.579424
O8    O     O_R   0.682850 0.595080 0.588790 -0.534028
C3    C     C_R   0.852829 0.618678 0.616502 0.773582
O9    O     O_R   0.676280 0.570000 0.439890 -0.554160
C4    C     C_R   0.845096 0.583821 0.417404 0.708953
V2    V     V_3+5 0.564760 0.509460 0.501640 1.552273
O10   O     O_3   0.837130 0.448980 0.491140 -0.355284
C5    C     C_R   0.850618 0.899239 0.202877 0.297121
C6    C     C_R   0.915457 0.864315 0.129746 -0.198602
C7    C     C_R   0.967506 0.782010 0.103214 0.257719
C8    C     C_R   0.952064 0.735647 0.150318 0.070986
C9    C     C_R   0.898112 0.771745 0.225026 -0.052749
C10   C     C_R   0.859735 0.855476 0.253392 -0.060805
C11   C     C_R   0.991810 0.652961 0.123674 -0.095375
C12   C     C_R   0.974883 0.605986 0.168955 -0.159785
C13   C     C_R   0.917672 0.639729 0.243054 0.040532
C14   C     C_R   0.884225 0.723737 0.271522 0.086220
C15   C     C_R   0.837809 0.759875 0.346544 0.097046
C16   C     C_R   0.814079 0.843180 0.375526 -0.210643
C17   C     C_R   0.832891 0.891887 0.331132 -0.045155
C18   C     C_R   0.898934 0.592167 0.289829 -0.057999
C19   C     C_R   0.856640 0.630038 0.365680 -0.132411
C20   C     C_R   0.825095 0.713106 0.392897 -0.215422
H1    H     H_    0.036120 0.623609 0.067131 0.199488
H2    H     H_    0.011108 0.543114 0.145264 0.188199
H3    H     H_    0.792515 0.741560 0.450936 0.120670
H4    H     H_    0.790624 0.870996 0.434343 0.164425
C21   C     C_3   0.825256 0.817599 0.738107 -0.009739
C22   C     C_3   0.993531 0.764952 0.696346 -0.171084
H5    H     H_    0.081521 0.776085 0.652532 0.148138
C23   C     C_3   0.867062 0.689129 0.686768 -0.139048
C24   C     C_3   0.697238 0.741847 0.727261 -0.152347
C25   C     C_3   0.779180 0.737951 0.800698 0.358621
C26   C     C_3   0.944975 0.684766 0.760457 -0.042167
C27   C     C_3   0.072235 0.760554 0.770959 -0.224362
C28   C     C_3   0.903414 0.813505 0.811846 -0.150077
H6    H     H_    0.543276 0.734200 0.709894 0.136054
H7    H     H_    0.225664 0.767941 0.789044 0.171405
C29   C     C_3   0.456927 0.231233 0.305795 0.021063
C30   C     C_3   0.295044 0.183816 0.253191 -0.181152
H8    H     H_    0.221621 0.128808 0.256418 0.168709
C31   C     C_3   0.414569 0.189455 0.187116 -0.085289
C32   C     C_3   0.576650 0.235962 0.239744 -0.188217
C33   C     C_3   0.476483 0.316599 0.246468 -0.173506
C34   C     C_3   0.315206 0.269182 0.193617 0.037675
C35   C     C_3   0.194846 0.264560 0.259654 -0.165503
C36   C     C_3   0.357021 0.310912 0.312497 -0.070644
H9    H     H_    0.732535 0.223364 0.231191 0.130559
H10   H     H_    0.547658 0.372295 0.244278 0.153952
H11   H     H_    0.039013 0.277354 0.268054 0.132543
C37   C     C_R   0.271367 0.123160 0.818870 -0.164533
C38   C     C_R   0.419296 0.137529 0.871921 -0.156043
C39   C     C_R   0.562010 0.197260 0.876226 -0.051445
C40   C     C_R   0.554477 0.241110 0.826292 0.009231
C41   C     C_R   0.403915 0.225895 0.773292 0.072078
C42   C     C_R   0.263555 0.166167 0.769581 0.104062
C43   C     C_R   0.696142 0.298916 0.827341 -0.198891
C44   C     C_R   0.689556 0.342630 0.778743 -0.009377
C45   C     C_R   0.526608 0.333902 0.730996 0.000914
C46   C     C_R   0.391763 0.271055 0.724528 0.028479
C47   C     C_R   0.243178 0.253739 0.670225 0.039559
C48   C     C_R   0.109752 0.191203 0.666087 -0.154871
C49   C     C_R   0.117952 0.149281 0.715864 -0.162855
C50   C     C_R   0.490162 0.388134 0.692373 -0.039822
C51   C     C_R   0.357441 0.366153 0.631948 -0.218193
C52   C     C_R   0.234303 0.297968 0.620616 -0.022020
H12   H     H_    0.163646 0.076726 0.814802 0.148397
H13   H     H_    0.818030 0.308831 0.864664 0.190549
H14   H     H_    0.995992 0.174201 0.624987 0.162113
H15   H     H_    0.010495 0.102820 0.711821 0.158044
O11   O     O_R   0.271890 0.085690 0.087580 -0.535445
O12   O     O_R   0.595690 0.070020 0.939870 -0.538144
O13   O     O_R   0.758900 0.914390 0.912370 -0.523663
C53   C     C_R   0.427052 0.086498 0.919585 0.790881
O14   O     O_R   0.602020 0.095100 0.088770 -0.538128
O15   O     O_R   0.765280 0.939660 0.062330 -0.528630
C54   C     C_R   0.432787 0.118696 0.116749 0.769993
O16   O     O_R   0.265520 0.060430 0.937620 -0.527511
O17   O     O_3   0.429560 0.949050 0.991100 -0.370919
V3    V     V_3+5 0.707160 0.009450 0.001650 1.545267
O18   O     O_R   0.094540 0.929890 0.060190 -0.550204
C55   C     C_R   0.925551 0.914885 0.081608 0.752807
O19   O     O_R   0.088200 0.904800 0.911290 -0.547776
C56   C     C_R   0.918326 0.882530 0.882806 0.696534
V4    V     V_3+5 0.206300 0.990390 0.998440 1.522767
O20   O     O_3   0.934030 0.050940 0.008900 -0.364337
O21   O     O_3   0.770829 0.974718 0.221778 -0.617100
H16   H     H_    0.660049 0.976007 0.254539 0.313235
C57   C     C_2   0.756859 0.892561 0.726146 0.735347
O22   O     O_2   0.838806 0.917635 0.681869 -0.564532
O23   O     O_R   0.599187 0.933322 0.765802 -0.668155
H17   H     H_    0.566400 0.983067 0.753134 0.286675
O24   O     O_3   0.664821 0.724261 0.855176 -0.630458
H18   H     H_    0.752743 0.730531 0.897579 0.300730
C58   C     C_2   0.013720 0.610392 0.772870 0.833736
O25   O     O_2   0.950375 0.591350 0.823973 -0.534477
O26   O     O_R   0.150195 0.563007 0.725404 -0.655478
H19   H     H_    0.176592 0.512061 0.736629 0.295995
C59   C     C_2   0.541183 0.206340 0.366600 0.784245
O27   O     O_2   0.604779 0.138563 0.352328 -0.542035
O28   O     O_R   0.549104 0.260452 0.438771 -0.651532
H20   H     H_    0.607333 0.236008 0.474711 0.321506
C60   C     C_2   0.240061 0.293750 0.131159 0.762301
O29   O     O_2   0.184417 0.362412 0.143412 -0.542224
O30   O     O_R   0.236740 0.238874 0.059263 -0.656381
H21   H     H_    0.185892 0.263168 0.022009 0.323971
O31   O     O_3   0.026760 0.743867 0.031245 -0.630347
H22   H     H_    0.012325 0.779507 0.001438 0.278329
C61   C     C_2   0.713361 0.215638 0.934714 0.775854
O32   O     O_2   0.882629 0.202459 0.917883 -0.570090
O33   O     O_R   0.660476 0.245417 0.008969 -0.648558
H23   H     H_    0.775318 0.254223 0.043750 0.295297
C62   C     C_2   0.866699 0.389423 0.774467 0.814003
O34   O     O_2   0.910291 0.399208 0.716528 -0.552168
O35   O     O_R   0.990009 0.418306 0.835781 -0.639962
H24   H     H_    0.111245 0.444869 0.824985 0.321708
C63   C     C_2   0.549417 0.474080 0.728750 0.777605
O36   O     O_2   0.623593 0.513073 0.693966 -0.538029
O37   O     O_R   0.521256 0.509867 0.804725 -0.654095
H25   H     H_    0.562085 0.568609 0.823718 0.354828
C64   C     C_2   0.093715 0.274663 0.558103 0.784962
O38   O     O_2   0.920478 0.277716 0.570176 -0.551956
O39   O     O_R   0.160201 0.251636 0.485579 -0.656846
H26   H     H_    0.051312 0.238423 0.447849 0.300972
C65   C     C_2   0.911394 0.502954 0.258893 0.745454
O40   O     O_2   0.017089 0.466700 0.287597 -0.556174
O41   O     O_R   0.800257 0.460546 0.196872 -0.652510
H27   H     H_    0.821249 0.400345 0.180448 0.310315
C66   C     C_2   0.848659 0.980055 0.370511 0.840671
O42   O     O_2   0.965384 0.020853 0.350463 -0.521577
O43   O     O_R   0.737196 0.015726 0.433213 -0.652292
H28   H     H_    0.764878 0.075536 0.456624 0.318856

loop_
_geom_bond_atom_site_label_1
_geom_bond_atom_site_label_2
_ccdc_geom_bond_type
C53   O16   A    
C35   C36   S    
V3    O20   S    
C63   O36   D    
C10   C17   A    
C35   H11   S    
C24   C25   S    
C64   O39   S    
C7    C8    A    
C4    C19   S    
C1    O6    A    
C28   C56   S    
O37   H25   S    
C58   O26   S    
O30   H21   S    
O15   C55   A    
C33   C34   S    
O31   H22   S    
C17   C66   S    
C14   C15   A    
C21   C22   S    
O13   V3    S    
C6    C55   S    
C16   C17   A    
O14   C54   A    
C49   H15   S    
C46   C47   A    
O5    C3    A    
C22   H5    S    
O26   H19   S    
V2    O10   S    
O16   V4    S    
C59   O27   D    
C6    C7    A    
C50   C51   A    
O28   H20   S    
C21   C57   S    
O11   C54   A    
O24   H18   S    
C26   C58   S    
O8    V2    S    
C23   C26   S    
C45   C46   A    
C30   C31   S    
C24   H6    S    
C47   C48   A    
O1    V2    S    
O7    V1    S    
C52   C64   S    
O12   V3    S    
O17   V3    S    
C43   C44   A    
C40   C43   A    
O13   C56   A    
O9    C4    A    
C61   O32   D    
C21   C24   S    
V4    O20   S    
C25   O24   S    
C31   C54   S    
C60   O30   S    
C58   O25   D    
O12   C53   A    
C9    C14   A    
O18   V4    S    
C2    C51   S    
O17   V4    S    
C51   C52   A    
C31   C32   S    
C20   H3    S    
O43   H28   S    
C11   H1    S    
C38   C53   S    
O4    C2    A    
O15   V3    S    
O39   H26   S    
C65   O41   S    
C18   C65   S    
C13   C14   A    
C30   C35   S    
C37   H12   S    
C12   H2    S    
C44   C45   A    
C37   C38   A    
C25   C28   S    
C3    C23   S    
O2    C1    A    
C26   C27   S    
C22   C27   S    
C39   C40   A    
C19   C20   A    
C8    C11   A    
C29   C32   S    
C18   C19   A    
C11   C12   A    
O21   H16   S    
O19   V4    S    
C5    C6    A    
C34   C60   S    
C5    O21   S    
C41   C46   A    
C12   C13   A    
O3    C4    A    
C66   O43   S    
C23   C24   S    
C37   C42   A    
C57   O22   D    
O6    V2    S    
C57   O23   S    
O9    V2    S    
O14   V3    S    
C21   C28   S    
C32   H9    S    
O2    V1    S    
C44   C62   S    
C47   C52   A    
C62   O35   S    
C32   C33   S    
C33   C36   S    
C13   C18   A    
C29   C36   S    
C43   H13   S    
C34   C35   S    
C29   C30   S    
C63   O37   S    
C15   C20   A    
O1    C2    A    
C27   C28   S    
O41   H27   S    
O5    V1    S    
C33   H10   S    
C27   H7    S    
C65   O40   D    
C42   C49   A    
C5    C10   A    
C31   C34   S    
C41   C42   A    
C64   O38   D    
C45   C50   A    
O4    V1    S    
O3    V1    S    
V1    O10   S    
C22   C23   S    
O18   C55   A    
C29   C59   S    
C7    O31   S    
O19   C56   A    
C59   O28   S    
C60   O29   D    
O7    V2    S    
C38   C39   A    
C61   O33   S    
C39   C61   S    
C66   O42   D    
C40   C41   A    
C48   C49   A    
C8    C9    A    
C16   H4    S    
C30   H8    S    
C25   C26   S    
C15   C16   A    
O33   H23   S    
O23   H17   S    
C62   O34   D    
C9    C10   A    
O11   V4    S    
C48   H14   S    
C1    C36   S    
C50   C63   S    
O8    C3    A    
O35   H24   S    
