data_mof_unit_9875.cif
_audit_creation_date              2013-03-05T16:48:44-0500
_audit_creation_method            fapswitch 2.2
_symmetry_space_group_name_H-M    P1
_symmetry_Int_Tables_number       1
_space_group_crystal_system       triclinic
_cell_length_a                    27.796151
_cell_length_b                    8.94687
_cell_length_c                    8.090082
_cell_angle_alpha                 89.734754
_cell_angle_beta                  90.053887
_cell_angle_gamma                 90.047233
_cell_volume                      2011.88763256

loop_
_atom_site_label
_atom_site_type_symbol
_atom_site_description
_atom_site_fract_x
_atom_site_fract_y
_atom_site_fract_z
_atom_type_partial_charge
O1    O     O_R   0.500000 0.285350 0.636850 -0.597900
O2    O     O_R   0.500000 0.714650 0.363150 -0.611024
O3    O     O_R   0.500000 0.714650 0.636850 -0.596966
O4    O     O_R   0.500000 0.285350 0.363150 -0.609251
C1    C     C_R   0.499996 0.217923 0.500259 1.014132
C2    C     C_R   0.500145 0.782075 0.499746 1.008515
O5    O     O_R   0.428760 0.500000 0.636860 -0.584776
O6    O     O_R   0.571240 0.500000 0.363140 -0.596015
O7    O     O_R   0.571240 0.500000 0.636860 -0.593901
O8    O     O_R   0.428760 0.500000 0.363140 -0.594559
C3    C     C_R   0.405895 0.500051 0.499929 1.012785
C4    C     C_R   0.594066 0.499383 0.500120 1.015589
Zn1   Zn    Zn3+2 0.500000 0.500000 0.682780 1.141296
Zn2   Zn    Zn3+2 0.500000 0.500000 0.317220 1.133236
C5    C     C_R   0.178120 0.457854 0.637497 0.534513
C6    C     C_R   0.822720 0.513719 0.349866 0.530836
C7    C     C_R   0.177956 0.537927 0.355797 0.537243
C8    C     C_R   0.822943 0.453518 0.637381 0.527918
O9    O     O_2   0.203207 0.420070 0.774424 -0.508289
O10   O     O_2   0.798041 0.537136 0.208265 -0.507121
O11   O     O_2   0.202882 0.578617 0.219654 -0.510139
O12   O     O_2   0.798545 0.430598 0.779524 -0.513363
N1    N     N_R   0.201873 0.499208 0.496991 -0.342748
N2    N     N_R   0.798644 0.484596 0.494019 -0.337525
C9    C     C_R   0.277727 0.616155 0.573870 -0.155989
C10   C     C_R   0.721143 0.365472 0.554817 -0.140739
C11   C     C_R   0.277907 0.383882 0.421713 -0.161840
C12   C     C_R   0.722763 0.615017 0.438272 -0.159968
C13   C     C_R   0.327848 0.618369 0.575153 0.293139
C14   C     C_R   0.671096 0.369340 0.561786 0.284001
C15   C     C_R   0.327980 0.381353 0.423067 0.322096
C16   C     C_R   0.672682 0.619478 0.436912 0.313591
C17   C     C_R   0.253081 0.500045 0.497158 0.186870
C18   C     C_R   0.747072 0.488200 0.495317 0.173414
C19   C     C_R   0.102139 0.493000 0.495333 -0.046598
C20   C     C_R   0.898732 0.483184 0.493056 -0.046204
C21   C     C_R   0.127824 0.453647 0.639235 -0.034540
C22   C     C_R   0.873037 0.518295 0.348152 -0.032226
C23   C     C_R   0.127644 0.535859 0.352380 -0.034743
C24   C     C_R   0.873229 0.447458 0.638043 -0.029616
C25   C     C_R   0.103000 0.410292 0.781082 -0.138101
C26   C     C_R   0.897878 0.557658 0.204915 -0.140072
C27   C     C_R   0.102620 0.575895 0.209645 -0.138287
C28   C     C_R   0.898239 0.407137 0.780708 -0.140589
C29   C     C_R   0.353385 0.499836 0.499615 -0.282603
C30   C     C_R   0.646520 0.496344 0.500277 -0.284001
H1    H     H_    0.257704 0.294722 0.364033 0.189367
H2    H     H_    0.743316 0.710036 0.394650 0.190751
H3    H     H_    0.257388 0.705251 0.630840 0.192893
H4    H     H_    0.740389 0.266955 0.595966 0.200522
H5    H     H_    0.122016 0.378726 0.892894 0.197392
H6    H     H_    0.878845 0.587376 0.092587 0.199126
H7    H     H_    0.121483 0.610079 0.098542 0.197048
H8    H     H_    0.879343 0.375936 0.892743 0.198392
C31   C     C_R   0.975028 0.444435 0.639734 0.046114
C32   C     C_R   0.025861 0.529713 0.347891 0.045410
C33   C     C_R   0.974841 0.525724 0.346847 0.046155
C34   C     C_R   0.026055 0.446081 0.640065 0.045451
C35   C     C_R   0.949775 0.484303 0.493158 0.077634
C36   C     C_R   0.051117 0.489525 0.494403 0.078081
C37   C     C_R   0.948048 0.404362 0.781592 -0.229527
C38   C     C_R   0.052803 0.573248 0.207104 -0.227907
C39   C     C_R   0.947686 0.562304 0.204111 -0.229248
C40   C     C_R   0.053195 0.406290 0.781859 -0.227809
H9    H     H_    0.963990 0.370608 0.896907 0.146854
H10   H     H_    0.036815 0.607084 0.091856 0.147206
H11   H     H_    0.963496 0.595131 0.088325 0.146627
H12   H     H_    0.037387 0.370907 0.896766 0.146940
C41   C     C_1   0.500040 0.065116 0.500379 0.001063
C42   C     C_1   0.500112 0.934857 0.499636 -0.004289
N3    N     N_1   0.500000 0.500000 0.073640 0.016077
N4    N     N_1   0.500000 0.500000 0.926360 0.022824
S1    S     S_3+6 0.357248 0.224410 0.336323 0.091885
O13   O     O_2   0.383860 0.271317 0.183039 -0.221243
O14   O     O_2   0.392512 0.161987 0.459122 -0.300564
O15   O     O_3   0.317390 0.090504 0.285769 -0.479320
H13   H     H_    0.307340 0.045614 0.392460 0.383058
S2    S     S_3+6 0.643935 0.782829 0.362106 0.096680
O16   O     O_2   0.615215 0.745739 0.210295 -0.224385
O17   O     O_2   0.610504 0.840264 0.492822 -0.280742
O18   O     O_3   0.684138 0.916419 0.312683 -0.472902
H14   H     H_    0.698726 0.946749 0.419022 0.374922
S3    S     S_3+6 0.357145 0.774461 0.664510 0.073724
O19   O     O_2   0.391833 0.838788 0.541193 -0.271064
O20   O     O_2   0.321496 0.893244 0.711331 -0.258454
O21   O     O_3   0.387679 0.721152 0.834284 -0.485951
H15   H     H_    0.362988 0.678890 0.909460 0.371655
S4    S     S_3+6 0.640344 0.210603 0.639743 0.074038
O22   O     O_2   0.607902 0.152658 0.506267 -0.259482
O23   O     O_2   0.674991 0.089643 0.689783 -0.262334
O24   O     O_3   0.606905 0.257010 0.804740 -0.491272
H16   H     H_    0.629726 0.305118 0.882159 0.369120

loop_
_geom_bond_atom_site_label_1
_geom_bond_atom_site_label_2
_geom_bond_distance
_ccdc_geom_bond_type
C31   C35   1.421632 A    
Zn2   N3    1.970582 S    
C20   C35   1.418809 A    
O18   H14   0.989691 S    
C11   C17   1.391672 A    
O5    C3    1.276632 A    
C7    N1    1.364558 A    
C8    N2    1.369115 A    
C40   H12   1.074838 S    
C19   C21   1.408565 A    
C13   S3    1.772694 S    
C10   H4    1.082419 S    
C7    C23   1.398828 A    
S2    O17   1.501187 D    
C15   S1    1.771456 S    
C34   C36   1.421941 A    
O7    Zn1   2.015085 S    
C32   C33   1.418597 A    
S1    O13   1.502506 D    
C8    C24   1.398871 A    
C5    C21   1.398610 A    
C1    C41   1.367146 S    
C5    O9    1.350231 S    
C27   H7    1.083720 S    
N1    C17   1.423401 S    
C24   C28   1.393041 A    
O3    Zn1   1.954372 S    
O6    C4    1.276438 A    
O3    C2    1.260165 A    
C5    N1    1.364547 A    
C12   C18   1.397409 A    
C6    N2    1.368996 A    
C34   C40   1.416601 A    
S1    O14   1.501189 D    
O2    C2    1.261448 A    
C10   C18   1.396893 A    
C33   C39   1.416174 A    
C9    H3    1.082628 S    
C9    C13   1.393322 A    
C39   H11   1.074634 S    
C38   H10   1.074838 S    
C11   C15   1.392043 A    
C20   C24   1.406500 A    
O15   H13   0.990666 S    
C4    C30   1.458297 S    
O8    Zn2   2.015087 S    
O24   H16   0.990576 S    
O21   H15   0.991016 S    
C23   C27   1.393059 A    
N2    C18   1.433950 S    
C32   C36   1.421958 A    
C13   C29   1.417764 A    
C19   C36   1.418519 A    
C19   C23   1.408595 A    
C37   H9    1.074580 S    
S3    O19   1.500579 D    
S4    O24   1.681132 S    
C12   C16   1.392673 A    
C6    O10   1.350299 S    
C9    C17   1.391979 A    
S3    O20   1.503652 D    
S4    O23   1.503150 D    
C10   C14   1.392755 A    
S1    O15   1.682706 S    
C32   C38   1.416636 A    
C3    C29   1.459570 S    
O1    Zn1   1.957751 S    
C14   S4    1.770906 S    
O1    C1    1.261423 A    
C11   H1    1.082435 S    
C2    C42   1.366927 S    
C12   H2    1.081868 S    
O6    Zn2   2.014398 S    
C8    O12   1.350336 S    
C16   C30   1.414008 A    
C14   C30   1.414507 A    
O4    C1    1.260196 A    
C22   C26   1.393174 A    
Zn1   N4    1.970582 S    
C28   C37   1.384769 A    
C20   C22   1.406582 A    
N3    N4    1.191506 T    
O4    Zn2   1.954373 S    
S2    O16   1.502422 D    
S2    O18   1.682683 S    
C31   C37   1.416117 A    
C21   C25   1.392977 A    
C41   C42   1.165453 T    
O2    Zn2   1.957750 S    
O7    C4    1.275828 A    
C7    O11   1.350187 S    
C33   C35   1.421586 A    
O8    C3    1.276676 A    
C16   S2    1.770178 S    
C28   H8    1.083334 S    
O5    Zn1   2.014401 S    
S3    O21   1.681274 S    
S4    O22   1.500182 D    
C15   C29   1.417727 A    
C31   C34   1.418419 A    
C6    C22   1.399247 A    
C25   C40   1.384829 A    
C26   C39   1.385084 A    
C25   H5    1.083693 S    
C27   C38   1.385033 A    
C26   H6    1.083274 S    
