data_mof_unit_47858.cif
_audit_creation_date              2012-12-11T15:59:33-0500
_audit_creation_method            fapswitch 2.2
_symmetry_space_group_name_H-M    P1
_symmetry_Int_Tables_number       1
_space_group_crystal_system       triclinic
_cell_length_a                    10.747969
_cell_length_b                    10.768255
_cell_length_c                    17.036529
_cell_angle_alpha                 99.376423
_cell_angle_beta                  99.261273
_cell_angle_gamma                 61.793293
_cell_volume                      1706.38298617

loop_
_atom_site_label
_atom_site_type_symbol
_atom_type_description
_atom_site_fract_x
_atom_site_fract_y
_atom_site_fract_z
_atom_type_partial_charge
C1    C     C_R   0.355231 0.778581 0.402385 0.556221
C2    C     C_R   0.815389 0.233835 0.193924 0.003414
C3    C     C_R   0.827476 0.219631 0.275846 0.012816
C4    C     C_R   0.911564 0.397039 0.309452 -0.142851
C5    C     C_R   0.922890 0.392819 0.229660 -0.145181
C6    C     C_R   0.758153 0.157484 0.137748 -0.088569
C7    C     C_R   0.732706 0.054749 0.161702 -0.102744
C8    C     C_R   0.763172 0.027768 0.241281 -0.119034
C9    C     C_R   0.811051 0.107985 0.297893 -0.079877
C10   C     C_R   0.853622 0.319314 0.332688 0.000003
C11   C     C_R   0.315630 0.864372 0.170029 0.008482
C12   C     C_R   0.370710 0.346771 0.357691 0.565565
C13   C     C_R   0.450407 0.816192 0.213012 -0.017351
C14   C     C_R   0.459774 0.829959 0.297515 0.024036
C15   C     C_R   0.205721 0.905155 0.291107 -0.153163
C16   C     C_R   0.194108 0.913022 0.210565 -0.144575
C17   C     C_R   0.575224 0.755129 0.174052 -0.111897
C18   C     C_R   0.706053 0.718187 0.217919 -0.182643
C19   C     C_R   0.714193 0.748520 0.300570 -0.120080
C20   C     C_R   0.591366 0.813643 0.340417 0.284067
C21   C     C_R   0.338431 0.853452 0.334091 0.036351
C22   C     C_R   0.340409 0.338665 0.823098 -0.037339
C23   C     C_R   0.780559 0.373439 0.405386 0.544438
C24   C     C_R   0.454472 0.236128 0.781492 -0.078747
C25   C     C_R   0.431622 0.210004 0.698857 -0.055998
C26   C     C_R   0.217433 0.435684 0.697211 0.206668
C27   C     C_R   0.230959 0.448126 0.781798 0.206326
C28   C     C_R   0.580136 0.141988 0.821821 -0.048835
C29   C     C_R   0.645378 0.002103 0.789964 0.275850
C30   C     C_R   0.614480 0.966438 0.709080 -0.086825
C31   C     C_R   0.513023 0.072216 0.662602 -0.106975
C32   C     C_R   0.326218 0.321119 0.655810 -0.041164
C33   C     C_1   0.816616 0.342593 0.709123 0.013548
C34   C     C_R   0.358024 0.769859 0.627173 0.541808
C35   C     C_1   0.844199 0.313819 0.776826 -0.004416
C36   C     C_1   0.338852 0.811321 0.709211 -0.004302
C37   C     C_1   0.312871 0.839324 0.777363 0.028099
C38   C     C_R   0.898540 0.307179 0.089983 0.523351
C39   C     C_R   0.318508 0.298678 0.119996 0.544260
C40   C     C_R   0.290352 0.896620 0.087498 0.539412
C41   C     C_R   0.886359 0.297071 0.859147 0.541104
C42   C     C_R   0.310131 0.295024 0.893745 0.552113
C43   C     C_R   0.278539 0.885579 0.857178 0.592598
C44   C     C_R   0.366863 0.345339 0.583001 0.581055
C45   C     C_R   0.772183 0.381471 0.629887 0.569976
C46   C     C_1   0.343766 0.335732 0.274283 -0.033823
C47   C     C_1   0.331512 0.325617 0.203370 -0.032422
C48   C     C_R   0.865909 0.320240 0.171046 0.009593
Cr1   Cr    Cr6+3 0.608100 0.610860 0.522250 1.150412
Cr2   Cr    Cr6+3 0.288890 0.599990 0.488420 1.077842
Cr3   Cr    Cr6+3 0.603040 0.289190 0.489390 1.109188
Cr4   Cr    Cr6+3 0.053960 0.052250 0.967380 1.100289
Cr5   Cr    Cr6+3 0.059890 0.373160 0.992710 1.084368
Cr6   Cr    Cr6+3 0.373370 0.061690 0.991710 1.064129
H1    H     H_    0.941535 0.466464 0.352545 0.153708
H2    H     H_    0.800476 0.675167 0.187062 0.129824
H3    H     H_    0.608417 0.168895 0.883976 0.154438
H4    H     H_    0.664830 0.857780 0.682761 0.197632
H5    H     H_    0.975366 0.448659 0.213975 0.139334
H6    H     H_    0.692683 0.993651 0.118272 0.146402
H7    H     H_    0.748562 0.945689 0.259685 0.146145
H8    H     H_    0.111659 0.929793 0.318748 0.133684
H9    H     H_    0.573099 0.733324 0.109711 0.142926
O1    O     O_R   0.749810 0.499790 0.438040 -0.469297
O2    O     O_R   0.298970 0.468800 0.557390 -0.437835
O3    O     O_R   0.489400 0.255930 0.561910 -0.469437
O4    O     O_R   0.723890 0.306050 0.584610 -0.512159
O5    O     O_3   0.500010 0.500010 0.500020 -0.302427
O6    O     O_R   0.171100 0.914680 0.053100 -0.521879
O7    O     O_R   0.941680 0.184840 0.050710 -0.510839
O8    O     O_R   0.922080 0.403420 0.072610 -0.529703
O9    O     O_R   0.196880 0.369150 0.083850 -0.508789
O10   O     O_R   0.411730 0.181020 0.091530 -0.511122
O11   O     O_R   0.365010 0.944360 0.063320 -0.501226
O12   O     O_R   0.477660 0.726260 0.439290 -0.449856
O13   O     O_R   0.159380 0.906670 0.876210 -0.417779
O14   O     O_R   0.930820 0.177420 0.886730 -0.495993
O15   O     O_R   0.910360 0.395420 0.895720 -0.455075
O16   O     O_R   0.186010 0.361730 0.919870 -0.445651
O17   O     O_R   0.400000 0.173010 0.914630 -0.487705
O18   O     O_R   0.354140 0.936940 0.899340 -0.470478
O19   O     O_3   0.162410 0.162370 0.983930 -0.286945
O20   O     O_R   0.260150 0.743000 0.412270 -0.536517
O21   O     O_R   0.297740 0.466550 0.394720 -0.512982
O22   O     O_R   0.488080 0.253500 0.386430 -0.421808
O23   O     O_R   0.722670 0.303800 0.421940 -0.511540
O24   O     O_R   0.751130 0.502220 0.613520 -0.418234
O25   O     O_R   0.478890 0.728510 0.601960 -0.495496
O26   O     O_R   0.261470 0.745430 0.587750 -0.464562
H10   H     H_    0.815481 0.731963 0.332654 0.111468
S1    S     S_3+6 0.600827 0.909866 0.434246 0.001117
O27   O     O_2   0.454431 0.019403 0.453250 -0.297186
O28   O     O_2   0.669219 0.812299 0.499319 -0.306598
O29   O     O_3   0.699596 0.991579 0.430746 -0.520784
H11   H     H_    0.798792 0.921435 0.444974 0.312126
S2    S     S_3+6 0.054588 0.543120 0.643035 0.073071
O30   O     O_2   0.033497 0.461684 0.565966 -0.305932
O31   O     O_2   0.934309 0.585083 0.692141 -0.204498
O32   O     O_3   0.054264 0.690666 0.622612 -0.465464
H12   H     H_    0.959119 0.745237 0.594860 0.358801
S3    S     S_3+6 0.132661 0.607618 0.838728 0.100631
O33   O     O_2   0.072623 0.730592 0.789553 -0.168925
O34   O     O_2   0.015030 0.596630 0.868641 -0.186051
O35   O     O_3   0.239256 0.630472 0.917362 -0.556696
H13   H     H_    0.178259 0.676182 0.961899 0.369824
S4    S     S_3+6 0.732399 0.874228 0.857362 0.044478
O36   O     O_2   0.756653 0.731969 0.815232 -0.219252
O37   O     O_2   0.868667 0.877347 0.891551 -0.244258
O38   O     O_3   0.633453 0.912211 0.933066 -0.517228
H14   H     H_    0.690837 0.836507 0.968819 0.335934
H15   H     H_    0.489363 0.043342 0.600575 0.218768
H16   H     H_    0.733277 0.175792 0.075278 0.142433
H17   H     H_    0.839633 0.078597 0.358314 0.155652
H18   H     H_    0.088163 0.955915 0.179846 0.161240

loop_
_geom_bond_atom_site_label_1
_geom_bond_atom_site_label_2
_ccdc_geom_bond_type
C25   C31   A    
C38   O7    A    
C1    C21   S    
S3    O33   D    
Cr1   O5    S    
C33   C45   S    
Cr1   O24   S    
C44   O3    A    
C19   C20   A    
Cr6   O19   S    
Cr3   O22   S    
Cr2   O21   S    
C7    C8    A    
C22   C42   S    
C28   H3    S    
C26   C32   A    
C26   C27   A    
C12   O22   A    
C14   C21   A    
C36   C37   T    
Cr5   O16   S    
C41   O14   A    
C42   O17   A    
S4    O36   D    
C15   C16   A    
S2    O32   S    
C12   O21   A    
C18   C19   A    
Cr4   O6    S    
Cr6   O11   S    
C8    C9    A    
C23   O23   A    
S2    O31   D    
C45   O4    A    
C39   O9    A    
Cr1   O12   S    
C38   C48   S    
C18   H2    S    
C8    H7    S    
C25   C32   A    
C42   O16   A    
S3    O34   D    
Cr1   O1    S    
C13   C14   A    
Cr1   O25   S    
C44   O2    A    
C2    C6    A    
Cr3   O23   S    
O35   H13   S    
C20   S1    S    
Cr2   O20   S    
Cr6   O17   S    
C26   S2    S    
C5    C48   A    
C40   O6    A    
C5    H5    S    
C1    O12   A    
C14   C20   A    
C24   C25   A    
C12   C46   S    
S1    O27   D    
C34   O25   A    
C2    C48   A    
C27   S3    S    
Cr5   O19   S    
Cr3   O3    S    
C37   C43   S    
C29   C30   A    
C3    C9    A    
S1    O28   D    
Cr6   O10   S    
C11   C16   A    
Cr2   O26   S    
O32   H12   S    
S2    O30   D    
C17   C18   A    
C32   C44   S    
O29   H11   S    
Cr3   O4    S    
Cr4   O19   S    
C23   O1    A    
S3    O35   S    
C22   C27   A    
C4    H1    S    
C43   O18   A    
C22   C24   A    
C29   S4    S    
C4    C10   A    
Cr4   O14   S    
Cr5   O8    S    
C7    H6    S    
C41   O15   A    
C39   C47   S    
C43   O13   A    
C46   C47   T    
C28   C29   A    
C45   O24   A    
C6    H16   S    
C24   C28   A    
C4    C5    A    
Cr4   O13   S    
C16   H18   S    
C6    C7    A    
C10   C23   S    
C1    O20   A    
C13   C17   A    
C9    H17   S    
C2    C3    A    
C34   O26   A    
C3    C10   A    
O38   H14   S    
C17   H9    S    
S1    O29   S    
C11   C13   A    
C30   C31   A    
S4    O37   D    
C30   H4    S    
C33   C35   T    
C15   H8    S    
C40   O11   A    
Cr5   O15   S    
C34   C36   S    
Cr3   O5    S    
C39   O10   A    
C11   C40   S    
C35   C41   S    
Cr2   O2    S    
Cr4   O7    S    
C15   C21   A    
C19   H10   S    
C31   H15   S    
Cr5   O9    S    
Cr2   O5    S    
Cr6   O18   S    
C38   O8    A    
S4    O38   S    
