data_mof_unit_31730.cif
_audit_creation_date              2012-12-10T17:28:33-0500
_audit_creation_method            fapswitch 2.2
_symmetry_space_group_name_H-M    P1
_symmetry_Int_Tables_number       1
_space_group_crystal_system       triclinic
_cell_length_a                    10.642241
_cell_length_b                    11.952944
_cell_length_c                    12.945282
_cell_angle_alpha                 93.332339
_cell_angle_beta                  91.2303
_cell_angle_gamma                 86.630157
_cell_volume                      1640.82280535

loop_
_atom_site_label
_atom_site_type_symbol
_atom_type_description
_atom_site_fract_x
_atom_site_fract_y
_atom_site_fract_z
_atom_type_partial_charge
C1    C     C_R   0.504542 0.522009 0.699950 0.923402
C2    C     C_R   0.500125 0.478810 0.299594 0.926749
C3    C     C_R   0.506643 0.469331 0.188505 -0.136206
C4    C     C_R   0.509615 0.536344 0.810630 -0.128370
C5    C     C_R   0.424865 0.635931 0.961105 -0.143857
C6    C     C_R   0.601391 0.374317 0.038954 -0.151841
C7    C     C_R   0.440781 0.627991 0.856223 -0.201591
C8    C     C_R   0.577279 0.378446 0.143189 -0.144132
C9    C     C_R   0.571230 0.453932 0.870278 -0.070683
C10   C     C_R   0.455637 0.557363 0.128929 -0.122525
C11   C     C_R   0.550601 0.459065 0.976990 0.085671
C12   C     C_R   0.476747 0.551327 0.022675 0.081696
C13   C     C_R   0.351261 0.956911 0.437910 -0.248444
C14   C     C_R   0.647883 0.043029 0.564618 -0.261523
C15   C     C_R   0.369945 0.840111 0.438480 0.124838
C16   C     C_R   0.630606 0.159895 0.560965 0.077198
C17   C     C_R   0.568082 0.856734 0.523756 0.015056
C18   C     C_R   0.429661 0.142977 0.481106 0.025328
C19   C     C_R   0.554575 0.974632 0.523219 0.099873
C20   C     C_R   0.444076 0.025141 0.480421 0.079144
C21   C     C_R   0.736123 0.497939 0.478877 0.911732
C22   C     C_R   0.258164 0.498935 0.495238 0.889054
C23   C     C_R   0.882005 0.294119 0.391299 -0.208190
C24   C     C_R   0.085053 0.696703 0.544655 -0.204676
C25   C     C_R   0.956392 0.196650 0.364800 0.016081
C26   C     C_R   0.017774 0.800022 0.533698 0.000576
C27   C     C_R   0.085821 0.205005 0.356057 -0.247163
C28   C     C_R   0.911769 0.803626 0.467680 -0.285462
C29   C     C_R   0.139450 0.308893 0.373661 -0.054069
C30   C     C_R   0.866676 0.704225 0.421687 -0.036256
C31   C     C_R   0.069186 0.399615 0.425105 0.056216
C32   C     C_R   0.925343 0.599724 0.448414 0.058357
C33   C     C_R   0.937370 0.395786 0.423147 0.076666
C34   C     C_R   0.046298 0.597584 0.490726 0.050554
C35   C     C_R   0.123046 0.496942 0.474121 -0.159796
C36   C     C_R   0.865521 0.497200 0.444159 -0.158243
H1    H     H_    0.864916 0.883680 0.451462 0.216397
H2    H     H_    0.141340 0.135097 0.320097 0.201577
H3    H     H_    0.619125 0.312780 0.189474 0.185959
H4    H     H_    0.393896 0.691385 0.810047 0.185003
H5    H     H_    0.367496 0.707189 0.992205 0.173664
H6    H     H_    0.660659 0.304237 0.008378 0.186994
H7    H     H_    0.344587 0.182861 0.450637 0.145398
H8    H     H_    0.650595 0.816307 0.558987 0.123367
H9    H     H_    0.703958 0.212404 0.590746 0.161700
H10   H     H_    0.297446 0.787630 0.407241 0.134773
N1    N     N_R   0.523130 0.207800 0.519340 -0.113897
N2    N     N_R   0.476870 0.792200 0.480660 -0.106045
O1    O     O_R   0.506170 0.421700 0.658830 -0.600350
O2    O     O_R   0.493830 0.578300 0.341170 -0.606408
O3    O     O_R   0.491330 0.609310 0.646410 -0.623863
O4    O     O_R   0.508670 0.390690 0.353590 -0.606516
O5    O     O_R   0.690650 0.406190 0.506220 -0.629525
O6    O     O_R   0.309350 0.593810 0.493780 -0.628453
O7    O     O_R   0.675800 0.593810 0.493800 -0.637243
O8    O     O_R   0.324200 0.406190 0.506200 -0.634852
Zn1   Zn    Zn3+2 0.509910 0.374730 0.508290 1.000519
Zn2   Zn    Zn3+2 0.490090 0.625270 0.491710 0.995830
H11   H     H_    0.264900 0.993183 0.405172 0.161887
H12   H     H_    0.733885 0.006627 0.598114 0.170249
H13   H     H_    0.781619 0.290506 0.379763 0.188449
H14   H     H_    0.166125 0.694605 0.596283 0.198634
C37   C     C_2   0.898012 0.089960 0.332563 0.939117
O9    O     O_2   0.784348 0.082483 0.339185 -0.611086
O10   O     O_R   0.973015 0.997593 0.293729 -0.813107
H15   H     H_    0.922203 0.930872 0.271680 0.361629
C38   C     C_2   0.063463 0.904543 0.585371 0.904385
O11   O     O_2   0.006021 0.994798 0.573890 -0.645070
O12   O     O_R   0.173103 0.900324 0.646940 -0.818863
H16   H     H_    0.195496 0.977115 0.676655 0.355280
C39   C     C_2   0.235494 0.331734 0.298540 0.912651
O13   O     O_2   0.317906 0.260187 0.273620 -0.624039
O14   O     O_R   0.218615 0.428770 0.244052 -0.759674
H17   H     H_    0.266482 0.422464 0.177108 0.354159
C40   C     C_2   0.772179 0.710801 0.335483 0.956759
O15   O     O_2   0.709947 0.798302 0.322306 -0.591681
O16   O     O_R   0.758906 0.618143 0.265918 -0.809487
H18   H     H_    0.697214 0.634936 0.207372 0.358091
C41   C     C_2   0.382346 0.656725 0.176724 0.928431
O17   O     O_2   0.429555 0.747749 0.185201 -0.592083
O18   O     O_R   0.260174 0.646157 0.210609 -0.757627
H19   H     H_    0.219268 0.720012 0.238904 0.341971
C42   C     C_2   0.657004 0.364435 0.820832 0.908349
O19   O     O_2   0.748911 0.390189 0.774366 -0.619276
O20   O     O_R   0.630022 0.251665 0.824585 -0.797767
H20   H     H_    0.695725 0.198962 0.788903 0.340521

loop_
_geom_bond_atom_site_label_1
_geom_bond_atom_site_label_2
_ccdc_geom_bond_type
C30   C32   A    
C37   O10   S    
C27   C29   A    
O14   H17   S    
C19   C20   A    
C17   N2    A    
C18   N1    A    
O18   H19   S    
C22   O6    A    
C21   C36   S    
O20   H20   S    
C22   C35   S    
C26   C38   S    
C32   C36   A    
C24   C26   A    
C27   H2    S    
C33   C36   A    
O1    Zn1   S    
O8    Zn1   S    
C34   C35   A    
C25   C37   S    
C40   O16   S    
C2    O2    A    
C23   C33   A    
C7    H4    S    
C31   C33   A    
C8    H3    S    
C15   N2    A    
C4    C7    A    
C10   C12   A    
C16   N1    A    
C5    C7    A    
C38   O11   D    
O2    Zn2   S    
C5    C12   A    
C3    C8    A    
C6    C11   A    
C21   O7    A    
O5    Zn1   S    
C6    C8    A    
O16   H18   S    
C24   C34   A    
C41   O17   D    
C38   O12   S    
C32   C34   A    
C40   O15   D    
N1    Zn1   S    
C1    O3    A    
C42   O19   D    
C11   C12   A    
O3    Zn2   S    
C9    C11   A    
C2    O4    A    
C9    C42   S    
C42   O20   S    
C13   C15   A    
C31   C35   A    
C41   O18   S    
O6    Zn2   S    
C5    H5    S    
C24   H14   S    
C13   C20   A    
C14   C16   A    
C14   C19   A    
C16   H9    S    
C22   O8    A    
C10   C41   S    
N2    Zn2   S    
C13   H11   S    
C25   C27   A    
C14   H12   S    
C26   C28   A    
C1    C4    S    
C28   C30   A    
C2    C3    S    
C17   H8    S    
C39   O13   D    
C29   C31   A    
C3    C10   A    
C18   H7    S    
C21   O5    A    
C30   C40   S    
C28   H1    S    
C17   C19   A    
C18   C20   A    
C23   C25   A    
O12   H16   S    
O4    Zn1   S    
C37   O9    D    
C23   H13   S    
O10   H15   S    
C6    H6    S    
O7    Zn2   S    
C39   O14   S    
C15   H10   S    
C4    C9    A    
C1    O1    A    
C29   C39   S    
