data_mof_unit_56685.cif
_audit_creation_date              2012-12-10T17:45:31-0500
_audit_creation_method            fapswitch 2.2
_symmetry_space_group_name_H-M    P1
_symmetry_Int_Tables_number       1
_space_group_crystal_system       triclinic
_cell_length_a                    11.541533
_cell_length_b                    10.679913
_cell_length_c                    9.954608
_cell_angle_alpha                 89.23723
_cell_angle_beta                  89.366652
_cell_angle_gamma                 93.374055
_cell_volume                      1224.70891992

loop_
_atom_site_label
_atom_site_type_symbol
_atom_type_description
_atom_site_fract_x
_atom_site_fract_y
_atom_site_fract_z
_atom_type_partial_charge
C1    C     C_R   0.506819 0.259865 0.501412 0.868322
C2    C     C_R   0.464912 0.869458 0.500104 -0.046680
C3    C     C_R   0.351591 0.331840 0.151685 -0.240346
C4    C     C_R   0.282112 0.499698 0.500581 0.930424
C5    C     C_R   0.278451 0.241441 0.093069 0.437091
C6    C     C_R   0.274280 0.237516 0.956019 -0.252055
C7    C     C_R   0.342429 0.322119 0.874360 0.407250
C8    C     C_R   0.423970 0.414249 0.931974 0.061034
C9    C     C_R   0.425834 0.416134 0.076420 -0.043682
C10   C     C_R   0.570908 0.581770 0.070289 0.591407
C11   C     C_R   0.571654 0.579501 0.926011 -0.264461
C12   C     C_R   0.489641 0.043466 0.872942 0.320209
C13   C     C_R   0.485966 0.737935 0.499782 0.908783
C14   C     C_R   0.717904 0.500655 0.499395 0.892683
C15   C     C_1   0.161601 0.499788 0.501561 -0.171977
C16   C     C_1   0.059397 0.499978 0.500897 0.009751
C17   C     C_1   0.940687 0.500266 0.499298 0.014431
C18   C     C_1   0.838466 0.500493 0.498498 -0.166103
C19   C     C_R   0.529175 0.103756 0.753805 -0.301746
C20   C     C_3   0.270185 0.707884 0.825813 -0.097791
C21   C     C_3   0.656775 0.782748 0.086778 -0.307036
C22   C     C_R   0.412492 0.936035 0.866090 0.303702
C23   C     C_R   0.393985 0.877067 0.738667 0.434864
C24   C     C_R   0.451188 0.932614 0.623022 -0.066638
C25   C     C_R   0.496954 0.055888 0.627830 -0.016801
C26   C     C_R   0.508996 0.124952 0.505025 -0.068192
C27   C     C_R   0.501354 0.063765 0.381832 -0.210839
C28   C     C_R   0.484070 0.936092 0.379648 -0.195702
H1    H     H_    0.511116 0.113926 0.286673 0.210266
H2    H     H_    0.222994 0.621421 0.790431 0.160937
H3    H     H_    0.205258 0.759720 0.882377 0.196749
H4    H     H_    0.341927 0.677692 0.889769 0.175939
H5    H     H_    0.571335 0.815401 0.054905 0.184617
H6    H     H_    0.720408 0.789366 0.002080 0.163941
H7    H     H_    0.690149 0.847565 0.165449 0.207243
H8    H     H_    0.222751 0.169417 0.264412 0.327940
H9    H     H_    0.215246 0.167256 0.911907 0.169805
H10   H     H_    0.631123 0.641672 0.868519 0.161372
H11   H     H_    0.587463 0.186289 0.761085 0.186734
H12   H     H_    0.488816 0.889647 0.283884 0.188236
H13   H     H_    0.346923 0.333169 0.257255 0.213778
H14   H     H_    0.268397 0.243293 0.717415 0.308085
H15   H     H_    0.573105 0.167360 0.983860 0.337202
H16   H     H_    0.370397 0.946292 0.057265 0.395922
N1    N     N_R   0.498930 0.498800 0.142780 -0.131474
N2    N     N_R   0.498900 0.498720 0.857170 -0.117264
O1    O     O_R   0.500000 0.316780 0.614690 -0.556321
O2    O     O_3   0.521108 0.090783 0.996794 -0.805329
O3    O     O_3   0.356870 0.888607 0.981273 -0.806572
O4    O     O_3   0.311866 0.778319 0.712988 -0.623783
O5    O     O_3   0.647767 0.659899 0.141605 -0.578024
O6    O     O_3   0.208544 0.156313 0.167395 -0.744332
O7    O     O_R   0.499990 0.316750 0.385360 -0.656150
O8    O     O_R   0.334450 0.500030 0.614670 -0.536509
O9    O     O_R   0.334440 0.500000 0.385330 -0.649547
O10   O     O_R   0.500010 0.683250 0.614640 -0.603809
O11   O     O_R   0.500000 0.683220 0.385310 -0.593762
O12   O     O_R   0.665560 0.500000 0.614670 -0.624807
O13   O     O_R   0.665550 0.499970 0.385330 -0.559701
O14   O     O_3   0.325611 0.312756 0.739666 -0.715378
Zn1   Zn    Zn3+2 0.500010 0.500020 0.653130 0.989100
Zn2   Zn    Zn3+2 0.499990 0.499980 0.346870 0.994991

loop_
_geom_bond_atom_site_label_1
_geom_bond_atom_site_label_2
_ccdc_geom_bond_type
H16   O3    S    
O1    Zn1   S    
C11   H10   S    
C20   O4    S    
C23   C24   A    
C5    O6    S    
C9    N1    A    
C6    C7    A    
C3    C9    A    
O8    Zn1   S    
O11   Zn2   S    
C27   H1    S    
H15   O2    S    
C14   C18   S    
H8    O6    S    
C12   O2    S    
C13   O10   A    
C3    C5    A    
O12   Zn1   S    
C17   C18   T    
C6    H9    S    
C7    C8    A    
C20   H2    S    
C14   O13   A    
C26   C27   A    
C5    C6    A    
C19   H11   S    
C4    C15   S    
C22   O3    S    
C21   H7    S    
C10   O5    S    
C12   C19   A    
C7    O14   S    
C4    O9    A    
C2    C24   A    
C1    C26   S    
C19   C25   A    
C16   C17   S    
C8    N2    A    
C21   H5    S    
C10   C11   A    
C28   H12   S    
N2    Zn1   S    
C15   C16   T    
O9    Zn2   S    
C12   C22   A    
N1    Zn2   S    
C21   O5    S    
C13   O11   A    
C24   C25   A    
O7    Zn2   S    
C20   H4    S    
C10   N1    A    
H14   O14   S    
C27   C28   A    
C23   O4    S    
C2    C13   S    
C1    O7    A    
O10   Zn1   S    
C3    H13   S    
C11   N2    A    
C2    C28   A    
C21   H6    S    
C4    O8    A    
C25   C26   A    
C22   C23   A    
C1    O1    A    
C14   O12   A    
C8    C9    A    
O13   Zn2   S    
C20   H3    S    
