data_mof_unit_58024.cif
_audit_creation_date              2012-12-10T20:38:25-0500
_audit_creation_method            fapswitch 2.2
_symmetry_space_group_name_H-M    P1
_symmetry_Int_Tables_number       1
_space_group_crystal_system       triclinic
_cell_length_a                    9.868655
_cell_length_b                    10.725225
_cell_length_c                    16.767873
_cell_angle_alpha                 91.089856
_cell_angle_beta                  85.914255
_cell_angle_gamma                 89.004866
_cell_volume                      1769.62842858

loop_
_atom_site_label
_atom_site_type_symbol
_atom_type_description
_atom_site_fract_x
_atom_site_fract_y
_atom_site_fract_z
_atom_type_partial_charge
C1    C     C_R   0.499591 0.739916 0.498199 0.892296
C2    C     C_R   0.365403 0.394158 0.773423 -0.206412
C3    C     C_R   0.415950 0.472348 0.132796 0.251705
C4    C     C_R   0.405341 0.497724 0.215424 -0.160260
C5    C     C_R   0.653917 0.503103 0.213763 0.319887
C6    C     C_R   0.661836 0.474334 0.132781 -0.210221
C7    C     C_R   0.545107 0.452747 0.093315 0.036887
C8    C     C_2   0.496598 0.336649 0.971644 -0.168905
C9    C     C_2   0.562963 0.427018 0.007924 -0.144120
C10   C     C_R   0.525820 0.504758 0.257791 -0.253619
C11   C     C_R   0.381400 0.937871 0.480291 0.155237
C12   C     C_R   0.483277 0.488536 0.652449 0.882379
C13   C     C_R   0.501589 0.871094 0.487887 -0.077686
C14   C     C_R   0.626132 0.932810 0.484141 -0.197138
C15   C     C_R   0.626719 0.061384 0.486027 -0.145649
C16   C     C_R   0.503146 0.128028 0.490137 -0.078662
C17   C     C_R   0.381930 0.065423 0.482154 0.058617
C18   C     C_3   0.247622 0.074272 0.530281 -0.234327
C19   C     C_3   0.248638 0.932583 0.528618 -0.538485
C20   C     C_R   0.922500 0.601452 0.527934 0.163301
C21   C     C_R   0.936403 0.410316 0.459122 0.333991
C22   C     C_R   0.079835 0.409729 0.460346 -0.083166
C23   C     C_R   0.500999 0.259980 0.498989 0.889728
C24   C     C_R   0.064204 0.600454 0.529852 0.116042
C25   C     C_3   0.050575 0.660924 0.612151 -0.266458
C26   C     C_3   0.896923 0.664652 0.606958 -0.529009
C27   C     C_R   0.517679 0.504605 0.346207 0.928743
C28   C     C_R   0.483326 0.439528 0.733269 -0.033166
C29   C     C_R   0.609234 0.420697 0.766055 -0.167819
C30   C     C_R   0.615540 0.367500 0.839908 -0.146992
C31   C     C_R   0.495488 0.339873 0.884832 0.170320
C32   C     C_R   0.370864 0.346622 0.850018 -0.131368
H1    H     H_    0.703931 0.447981 0.735239 0.175327
H2    H     H_    0.760555 0.469567 0.099891 0.196757
H3    H     H_    0.722302 0.882870 0.485485 0.175537
H4    H     H_    0.722732 0.107244 0.489788 0.202160
H5    H     H_    0.166235 0.115585 0.495825 0.164707
H6    H     H_    0.260481 0.889660 0.587596 0.225611
H7    H     H_    0.167631 0.892538 0.493669 0.207978
H8    H     H_    0.140439 0.336727 0.429002 0.172686
H9    H     H_    0.092371 0.755835 0.613471 0.152209
H10   H     H_    0.838059 0.606437 0.650771 0.222745
H11   H     H_    0.854899 0.760661 0.601317 0.198994
H12   H     H_    0.629955 0.488921 0.973730 0.163069
H13   H     H_    0.277468 0.323004 0.883794 0.171873
H14   H     H_    0.269708 0.396407 0.746308 0.218541
H15   H     H_    0.426846 0.277003 0.005601 0.192274
H16   H     H_    0.713259 0.358843 0.865189 0.152202
N1    N     N_R   0.857140 0.500860 0.500530 -0.123910
N2    N     N_R   0.142780 0.500820 0.500530 -0.119829
O1    O     O_R   0.385310 0.683210 0.499990 -0.612661
O2    O     O_R   0.614650 0.683240 0.500000 -0.624227
O3    O     O_R   0.371780 0.500000 0.615800 -0.593007
O4    O     O_R   0.601120 0.500040 0.615800 -0.634741
O5    O     O_R   0.385350 0.316760 0.500000 -0.633151
O6    O     O_R   0.614690 0.316790 0.500010 -0.590923
O7    O     O_R   0.398880 0.499960 0.384200 -0.618135
O8    O     O_R   0.628220 0.500000 0.384200 -0.543100
Zn1   Zn    Zn3+2 0.346870 0.499980 0.499990 1.006777
Zn2   Zn    Zn3+2 0.653130 0.500020 0.500010 1.019886
C33   C     C_2   0.253909 0.130109 0.613209 0.973181
O9    O     O_2   0.170973 0.210764 0.637010 -0.591193
O10   O     O_R   0.353899 0.089899 0.662495 -0.803101
H17   H     H_    0.346640 0.134023 0.716652 0.345874
Br1   Br    Br    0.861579 0.286775 0.392596 -0.440577
C34   C     C_2   0.091401 0.583013 0.680248 0.999307
O11   O     O_2   0.059645 0.473453 0.684418 -0.609011
O12   O     O_R   0.158313 0.640187 0.741482 -0.798192
H18   H     H_    0.166577 0.584771 0.789178 0.341518
C35   C     C_2   0.267877 0.522697 0.254867 1.052824
O13   O     O_2   0.181864 0.441964 0.254973 -0.557056
O14   O     O_R   0.237428 0.638627 0.292035 -0.773297
H19   H     H_    0.141284 0.643966 0.317734 0.352958
Br2   Br    Br    0.823438 0.546941 0.256302 -0.395382
Br3   Br    Br    0.255185 0.481478 0.072785 -0.449174

loop_
_geom_bond_atom_site_label_1
_geom_bond_atom_site_label_2
_ccdc_geom_bond_type
C10   C27   S    
C8    C9    D    
C34   O12   S    
O5    Zn1   S    
C32   H13   S    
C21   N1    A    
O3    Zn1   S    
C23   O6    A    
O4    Zn2   S    
C2    H14   S    
C11   C19   S    
C29   C30   A    
N1    Zn2   S    
C12   C28   S    
N2    Zn1   S    
C30   H16   S    
C28   C29   A    
C18   H5    S    
C3    C7    A    
C5    C6    A    
O7    Zn1   S    
O8    Zn2   S    
C15   C16   A    
C29   H1    S    
C2    C32   A    
C18   C19   S    
C5    Br2   S    
C33   O10   S    
O2    Zn2   S    
C20   C24   A    
C16   C17   A    
C35   O13   D    
C3    Br3   S    
C12   O3    A    
C22   N2    A    
C34   O11   D    
C21   C22   A    
C4    C35   S    
C26   H11   S    
C24   N2    A    
C24   C25   S    
C27   O7    A    
C25   H9    S    
C14   H3    S    
O12   H18   S    
C25   C26   S    
C6    H2    S    
C20   N1    A    
C19   H6    S    
C31   C32   A    
C22   H8    S    
C17   C18   S    
C1    O1    A    
C19   H7    S    
C16   C23   S    
O1    Zn1   S    
C4    C10   A    
C3    C4    A    
C15   H4    S    
C26   H10   S    
C7    C9    S    
C11   C17   A    
C9    H12   S    
C21   Br1   S    
C8    C31   S    
C25   C34   S    
O14   H19   S    
C27   O8    A    
C35   O14   S    
C18   C33   S    
C23   O5    A    
C6    C7    A    
C8    H15   S    
C5    C10   A    
C11   C13   A    
C30   C31   A    
C20   C26   S    
C33   O9    D    
C1    O2    A    
O10   H17   S    
O6    Zn2   S    
C1    C13   S    
C14   C15   A    
C2    C28   A    
C13   C14   A    
C12   O4    A    
