data_mof_unit_67829.cif
_audit_creation_date              2012-12-10T16:55:42-0500
_audit_creation_method            fapswitch 2.2
_symmetry_space_group_name_H-M    P1
_symmetry_Int_Tables_number       1
_space_group_crystal_system       triclinic
_cell_length_a                    7.797832
_cell_length_b                    8.66725
_cell_length_c                    10.542695
_cell_angle_alpha                 91.820058
_cell_angle_beta                  84.228082
_cell_angle_gamma                 94.096552
_cell_volume                      706.895467037

loop_
_atom_site_label
_atom_site_type_symbol
_atom_type_description
_atom_site_fract_x
_atom_site_fract_y
_atom_site_fract_z
_atom_type_partial_charge
C1    C     C_R   0.546098 0.793995 0.491764 0.852981
C2    C     C_3   0.501079 0.519887 0.876744 -0.177247
C3    C     C_3   0.341101 0.486449 0.052042 0.514180
C4    C     C_3   0.662422 0.555824 0.947125 0.504949
C5    C     C_2   0.572364 0.957136 0.482438 0.212195
C6    C     C_2   0.430846 0.041670 0.484013 0.197080
C7    C     C_3   0.067187 0.568008 0.122148 0.102571
C8    C     C_3   0.116866 0.701784 0.214748 -0.369043
C9    C     C_3   0.006642 0.838952 0.209253 -0.875553
C10   C     C_3   0.878451 0.744315 0.872251 0.050062
C11   C     C_3   0.777400 0.836719 0.786508 -0.416267
C12   C     C_R   0.454323 0.205555 0.497400 0.882987
C13   C     C_3   0.834140 0.008885 0.792684 -0.827251
C14   C     C_R   0.501056 0.508123 0.742114 0.967714
C15   C     C_R   0.501278 0.506618 0.257633 0.961444
C16   C     C_3   0.395350 0.628650 0.968409 -0.519571
C17   C     C_3   0.609567 0.410932 0.028648 -0.435142
C18   C     C_3   0.556740 0.658908 0.041863 0.298000
C19   C     C_3   0.445254 0.380846 0.959789 0.394614
C20   C     C_3   0.502857 0.516407 0.122747 -0.211142
H1    H     H_    0.317504 0.719545 0.936047 0.169580
H2    H     H_    0.253770 0.744527 0.194245 0.255939
H3    H     H_    0.037664 0.897586 0.117023 0.249372
H4    H     H_    0.035939 0.924374 0.285976 0.287418
H5    H     H_    0.867565 0.800615 0.223899 0.313300
H6    H     H_    0.016454 0.754260 0.833228 0.160510
H7    H     H_    0.875248 0.796868 0.968895 0.186683
H8    H     H_    0.801349 0.794035 0.687069 0.236441
H9    H     H_    0.636682 0.823095 0.815092 0.208002
H10   H     H_    0.973006 0.028007 0.757602 0.276613
H11   H     H_    0.813113 0.054902 0.892188 0.265164
H12   H     H_    0.695089 0.323020 0.055907 0.193804
H13   H     H_    0.756923 0.073555 0.732139 0.294532
H14   H     H_    0.826004 0.948124 0.482889 0.350272
H15   H     H_    0.180907 0.052209 0.470535 0.348420
H16   H     H_    0.013913 0.381630 0.404158 0.216835
H17   H     H_    0.986349 0.617810 0.596078 0.208060
H18   H     H_    0.565812 0.881573 0.045627 0.343328
H19   H     H_    0.362542 0.169755 0.986343 0.336148
H20   H     H_    0.934683 0.520829 0.154365 0.193260
H21   H     H_    0.060959 0.610624 0.025551 0.169141
H22   H     H_    0.098787 0.660695 0.313215 0.263631
N1    N     N_2   0.950320 0.457950 0.465730 -0.172745
N2    N     N_2   0.049680 0.542050 0.534270 -0.172438
O1    O     O_R   0.389250 0.738570 0.508410 -0.566073
O2    O     O_3   0.384016 0.237440 0.911567 -0.754014
O3    O     O_3   0.177844 0.444661 0.118363 -0.631074
O4    O     O_3   0.825270 0.584525 0.875916 -0.629190
O5    O     O_3   0.740412 0.025171 0.474653 -0.777410
O6    O     O_3   0.266051 0.973106 0.472217 -0.784093
O7    O     O_R   0.610750 0.261430 0.491590 -0.547229
O8    O     O_R   0.678390 0.711620 0.486450 -0.674766
O9    O     O_R   0.321610 0.288380 0.513550 -0.635737
O10   O     O_R   0.355460 0.513510 0.697030 -0.604188
O11   O     O_R   0.644540 0.486490 0.302970 -0.637040
O12   O     O_R   0.644600 0.486560 0.675070 -0.589554
O13   O     O_R   0.355400 0.513440 0.324930 -0.622020
O14   O     O_3   0.607125 0.801370 0.097816 -0.806907
Zn1   Zn    Zn3+2 0.306940 0.517990 0.514670 0.988424
Zn2   Zn    Zn3+2 0.693060 0.482010 0.485330 0.982041

loop_
_geom_bond_atom_site_label_1
_geom_bond_atom_site_label_2
_ccdc_geom_bond_type
C10   H7    S    
C2    C4    S    
N1    N2    D    
C9    H4    S    
C3    C19   S    
C16   H1    S    
C11   C13   S    
C14   O12   A    
C12   O9    A    
C7    H20   S    
C4    C18   S    
C10   H6    S    
H17   N2    S    
O9    Zn1   S    
C19   O2    S    
C9    H5    S    
C3    C20   S    
C15   O11   A    
O11   Zn2   S    
C6    O6    S    
C6    C12   S    
C17   C20   S    
C15   O13   A    
C1    O1    A    
C5    C6    D    
C11   H8    S    
H15   O6    S    
H19   O2    S    
C1    C5    S    
C4    C17   S    
N1    Zn2   S    
C3    O3    S    
C14   O10   A    
C13   H11   S    
C18   C20   S    
O10   Zn1   S    
C7    H21   S    
C10   O4    S    
C15   C20   S    
C2    C14   S    
C1    O8    A    
C5    O5    S    
O13   Zn1   S    
C10   C11   S    
N2    Zn1   S    
C13   H10   S    
C7    C8    S    
C12   O7    A    
C2    C16   S    
C11   H9    S    
C16   C18   S    
C13   H13   S    
C4    O4    S    
C17   H12   S    
O1    Zn1   S    
H14   O5    S    
O7    Zn2   S    
O8    Zn2   S    
C17   C19   S    
C2    C19   S    
H18   O14   S    
C8    H2    S    
C18   O14   S    
C9    H3    S    
C3    C16   S    
O12   Zn2   S    
C8    H22   S    
C8    C9    S    
H16   N1    S    
C7    O3    S    
