data_mof_unit_35392.cif
_audit_creation_date              2012-10-26T18:40:22-0400
_audit_creation_method            fapswitch 2.2
_symmetry_space_group_name_H-M    P1
_symmetry_Int_Tables_number       1
_space_group_crystal_system       triclinic
_cell_length_a                    8.72543
_cell_length_b                    15.112181
_cell_length_c                    13.938609
_cell_angle_alpha                 89.578239
_cell_angle_beta                  97.360605
_cell_angle_gamma                 91.622521
_cell_volume                      1822.05945239

loop_
_atom_site_label
_atom_site_type_symbol
_atom_type_description
_atom_site_fract_x
_atom_site_fract_y
_atom_site_fract_z
_atom_type_partial_charge
C1    C     C_R   0.494406 0.329888 0.499679 0.522599
C2    C     C_R   0.572349 0.569785 0.896758 -0.127377
C3    C     C_R   0.496170 0.500874 0.054137 -0.003297
C4    C     C_R   0.497623 0.501846 0.945274 -0.002675
C5    C     C_R   0.204046 0.499517 0.475428 0.538637
C6    C     C_R   0.795976 0.500053 0.524600 0.556476
C7    C     C_2   0.038518 0.498579 0.461836 -0.145694
C8    C     C_2   0.961574 0.500278 0.538301 -0.157157
C9    C     C_R   0.569717 0.096500 0.580587 -0.107251
C10   C     C_R   0.568480 0.905977 0.430667 -0.110616
C11   C     C_R   0.563553 0.188233 0.579959 -0.107318
C12   C     C_R   0.494731 0.669977 0.499516 0.527621
C13   C     C_R   0.562348 0.814065 0.430112 -0.124434
C14   C     C_R   0.488845 0.232871 0.499262 -0.016562
C15   C     C_R   0.489158 0.766859 0.499392 -0.014497
C16   C     C_R   0.415550 0.183903 0.418789 0.011204
C17   C     C_R   0.417634 0.813392 0.569130 0.007862
C18   C     C_R   0.427768 0.091769 0.419359 -0.073799
C19   C     C_R   0.429775 0.905934 0.570568 -0.072977
C20   C     C_R   0.503723 0.048363 0.499838 -0.007707
C21   C     C_R   0.503975 0.951880 0.501560 -0.005567
C22   C     C_2   0.317240 0.226122 0.337128 0.240830
C23   C     C_R   0.614552 0.543692 0.115007 -0.093639
C24   C     C_2   0.321471 0.768036 0.636362 0.235639
C25   C     C_2   0.736550 0.600385 0.272480 0.237819
C26   C     C_2   0.329430 0.362906 0.732430 0.254233
C27   C     C_R   0.425148 0.433356 0.888086 -0.095466
C28   C     C_R   0.613897 0.545391 0.216084 0.163297
C29   C     C_R   0.422711 0.433923 0.786761 0.158372
C30   C     C_R   0.384474 0.456233 0.200923 0.066429
C31   C     C_R   0.574106 0.566863 0.795708 0.051902
C32   C     C_R   0.379153 0.456864 0.099253 -0.119556
Cu1   Cu    Cu3+1 0.500000 0.499990 0.596430 0.939071
Cu2   Cu    Cu3+1 0.500000 0.500010 0.403570 0.954408
H1    H     H_    0.979721 0.496303 0.388277 0.168226
H2    H     H_    0.368103 0.379200 0.921837 0.152664
H3    H     H_    0.293916 0.421476 0.233300 0.136227
H4    H     H_    0.633607 0.619280 0.760809 0.144136
H5    H     H_    0.282118 0.423747 0.056874 0.114810
H6    H     H_    0.628124 0.625948 0.935758 0.114327
H7    H     H_    0.269805 0.290706 0.345454 0.116302
H8    H     H_    0.274036 0.701793 0.621312 0.138501
H9    H     H_    0.719853 0.629873 0.340133 0.156331
H10   H     H_    0.270990 0.373959 0.660746 0.153223
H11   H     H_    0.020495 0.502077 0.611926 0.130491
H12   H     H_    0.627217 0.062984 0.643566 0.140569
H13   H     H_    0.624697 0.941425 0.376401 0.136803
H14   H     H_    0.619218 0.224496 0.642254 0.157793
H15   H     H_    0.616803 0.779808 0.376059 0.128488
H16   H     H_    0.371971 0.052921 0.358987 0.168339
H17   H     H_    0.375242 0.942941 0.622657 0.171475
H18   H     H_    0.708002 0.577102 0.084050 0.149752
N1    N     N_R   0.500000 0.500020 0.258690 -0.253618
N2    N     N_R   0.500000 0.499980 0.741310 -0.256005
O1    O     O_R   0.500010 0.371450 0.581430 -0.513114
O2    O     O_2   0.291166 0.805095 0.708923 -0.497930
O3    O     O_2   0.859975 0.615545 0.242125 -0.540819
O4    O     O_2   0.313529 0.289998 0.768863 -0.520098
O5    O     O_R   0.499990 0.628550 0.418570 -0.520284
O6    O     O_R   0.500010 0.371460 0.418560 -0.504981
O7    O     O_R   0.499990 0.628540 0.581440 -0.518897
O8    O     O_R   0.274840 0.499990 0.562640 -0.538532
O9    O     O_R   0.725160 0.500010 0.437360 -0.516855
O10   O     O_R   0.274840 0.500000 0.399770 -0.495267
O11   O     O_R   0.725160 0.500000 0.600230 -0.486904
O12   O     O_2   0.285147 0.188234 0.259765 -0.495960

loop_
_geom_bond_atom_site_label_1
_geom_bond_atom_site_label_2
_ccdc_geom_bond_type
C6    O9    A    
Cu1   O1    S    
C2    C4    A    
C28   N1    A    
C12   C15   S    
C2    H6    S    
C27   H2    S    
C27   C29   A    
C26   O4    D    
C2    C31   A    
C9    C20   A    
C3    C23   A    
C31   H4    S    
C25   H9    S    
Cu2   O10   S    
Cu1   Cu2   S    
C11   H14   S    
Cu1   O11   S    
C7    C8    D    
C31   N2    A    
C11   C14   A    
C23   C28   A    
C12   O5    A    
C25   C28   S    
Cu2   O6    S    
C12   O7    A    
C9    C11   A    
C23   H18   S    
C3    C32   A    
C25   O3    D    
C26   C29   S    
C13   H15   S    
Cu1   O7    S    
Cu2   O9    S    
C17   C19   A    
C5    O8    A    
C18   C20   A    
C13   C15   A    
C10   C21   A    
C1    O1    A    
Cu2   O5    S    
C30   N1    A    
C14   C16   A    
C32   H5    S    
C17   C24   S    
C24   O2    D    
C29   N2    A    
C26   H10   S    
C3    C4    S    
C30   C32   A    
C19   H17   S    
C9    H12   S    
C4    C27   A    
C24   H8    S    
C20   C21   S    
C18   H16   S    
Cu2   N1    S    
C16   C18   A    
C1    O6    A    
Cu1   N2    S    
C15   C17   A    
C5    C7    S    
C22   O12   D    
C6    C8    S    
C1    C14   S    
C19   C21   A    
C8    H11   S    
C10   H13   S    
C7    H1    S    
C6    O11   A    
C22   H7    S    
C30   H3    S    
C5    O10   A    
C16   C22   S    
Cu1   O8    S    
C10   C13   A    
