data_mof_unit_53910.cif
_audit_creation_date              2012-12-10T20:39:59-0500
_audit_creation_method            fapswitch 2.2
_symmetry_space_group_name_H-M    P1
_symmetry_Int_Tables_number       1
_space_group_crystal_system       triclinic
_cell_length_a                    23.40925
_cell_length_b                    10.792956
_cell_length_c                    9.942003
_cell_angle_alpha                 88.663833
_cell_angle_beta                  92.922952
_cell_angle_gamma                 91.464957
_cell_volume                      2507.19915801

loop_
_atom_site_label
_atom_site_type_symbol
_atom_type_description
_atom_site_fract_x
_atom_site_fract_y
_atom_site_fract_z
_atom_type_partial_charge
C1    C     C_R   0.502361 0.260560 0.501205 0.866880
C2    C     C_R   0.968851 0.251660 0.450051 -0.138868
C3    C     C_R   0.027710 0.255214 0.434746 -0.136110
C4    C     C_R   0.057876 0.369332 0.431325 -0.022558
C5    C     C_R   0.028164 0.480458 0.437865 -0.019794
C6    C     C_R   0.058146 0.594991 0.439875 -0.021729
C7    C     C_R   0.027921 0.705770 0.438957 -0.135176
C8    C     C_R   0.968420 0.702497 0.437911 -0.139642
C9    C     C_R   0.117349 0.375359 0.424390 0.534525
C10   C     C_R   0.117860 0.595534 0.447093 0.537145
C11   C     C_R   0.239507 0.573866 0.375104 -0.117808
C12   C     C_R   0.389614 0.502137 0.496314 0.966082
C13   C     C_R   0.298545 0.585848 0.396655 0.436023
C14   C     C_R   0.327302 0.500195 0.485015 -0.225999
C15   C     C_R   0.295847 0.407136 0.554206 -0.120483
C16   C     C_R   0.236198 0.407893 0.542400 -0.042361
C17   C     C_R   0.207901 0.488693 0.450902 0.155153
C18   C     C_R   0.755438 0.401072 0.400844 -0.023129
C19   C     C_R   0.696179 0.399753 0.409878 -0.077071
C20   C     C_R   0.672241 0.477959 0.503622 -0.158177
C21   C     C_R   0.708092 0.546849 0.592084 -0.060039
C22   C     C_R   0.767410 0.536910 0.592932 -0.019751
C23   C     C_R   0.500778 0.740026 0.498163 0.961127
C24   C     C_R   0.791134 0.468515 0.491079 0.150282
C25   C     C_R   0.521401 0.060949 0.618339 0.126366
C26   C     C_R   0.511026 0.129857 0.500261 -0.183648
C27   C     C_R   0.508344 0.070574 0.376327 -0.144431
C28   C     C_R   0.506202 0.942550 0.371162 -0.112888
C29   C     C_R   0.506900 0.872710 0.494163 -0.175354
C30   C     C_R   0.516176 0.933975 0.616191 -0.025292
C31   C     C_3   0.483665 0.928397 0.743872 -0.279296
C32   C     C_3   0.495062 0.069242 0.750720 0.167210
C33   C     C_R   0.452086 0.463161 0.066541 0.213236
C34   C     C_R   0.610422 0.494952 0.502247 0.870592
C35   C     C_R   0.544810 0.546346 0.078929 -0.186066
C36   C     C_R   0.545728 0.546993 0.936807 0.454764
C37   C     C_R   0.451662 0.466887 0.923956 0.152616
C38   C     C_3   0.420832 0.345872 0.913720 -0.535478
C39   C     C_3   0.425000 0.335663 0.065990 0.252595
C40   C     C_R   0.879041 0.582528 0.450872 0.498785
C41   C     C_R   0.880225 0.361664 0.476183 0.516675
C42   C     C_R   0.938911 0.362298 0.456409 -0.015471
C43   C     C_R   0.968403 0.477028 0.445299 -0.016546
C44   C     C_R   0.938414 0.588399 0.443834 -0.017368
H1    H     H_    0.946948 0.162259 0.456579 0.198658
H2    H     H_    0.690012 0.610286 0.659204 0.263344
H3    H     H_    0.504253 0.123370 0.282410 0.217802
H4    H     H_    0.455627 0.123709 0.742831 0.054726
H5    H     H_    0.581072 0.580487 0.139914 0.201249
H6    H     H_    0.049679 0.168416 0.430083 0.199784
H7    H     H_    0.376851 0.357581 0.869402 0.252014
H8    H     H_    0.446020 0.276949 0.865721 0.217101
H9    H     H_    0.454826 0.263304 0.105124 0.147420
H10   H     H_    0.050074 0.795121 0.438770 0.200164
H11   H     H_    0.946220 0.789374 0.436987 0.198962
H12   H     H_    0.217405 0.634370 0.302615 0.211019
H13   H     H_    0.211362 0.342506 0.601264 0.215659
H14   H     H_    0.774481 0.347806 0.324442 0.201795
N1    N     N_R   0.851553 0.470927 0.473731 -0.361815
N2    N     N_R   0.146476 0.486695 0.438410 -0.341132
N3    N     N_R   0.499610 0.499140 0.142800 -0.165420
N4    N     N_R   0.499610 0.499180 0.857150 -0.129424
O1    O     O_R   0.500010 0.316790 0.614690 -0.605100
O2    O     O_2   0.852127 0.253063 0.499095 -0.528216
O3    O     O_2   0.145871 0.270737 0.404545 -0.520329
O4    O     O_2   0.146978 0.703742 0.466490 -0.519374
O5    O     O_R   0.500000 0.316760 0.385350 -0.629831
O6    O     O_R   0.416160 0.499980 0.614700 -0.621620
O7    O     O_R   0.416150 0.499940 0.385360 -0.527051
O8    O     O_R   0.500000 0.683240 0.614650 -0.566336
O9    O     O_R   0.499990 0.683210 0.385310 -0.637060
O10   O     O_R   0.583850 0.500060 0.614640 -0.499497
O11   O     O_R   0.583840 0.500020 0.385300 -0.667684
O12   O     O_2   0.848944 0.687470 0.436438 -0.525382
Zn1   Zn    Zn3+2 0.500000 0.500020 0.653130 1.100148
Zn2   Zn    Zn3+2 0.500000 0.499980 0.346870 1.030956
C45   C     C_2   0.660563 0.313928 0.323433 0.476497
H15   H     H_    0.616983 0.289688 0.347419 0.080664
O13   O     O_2   0.679873 0.267322 0.225140 -0.544692
C46   C     C_2   0.803984 0.596928 0.700536 0.536316
H16   H     H_    0.849462 0.579753 0.710412 0.049126
O14   O     O_2   0.783635 0.665046 0.781018 -0.492844
C47   C     C_2   0.497236 0.888726 0.236087 0.599167
H17   H     H_    0.525649 0.819172 0.202590 0.088199
O15   O     O_2   0.457801 0.923335 0.160457 -0.461632
C48   C     C_2   0.420451 0.897120 0.715134 0.560794
H18   H     H_    0.392372 0.966334 0.668935 0.061483
O16   O     O_2   0.400646 0.793313 0.737540 -0.445553
C49   C     C_2   0.511909 0.852263 0.857229 0.675154
H19   H     H_    0.557836 0.856288 0.874886 0.151747
O17   O     O_2   0.483607 0.787392 0.932312 -0.544306
S1    S     S_3+6 0.548421 0.124174 0.874679 0.007984
O18   O     O_2   0.557319 0.261697 0.857998 -0.292855
O19   O     O_2   0.528777 0.095533 0.013606 -0.337275
O20   O     O_3   0.611297 0.056354 0.855112 -0.529439
H20   H     H_    0.636915 0.086953 0.930163 0.411210
S2    S     S_3+6 0.611281 0.602615 0.875743 0.037338
O21   O     O_2   0.602287 0.686800 0.754752 -0.320414
O22   O     O_2   0.644991 0.675121 0.981511 -0.296185
O23   O     O_3   0.649452 0.478746 0.839971 -0.516027
H21   H     H_    0.656839 0.434991 0.927589 0.385065
S3    S     S_3+6 0.356229 0.321475 0.136620 0.086045
O24   O     O_2   0.326141 0.442812 0.126373 -0.248277
O25   O     O_2   0.320830 0.225256 0.060898 -0.207194
O26   O     O_3   0.364617 0.274837 0.298680 -0.579380
H22   H     H_    0.325783 0.248750 0.324828 0.383535
S4    S     S_3+6 0.333646 0.715403 0.320238 0.101206
O27   O     O_2   0.371450 0.674362 0.212917 -0.199799
O28   O     O_2   0.290379 0.802943 0.257725 -0.239488
O29   O     O_3   0.373750 0.790181 0.438859 -0.587197
H23   H     H_    0.381083 0.873979 0.399763 0.384307
C50   C     C_2   0.324127 0.303690 0.631039 0.450106
H24   H     H_    0.369452 0.288322 0.624148 0.050065
O30   O     O_2   0.296791 0.232131 0.701513 -0.508508

loop_
_geom_bond_atom_site_label_1
_geom_bond_atom_site_label_2
_ccdc_geom_bond_type
C12   O7    A    
S4    O28   D    
C41   C42   A    
O20   H20   S    
C13   S4    S    
C50   O30   D    
S2    O21   D    
C7    C8    A    
C39   H9    S    
C45   H15   S    
O6    Zn1   S    
C12   O6    A    
C26   C27   A    
C29   C30   A    
S3    O26   S    
C18   C24   A    
C5    C6    A    
C23   C29   S    
C28   C29   A    
C30   C31   S    
C48   O16   D    
C38   H8    S    
C15   C16   A    
O7    Zn2   S    
C18   C19   A    
C19   C45   S    
O29   H23   S    
S1    O18   D    
C1    O5    A    
C18   H14   S    
C19   C20   A    
C16   C17   A    
C31   C49   S    
C35   H5    S    
S4    O27   D    
C36   S2    S    
C49   O17   D    
C20   C34   S    
C25   C32   S    
C10   O4    S    
C5    C43   A    
N3    Zn2   S    
C31   C48   S    
C21   C22   A    
C28   C47   S    
C32   H4    S    
C23   O8    A    
O10   Zn1   S    
C36   N4    A    
C1    O1    A    
C8    H11   S    
C50   H24   S    
S2    O22   D    
C3    H6    S    
C37   N4    A    
C45   O13   D    
C2    H1    S    
C38   C39   S    
C23   O9    A    
C41   N1    A    
C46   O14   D    
C48   H18   S    
C46   H16   S    
C38   H7    S    
C34   O11   A    
C25   C26   A    
S1    O20   S    
C33   C37   A    
C35   C36   A    
C10   N2    A    
C43   C44   A    
C37   C38   S    
C47   H17   S    
S1    O19   D    
C35   N3    A    
C33   C39   S    
S3    O25   D    
C47   O15   D    
C12   C14   S    
C1    C26   S    
O11   Zn2   S    
C22   C24   A    
N4    Zn1   S    
C42   C43   A    
C3    C4    A    
C34   O10   A    
O9    Zn2   S    
O8    Zn1   S    
S2    O23   S    
C39   S3    S    
C21   H2    S    
C27   H3    S    
C25   C30   A    
C11   C17   A    
C15   C50   S    
C31   C32   S    
C8    C44   A    
C4    C5    A    
C6    C10   A    
C6    C7    A    
O26   H22   S    
C41   O2    S    
C9    N2    A    
C2    C3    A    
C49   H19   S    
C22   C46   S    
C11   C13   A    
C32   S1    S    
O1    Zn1   S    
C2    C42   A    
C24   N1    S    
O23   H21   S    
S4    O29   S    
C40   O12   S    
C16   H13   S    
S3    O24   D    
C9    O3    S    
C17   N2    S    
C40   C44   A    
C20   C21   A    
C33   N3    A    
C27   C28   A    
C40   N1    A    
C14   C15   A    
O5    Zn2   S    
C7    H10   S    
C4    C9    A    
C13   C14   A    
C11   H12   S    
