data_mof_unit_21376.cif
_audit_creation_date              2012-12-10T17:44:29-0500
_audit_creation_method            fapswitch 2.2
_symmetry_space_group_name_H-M    P1
_symmetry_Int_Tables_number       1
_space_group_crystal_system       triclinic
_cell_length_a                    9.935637
_cell_length_b                    10.626293
_cell_length_c                    15.632822
_cell_angle_alpha                 91.939853
_cell_angle_beta                  68.105646
_cell_angle_gamma                 89.569555
_cell_volume                      1530.21363179

loop_
_atom_site_label
_atom_site_type_symbol
_atom_type_description
_atom_site_fract_x
_atom_site_fract_y
_atom_site_fract_z
_atom_type_partial_charge
C1    C     C_R   0.500505 0.739033 0.498404 0.859274
C2    C     C_R   0.714003 0.597350 0.044164 0.055610
C3    C     C_R   0.577345 0.544044 0.092960 0.091594
C4    C     C_R   0.409316 0.500864 0.675513 0.833701
C5    C     C_R   0.814366 0.613412 0.087783 -0.268533
C6    C     C_R   0.779712 0.580862 0.178871 0.000668
C7    C     C_R   0.551797 0.499146 0.180441 -0.261755
C8    C     C_R   0.506170 0.862542 0.335496 -0.159144
C9    C     C_R   0.510620 0.925237 0.257634 -0.124536
C10   C     C_R   0.512709 0.056155 0.258076 -0.142541
C11   C     C_R   0.510254 0.124612 0.336392 -0.160392
C12   C     C_R   0.410398 0.532734 0.914780 0.113856
C13   C     C_R   0.504838 0.062342 0.416382 0.106108
C14   C     C_R   0.503279 0.930678 0.415546 0.095658
C15   C     C_R   0.502253 0.870964 0.494581 -0.130109
C16   C     C_R   0.500693 0.260754 0.499688 0.844901
C17   C     C_R   0.505420 0.936486 0.572069 -0.194094
C18   C     C_R   0.504736 0.066155 0.574988 -0.031791
C19   C     C_R   0.503428 0.127901 0.496955 -0.181472
C20   C     C_R   0.793742 0.677494 0.612988 -0.155504
C21   C     C_R   0.834473 0.770502 0.662733 -0.210016
C22   C     C_R   0.974614 0.771009 0.661285 -0.094718
C23   C     C_R   0.267942 0.494505 0.967682 0.158215
C24   C     C_R   0.073449 0.676304 0.612273 -0.076032
C25   C     C_R   0.039240 0.586793 0.555571 0.139004
C26   C     C_R   0.894790 0.587032 0.555677 0.163091
C27   C     C_R   0.961793 0.418338 0.445067 0.018965
C28   C     C_R   0.591027 0.502324 0.324714 0.840293
C29   C     C_R   0.104573 0.418153 0.445573 -0.140894
C30   C     C_R   0.354414 0.503759 0.776304 -0.069846
C31   C     C_R   0.646491 0.523062 0.225689 -0.111619
C32   C     C_R   0.169457 0.465999 0.924927 -0.205164
C33   C     C_R   0.212851 0.470026 0.829389 -0.123532
C34   C     C_R   0.510604 0.559348 0.958184 0.029564
C35   C     C_R   0.450611 0.536042 0.819167 -0.252711
C36   C     C_2   0.501452 0.135199 0.660467 0.418642
C37   C     C_1   0.928608 0.331366 0.383603 0.235359
C38   C     C_1   0.880532 0.612871 0.222699 0.185837
C39   C     C_2   0.890291 0.684064 0.897874 0.357331
C40   C     C_R   0.471216 0.533787 0.052564 0.067222
C41   C     C_R   0.325948 0.501303 0.104199 -0.207606
C42   C     C_R   0.226439 0.482477 0.062249 -0.221158
C43   C     C_R   0.648512 0.610509 0.910397 -0.221846
C44   C     C_R   0.748328 0.630997 0.952548 -0.006989
H1    H     H_    0.117361 0.455023 0.103762 0.157034
H2    H     H_    0.456927 0.445206 0.215676 0.152424
H3    H     H_    0.004709 0.841160 0.702403 0.159300
H4    H     H_    0.174087 0.673755 0.622063 0.201162
H5    H     H_    0.185803 0.351700 0.401095 0.146941
H6    H     H_    0.060315 0.437140 0.965110 0.152091
H7    H     H_    0.137737 0.443086 0.796936 0.194644
H8    H     H_    0.559460 0.557715 0.775541 0.160021
H9    H     H_    0.284468 0.492846 0.178034 0.154456
H10   H     H_    0.680046 0.641726 0.840948 0.172424
H11   H     H_    0.490255 0.236860 0.667376 0.070208
H12   H     H_    0.919262 0.654032 0.052486 0.137759
H13   H     H_    0.936047 0.758894 0.926714 0.066872
H14   H     H_    0.505390 0.885347 0.631049 0.170668
H15   H     H_    0.506195 0.760877 0.332077 0.144310
H16   H     H_    0.513306 0.872030 0.196683 0.147541
H17   H     H_    0.516982 0.104873 0.197436 0.143287
H18   H     H_    0.514091 0.226075 0.333114 0.134431
H19   H     H_    0.682226 0.679418 0.621998 0.197461
H20   H     H_    0.755614 0.840575 0.704620 0.176497
N1    N     N_R   0.856800 0.501200 0.500850 -0.135753
N2    N     N_R   0.142390 0.501280 0.500880 -0.122660
N3    N     N_1   0.902322 0.261377 0.333921 -0.207837
N4    N     N_1   0.961237 0.638740 0.257764 -0.197726
O1    O     O_R   0.385310 0.683220 0.500000 -0.638320
O2    O     O_2   0.959432 0.641256 0.820425 -0.597106
O3    O     O_R   0.614640 0.683250 0.500010 -0.623775
O4    O     O_R   0.319840 0.499980 0.632240 -0.619098
O5    O     O_R   0.549160 0.500000 0.632250 -0.640722
O6    O     O_R   0.385360 0.316750 0.499990 -0.610371
O7    O     O_R   0.614690 0.316780 0.500000 -0.607931
O8    O     O_R   0.450840 0.500000 0.367750 -0.621528
O9    O     O_R   0.680160 0.500020 0.367760 -0.595053
O10   O     O_2   0.510779 0.078846 0.724927 -0.582709
Zn1   Zn    Zn3+2 0.346880 0.499980 0.499990 0.940060
Zn2   Zn    Zn3+2 0.653120 0.500020 0.500010 0.958107

loop_
_geom_bond_atom_site_label_1
_geom_bond_atom_site_label_2
_ccdc_geom_bond_type
C27   C29   A    
C16   O7    A    
C41   C42   A    
C5    H12   S    
O8    Zn1   S    
C11   H18   S    
C29   H5    S    
N2    Zn1   S    
C12   C23   A    
C1    O3    A    
C23   C42   A    
C30   C35   A    
C16   O6    A    
O4    Zn1   S    
C3    C7    A    
C8    H15   S    
C5    C6    A    
C39   H13   S    
C18   C19   A    
C21   H20   S    
C25   N2    A    
C39   O2    D    
C2    C44   A    
C8    C9    A    
C6    C38   S    
C1    C15   S    
C9    C10   A    
C17   H14   S    
C22   H3    S    
N1    Zn2   S    
C13   C14   A    
O3    Zn2   S    
C7    C31   A    
C13   C19   A    
C24   H4    S    
C7    H2    S    
C24   C25   A    
C25   C26   A    
C1    O1    A    
C42   H1    S    
C43   C44   A    
C27   N1    A    
C43   H10   S    
C32   H6    S    
C17   C18   A    
C12   C35   A    
C28   O9    A    
C41   H9    S    
C4    O5    A    
C40   C41   A    
C38   N4    T    
C3    C40   A    
O6    Zn1   S    
C22   C24   A    
O1    Zn1   S    
C10   H17   S    
C12   C34   A    
C28   O8    A    
C4    O4    A    
O7    Zn2   S    
O9    Zn2   S    
C15   C17   A    
C8    C14   A    
C30   C33   A    
C26   N1    A    
C28   C31   S    
C34   C43   A    
C39   C44   S    
C33   H7    S    
C9    H16   S    
C23   C32   A    
C20   H19   S    
C2    C3    A    
C36   H11   S    
C36   O10   D    
C32   C33   A    
C11   C13   A    
C20   C26   A    
C27   C37   S    
C16   C19   S    
C37   N3    T    
O5    Zn2   S    
C6    C31   A    
C10   C11   A    
C29   N2    A    
C2    C5    A    
C20   C21   A    
C35   H8    S    
C14   C15   A    
C34   C40   A    
C21   C22   A    
C18   C36   S    
C4    C30   S    
