data_mof_unit_24016.cif
_audit_creation_date              2013-03-05T16:01:36-0500
_audit_creation_method            fapswitch 2.2
_symmetry_space_group_name_H-M    P1
_symmetry_Int_Tables_number       1
_space_group_crystal_system       triclinic
_cell_length_a                    14.22098
_cell_length_b                    15.085358
_cell_length_c                    15.523895
_cell_angle_alpha                 86.106331
_cell_angle_beta                  69.397043
_cell_angle_gamma                 89.188691
_cell_volume                      3109.95200827

loop_
_atom_site_label
_atom_site_type_symbol
_atom_site_description
_atom_site_fract_x
_atom_site_fract_y
_atom_site_fract_z
_atom_type_partial_charge
O1    O     O_R   0.419720 0.632140 0.499980 -0.577195
O2    O     O_R   0.580280 0.367860 0.500020 -0.585345
O3    O     O_R   0.580270 0.632160 0.499970 -0.564246
O4    O     O_R   0.419730 0.367840 0.500030 -0.549385
C1    C     C_R   0.502203 0.673080 0.493075 0.885458
C2    C     C_R   0.499124 0.326740 0.503791 0.905202
O5    O     O_R   0.373870 0.499980 0.632250 -0.602167
O6    O     O_R   0.626130 0.500020 0.367750 -0.616749
O7    O     O_R   0.534420 0.500000 0.632240 -0.556296
O8    O     O_R   0.465580 0.500000 0.367760 -0.543997
C3    C     C_R   0.438031 0.501649 0.675664 0.927296
C4    C     C_R   0.562089 0.497082 0.324515 0.902522
Zn1   Zn    Zn3+2 0.392800 0.499980 0.500010 1.117194
Zn2   Zn    Zn3+2 0.607200 0.500020 0.499990 1.099721
C5    C     C_R   0.403083 0.488534 0.776919 -0.198696
C6    C     C_R   0.598476 0.478480 0.226073 -0.210102
C7    C     C_R   0.280669 0.416930 0.915435 0.298127
C8    C     C_R   0.738463 0.444474 0.087551 0.321764
C9    C     C_R   0.308549 0.450682 0.823949 -0.240558
C10   C     C_R   0.700813 0.462338 0.180836 -0.216851
C11   C     C_R   0.470532 0.497406 0.823930 0.297352
C12   C     C_R   0.530929 0.468081 0.178985 0.298646
C13   C     C_R   0.451030 0.450937 0.910564 -0.070249
C14   C     C_R   0.566879 0.438912 0.088945 -0.031269
C15   C     C_R   0.351620 0.417778 0.961078 -0.126258
C16   C     C_R   0.671447 0.442312 0.038228 -0.120368
C17   C     C_R   0.527323 0.440223 0.949886 0.032489
C18   C     C_R   0.499065 0.420072 0.044420 0.061365
C19   C     C_R   0.403242 0.384017 0.092971 -0.123686
C20   C     C_R   0.631005 0.446985 0.898187 -0.151311
C21   C     C_R   0.328370 0.385672 0.054389 0.316873
C22   C     C_R   0.703326 0.447807 0.940549 0.327566
H1    H     H_    0.752268 0.463380 0.218205 0.241728
H2    H     H_    0.257522 0.442304 0.787715 0.258314
H3    H     H_    0.385368 0.356088 0.162876 0.238430
H4    H     H_    0.657508 0.450685 0.824320 0.242030
C23   C     C_R   0.499699 0.175970 0.578341 0.081328
C24   C     C_R   0.506538 0.821961 0.409732 0.079875
C25   C     C_R   0.501693 0.230876 0.500639 -0.144685
C26   C     C_R   0.504599 0.769484 0.489362 -0.124619
C27   C     C_R   0.506743 0.193965 0.418559 0.285372
C28   C     C_R   0.513779 0.808269 0.565326 0.270443
C29   C     C_R   0.498615 0.101106 0.417758 -0.105654
C30   C     C_R   0.525426 0.900686 0.563108 -0.123628
C31   C     C_R   0.512847 0.047083 0.490357 -0.021983
C32   C     C_R   0.511322 0.954055 0.489620 -0.011652
C33   C     C_R   0.525146 0.086343 0.565691 -0.019064
C34   C     C_R   0.493123 0.914559 0.416682 -0.005069
C35   C     C_R   0.469972 0.061374 0.350738 0.244085
C36   C     C_R   0.550709 0.941581 0.631638 0.220030
C37   C     C_R   0.460861 0.968634 0.354030 0.157148
C38   C     C_R   0.553455 0.033837 0.630928 0.197001
C39   C     C_R   0.179499 0.440756 0.556932 0.393700
C40   C     C_R   0.817586 0.562813 0.446052 0.403150
N1    N     N_R   0.249980 0.499930 0.499960 -0.204447
N2    N     N_R   0.750020 0.500070 0.500040 -0.203716
C41   C     C_R   0.220797 0.564145 0.448011 0.413874
C42   C     C_R   0.780913 0.433710 0.548286 0.410625
C43   C     C_R   0.122269 0.563678 0.442281 -0.174271
C44   C     C_R   0.882066 0.430183 0.547556 -0.183885
C45   C     C_R   0.052278 0.497711 0.494917 0.001645
C46   C     C_R   0.951221 0.497503 0.495263 0.004322
C47   C     C_R   0.082956 0.432981 0.549082 -0.165612
C48   C     C_R   0.919851 0.563800 0.442287 -0.178068
C49   C     C_R   0.091745 0.626556 0.385272 0.234927
C50   C     C_R   0.917597 0.360497 0.594817 0.250457
C51   C     C_R   0.992562 0.627318 0.385869 0.247939
C52   C     C_R   0.016620 0.361848 0.594697 0.270754
N3    N     N_R   0.227568 0.365739 0.115215 0.250268
O9    O     O_R   0.209635 0.295734 0.172592 -0.252144
O10   O     O_R   0.159380 0.426855 0.127980 -0.256114
N4    N     N_R   0.805078 0.470156 0.883473 0.254927
O11   O     O_R   0.846025 0.434225 0.805215 -0.291504
O12   O     O_R   0.848431 0.539316 0.899608 -0.281508
N5    N     N_R   0.193571 0.402943 0.638330 0.212500
O13   O     O_R   0.252376 0.335690 0.633881 -0.369152
O14   O     O_R   0.130304 0.422300 0.718358 -0.312860
N6    N     N_R   0.784649 0.624909 0.389999 0.213605
O15   O     O_R   0.798242 0.607343 0.305624 -0.388319
O16   O     O_R   0.760821 0.704847 0.416243 -0.342333
N7    N     N_R   0.284771 0.639309 0.411715 0.218968
O17   O     O_R   0.267104 0.711324 0.456187 -0.307453
O18   O     O_R   0.347630 0.641558 0.327701 -0.317471
N8    N     N_R   0.709454 0.367601 0.599352 0.220111
O19   O     O_R   0.708488 0.291653 0.564674 -0.335093
O20   O     O_R   0.658749 0.377235 0.685784 -0.421325
N9    N     N_R   0.162217 0.687042 0.319918 0.262004
O21   O     O_R   0.160093 0.770815 0.335518 -0.191930
O22   O     O_R   0.209410 0.663044 0.236834 -0.204706
N10   N     N_R   0.858109 0.282758 0.636642 0.264066
O23   O     O_R   0.806337 0.278042 0.724596 -0.225592
O24   O     O_R   0.877123 0.209942 0.593478 -0.219541
N11   N     N_R   0.969509 0.692482 0.324900 0.257900
O25   O     O_R   0.992753 0.676875 0.238485 -0.231166
O26   O     O_R   0.952833 0.773905 0.348690 -0.231606
N12   N     N_R   0.052501 0.284638 0.632491 0.255399
O27   O     O_R   0.120079 0.235093 0.577890 -0.269700
O28   O     O_R   0.010500 0.258576 0.719224 -0.192412
N13   N     N_R   0.432173 0.505924 0.211890 0.215881
O29   O     O_R   0.411437 0.571296 0.162517 -0.281244
O30   O     O_R   0.358278 0.462680 0.274908 -0.325020
N14   N     N_R   0.542887 0.569267 0.796004 0.238905
O31   O     O_R   0.531779 0.634170 0.849723 -0.237808
O32   O     O_R   0.626700 0.564009 0.726637 -0.307267
N15   N     N_R   0.186003 0.370661 0.954338 0.250458
O33   O     O_R   0.106602 0.405791 0.943284 -0.191206
O34   O     O_R   0.183713 0.286642 0.980422 -0.296209
N16   N     N_R   0.842491 0.421513 0.047218 0.258129
O35   O     O_R   0.909452 0.459003 0.072697 -0.244410
O36   O     O_R   0.867846 0.352763 0.997937 -0.229502
C53   C     C_3   0.433516 0.199755 0.674562 -0.442010
C54   C     C_3   0.486027 0.254314 0.723810 -0.280768
C55   C     C_3   0.435262 0.241027 0.828170 -0.697916
H5    H     H_    0.355781 0.261195 0.848458 0.268916
H6    H     H_    0.437205 0.170380 0.852200 0.313145
H7    H     H_    0.475317 0.280620 0.862256 0.254383
H8    H     H_    0.565087 0.235039 0.706366 0.332971
H9    H     H_    0.483618 0.325357 0.701889 0.218614
H10   H     H_    0.367220 0.236444 0.670876 0.259176
H11   H     H_    0.401271 0.137854 0.717514 0.243416
C56   C     C_3   0.533806 0.781651 0.316363 -0.415274
C57   C     C_3   0.638242 0.740573 0.283480 -0.370401
C58   C     C_3   0.669440 0.716203 0.183304 -0.656661
H12   H     H_    0.612713 0.671024 0.174895 0.253479
H13   H     H_    0.677180 0.776989 0.136671 0.286582
H14   H     H_    0.742899 0.681972 0.163088 0.295106
H15   H     H_    0.694483 0.787777 0.289671 0.299954
H16   H     H_    0.636641 0.678957 0.326257 0.261291
H17   H     H_    0.478074 0.730851 0.320664 0.281797
H18   H     H_    0.535085 0.831664 0.260773 0.261911
N17   N     N_R   0.521664 0.250748 0.336749 0.193971
O37   O     O_R   0.605062 0.247005 0.266659 -0.333219
O38   O     O_R   0.450524 0.303008 0.330506 -0.327568
N18   N     N_R   0.513680 0.751981 0.643403 0.216674
O39   O     O_R   0.597888 0.718689 0.645037 -0.234533
O40   O     O_R   0.429071 0.721725 0.703355 -0.326504
N19   N     N_R   0.433036 0.114410 0.289551 0.262410
O41   O     O_R   0.341461 0.143690 0.319251 -0.244245
O42   O     O_R   0.487289 0.126239 0.202435 -0.249062
N20   N     N_R   0.581178 0.891098 0.698696 0.268241
O43   O     O_R   0.515690 0.870974 0.780445 -0.216457
O44   O     O_R   0.676403 0.881180 0.684477 -0.217396
N21   N     N_R   0.401474 0.931340 0.306766 0.221591
O45   O     O_R   0.327858 0.876823 0.351536 -0.226141
O46   O     O_R   0.419879 0.951834 0.219552 -0.251602
N22   N     N_R   0.598082 0.073727 0.688681 0.214566
O47   O     O_R   0.564597 0.054214 0.777249 -0.296055
O48   O     O_R   0.685325 0.112606 0.650607 -0.228581

loop_
_geom_bond_atom_site_label_1
_geom_bond_atom_site_label_2
_geom_bond_distance
_ccdc_geom_bond_type
C15   C21   1.419303 A    
Zn2   N2    2.031325 S    
N9    O21   1.300754 A    
C16   C22   1.418416 A    
N11   O25   1.301111 A    
C35   N19   1.433269 S    
C50   C52   1.407975 A    
C53   C54   1.524517 S    
C8    C16   1.418968 A    
C56   H18   1.102352 S    
O7    Zn2   1.946958 S    
Zn1   N1    2.031324 S    
N7    O17   1.300777 A    
C58   H12   1.110898 S    
C50   N10   1.432002 S    
O2    C2    1.299228 A    
C31   C32   1.404717 A    
O5    C3    1.312682 A    
N15   O34   1.301406 A    
C52   N12   1.436070 S    
O1    C1    1.300718 A    
C44   C46   1.418437 A    
C18   C19   1.401192 A    
N8    O20   1.297684 A    
C55   H5    1.105479 S    
C42   N8    1.417760 S    
N3    O9    1.301393 A    
C54   H8    1.099597 S    
N6    O16   1.301136 A    
C58   H13   1.110698 S    
C42   C44   1.434809 A    
N21   O45   1.300024 A    
O4    Zn1   2.024503 S    
C38   N22   1.432911 S    
N16   O35   1.301471 A    
C53   H10   1.103335 S    
C31   C33   1.410666 A    
C57   H15   1.111534 S    
N3    O10   1.301484 A    
C46   C48   1.417559 A    
C3    C5    1.472292 S    
C34   C37   1.420423 A    
C4    C6    1.476313 S    
N16   O36   1.301505 A    
C35   C37   1.402642 A    
N12   O28   1.301153 A    
C36   C38   1.391994 A    
C13   C17   1.422553 A    
C23   C33   1.403490 A    
C24   C34   1.413417 A    
C45   C46   1.435302 A    
C6    C10   1.401566 A    
C55   H7    1.107192 S    
C26   C28   1.397933 A    
C44   C50   1.428219 A    
N11   O26   1.301175 A    
C17   C20   1.410276 A    
C19   C21   1.392505 A    
C27   C29   1.408455 A    
C39   N5    1.427931 S    
C28   C30   1.402947 A    
C54   C55   1.524094 S    
N7    O18   1.294443 A    
C30   C32   1.421825 A    
C49   N9    1.432074 S    
N22   O48   1.300013 A    
C39   N1    1.370377 A    
C11   C13   1.411384 A    
C40   N2    1.368506 A    
C43   C45   1.412057 A    
C36   N20   1.432423 S    
C20   C22   1.402804 A    
C48   C51   1.425170 A    
N20   O43   1.301501 A    
C25   C27   1.403433 A    
C27   N17   1.435078 S    
N6    O15   1.300276 A    
C29   C35   1.413334 A    
C58   H14   1.110155 S    
N18   O40   1.300777 A    
O6    Zn2   1.974297 S    
C49   C51   1.407137 A    
C9    H2    1.076322 S    
C55   H6    1.108213 S    
C53   H11   1.113204 S    
C5    C9    1.393112 A    
N5    O13   1.295480 A    
C7    N15   1.435774 S    
C54   H9    1.105976 S    
N19   O42   1.301092 A    
C21   N3    1.434570 S    
N10   O24   1.301054 A    
N13   O29   1.301963 A    
C5    C11   1.407177 A    
O6    C4    1.310431 A    
N12   O27   1.301161 A    
C45   C47   1.409057 A    
N8    O19   1.300791 A    
N14   O32   1.300827 A    
N5    O14   1.301286 A    
C56   C57   1.527635 S    
N18   O39   1.299815 A    
O3    Zn2   2.024500 S    
O8    C4    1.300047 A    
C11   N14   1.440724 S    
N4    O12   1.301428 A    
N13   O30   1.302358 A    
O7    C3    1.298068 A    
C12   C14   1.408183 A    
O4    C2    1.297782 A    
O1    Zn1   2.035357 S    
C10   H1    1.082828 S    
N17   O37   1.300739 A    
O3    C1    1.296252 A    
N22   O47   1.300788 A    
N19   O41   1.300929 A    
C30   C36   1.416424 A    
N21   O46   1.301221 A    
C47   C52   1.413570 A    
C6    C12   1.412687 A    
C12   N13   1.439169 S    
C14   C18   1.411424 A    
C56   H17   1.092201 S    
N4    O11   1.300541 A    
N17   O38   1.300174 A    
O8    Zn1   1.946960 S    
C33   C38   1.408556 A    
N20   O44   1.301272 A    
C37   N21   1.440031 S    
N15   O33   1.300910 A    
C19   H3    1.080090 S    
C20   H4    1.071362 S    
C28   N18   1.431485 S    
C7    C15   1.423024 A    
N1    C41   1.370790 A    
C29   C31   1.416478 A    
C43   C49   1.419893 A    
C24   C26   1.413956 A    
C39   C47   1.427516 A    
C14   C16   1.416530 A    
N10   O23   1.300857 A    
C40   C48   1.435026 A    
C7    C9    1.394525 A    
N2    C42   1.368710 A    
C8    C10   1.399874 A    
C13   C15   1.431880 A    
C57   H16   1.100730 S    
N14   O31   1.301066 A    
O2    Zn2   2.035359 S    
C41   N7    1.418638 S    
C8    N16   1.436527 S    
C23   C53   1.523027 S    
C24   C56   1.529222 S    
C41   C43   1.435016 A    
C32   C34   1.416421 A    
O5    Zn1   1.974296 S    
C23   C25   1.408104 A    
C1    C26   1.451923 S    
C17   C18   1.391173 A    
C51   N11   1.432669 S    
N9    O22   1.300899 A    
C2    C25   1.449801 S    
C40   N6    1.420487 S    
C57   C58   1.529010 S    
C22   N4    1.436488 S    
