data_mof_unit_38702.cif
_audit_creation_date              2012-12-10T18:57:10-0500
_audit_creation_method            fapswitch 2.2
_symmetry_space_group_name_H-M    P1
_symmetry_Int_Tables_number       1
_space_group_crystal_system       triclinic
_cell_length_a                    10.596368
_cell_length_b                    9.950462
_cell_length_c                    10.755732
_cell_angle_alpha                 92.241671
_cell_angle_beta                  91.229376
_cell_angle_gamma                 92.220436
_cell_volume                      1132.05260746

loop_
_atom_site_label
_atom_site_type_symbol
_atom_type_description
_atom_site_fract_x
_atom_site_fract_y
_atom_site_fract_z
_atom_type_partial_charge
C1    C     C_R   0.260743 0.497927 0.515177 0.859856
C2    C     C_R   0.583156 0.583523 0.945795 0.010621
C3    C     C_R   0.491727 0.496306 0.129387 -0.165314
C4    C     C_R   0.493394 0.508489 0.872103 -0.140660
C5    C     C_R   0.386685 0.439386 0.060614 -0.103873
C6    C     C_R   0.389306 0.442950 0.929198 -0.051259
C7    C     C_3   0.725092 0.617430 0.948585 -0.197574
C8    C     C_3   0.722383 0.597275 0.091414 -0.189829
C9    C     C_R   0.055836 0.372514 0.509135 -0.040681
C10   C     C_R   0.935680 0.381816 0.455510 0.021764
C11   C     C_R   0.875655 0.505770 0.469140 -0.276397
C12   C     C_R   0.739838 0.501881 0.485410 0.904069
C13   C     C_R   0.126185 0.493126 0.536454 -0.204352
C14   C     C_R   0.946712 0.626190 0.499568 -0.001390
C15   C     C_R   0.066373 0.615608 0.553209 -0.027647
C16   C     C_2   0.274343 0.386076 0.127317 0.484133
C17   C     C_2   0.282197 0.384360 0.852412 0.464291
C18   C     C_2   0.806318 0.521264 0.875619 0.541772
C19   C     C_2   0.755924 0.721430 0.173588 0.412094
C20   C     C_2   0.755051 0.762634 0.919805 0.513838
C21   C     C_2   0.787776 0.474589 0.135021 0.283731
C22   C     C_2   0.098467 0.242919 0.559085 0.621000
C23   C     C_R   0.586827 0.079688 0.569577 -0.075301
C24   C     C_2   0.880437 0.271031 0.370491 0.624406
C25   C     C_2   0.908875 0.758453 0.452427 0.461060
C26   C     C_2   0.123488 0.724189 0.639443 0.545016
C27   C     C_2   0.669452 0.160628 0.658054 0.505135
C28   C     C_2   0.314989 0.131516 0.355648 0.450579
C29   C     C_2   0.697548 0.877742 0.630444 0.386808
C30   C     C_2   0.328115 0.839089 0.343930 0.622220
C31   C     C_R   0.412114 0.064887 0.429951 -0.038851
C32   C     C_R   0.590401 0.936679 0.565948 0.008976
C33   C     C_R   0.413427 0.920743 0.429222 0.013447
C34   C     C_R   0.498468 0.497967 0.260947 0.825399
C35   C     C_R   0.502661 0.502731 0.739796 1.005068
C36   C     C_R   0.583176 0.571880 0.070914 0.104686
H1    H     H_    0.257079 0.422476 0.221603 0.057819
H2    H     H_    0.218142 0.716457 0.678091 0.089610
H3    H     H_    0.631702 0.198768 0.744707 0.104143
H4    H     H_    0.333289 0.229922 0.322452 0.119197
H5    H     H_    0.789369 0.929758 0.636152 0.165581
H6    H     H_    0.240228 0.796044 0.377042 0.085730
H7    H     H_    0.261978 0.276554 0.848859 0.113448
H8    H     H_    0.908307 0.530107 0.887690 0.151762
H9    H     H_    0.854672 0.750304 0.191050 0.134144
H10   H     H_    0.680735 0.834866 0.921122 0.101755
H11   H     H_    0.734685 0.380529 0.146046 0.096185
H12   H     H_    0.187056 0.239083 0.610596 0.047512
H13   H     H_    0.782951 0.270160 0.338407 0.035833
H14   H     H_    0.814264 0.774576 0.419566 0.101241
N1    N     N_R   0.500000 0.857200 0.500000 -0.126360
N2    N     N_R   0.500000 0.142810 0.500000 -0.163921
O1    O     O_R   0.316770 0.614620 0.499990 -0.683064
O2    O     O_2   0.213677 0.457655 0.795972 -0.625691
O3    O     O_2   0.760338 0.434266 0.803669 -0.583175
O4    O     O_2   0.674748 0.792758 0.216192 -0.539046
O5    O     O_2   0.863464 0.801964 0.901472 -0.517399
O6    O     O_2   0.901944 0.478852 0.153907 -0.556340
O7    O     O_2   0.031479 0.140250 0.552281 -0.436982
O8    O     O_2   0.946334 0.184075 0.326361 -0.449567
O9    O     O_2   0.986793 0.850513 0.440749 -0.479347
O10   O     O_2   0.062378 0.818850 0.676105 -0.479801
O11   O     O_2   0.781010 0.180921 0.636938 -0.517822
O12   O     O_R   0.683230 0.614620 0.500010 -0.586733
O13   O     O_2   0.211375 0.077659 0.331816 -0.488275
O14   O     O_2   0.685107 0.772672 0.681956 -0.551478
O15   O     O_2   0.352663 0.825863 0.233885 -0.522491
O16   O     O_R   0.316800 0.385290 0.500000 -0.675480
O17   O     O_R   0.683200 0.385290 0.500000 -0.594152
O18   O     O_R   0.500000 0.614690 0.316780 -0.543026
O19   O     O_R   0.500000 0.614690 0.683220 -0.563152
O20   O     O_R   0.500020 0.385360 0.316780 -0.680858
O21   O     O_R   0.499980 0.385360 0.683220 -0.651868
O22   O     O_2   0.200767 0.300779 0.079592 -0.509043
Zn1   Zn    Zn3+2 0.500000 0.653120 0.500000 1.019543
Zn2   Zn    Zn3+2 0.500000 0.346880 0.500000 0.944723

loop_
_geom_bond_atom_site_label_1
_geom_bond_atom_site_label_2
_ccdc_geom_bond_type
C19   O4    D    
C2    C4    A    
C12   O17   A    
C17   H7    S    
C32   N1    A    
C23   C27   S    
C33   N1    A    
C9    C10   A    
C34   O18   A    
C22   H12   S    
C2    C7    S    
C30   C33   S    
C24   O8    D    
C31   N2    A    
O20   Zn2   S    
C7    C18   S    
C26   H2    S    
C23   C32   A    
C3    C5    A    
C15   C26   S    
C31   C33   A    
C8    C21   S    
C26   O10   D    
C4    C35   S    
C35   O19   A    
C7    C8    S    
C22   O7    D    
C25   O9    D    
O19   Zn1   S    
C23   N2    A    
O1    Zn1   S    
C29   H5    S    
C27   O11   D    
C18   O3    D    
C16   O22   D    
C3    C36   A    
C11   C14   A    
O12   Zn1   S    
N1    Zn1   S    
C28   O13   D    
C29   C32   S    
C18   H8    S    
C13   C15   A    
C14   C25   S    
C5    C6    A    
C12   O12   A    
O21   Zn2   S    
C21   H11   S    
C9    C22   S    
C8    C19   S    
O16   Zn2   S    
C10   C11   A    
C28   H4    S    
C29   O14   D    
C11   C12   S    
C34   O20   A    
C21   O6    D    
C1    O16   A    
C1    C13   S    
O18   Zn1   S    
O17   Zn2   S    
C4    C6    A    
C7    C20   S    
C8    C36   S    
C2    C36   A    
C24   H13   S    
C6    C17   S    
C1    O1    A    
C14   C15   A    
C35   O21   A    
C5    C16   S    
C9    C13   A    
C3    C34   S    
C10   C24   S    
C20   O5    D    
C25   H14   S    
C17   O2    D    
C28   C31   S    
C30   H6    S    
C19   H9    S    
C30   O15   D    
C16   H1    S    
C27   H3    S    
N2    Zn2   S    
C20   H10   S    
