data_mof_unit_29031.cif
_audit_creation_date              2012-12-10T17:23:43-0500
_audit_creation_method            fapswitch 2.2
_symmetry_space_group_name_H-M    P1
_symmetry_Int_Tables_number       1
_space_group_crystal_system       triclinic
_cell_length_a                    9.677291
_cell_length_b                    10.856838
_cell_length_c                    17.347358
_cell_angle_alpha                 94.841871
_cell_angle_beta                  85.440412
_cell_angle_gamma                 91.690816
_cell_volume                      1809.86791377

loop_
_atom_site_label
_atom_site_type_symbol
_atom_type_description
_atom_site_fract_x
_atom_site_fract_y
_atom_site_fract_z
_atom_type_partial_charge
C1    C     C_R   0.502651 0.736131 0.494928 0.788155
C2    C     C_R   0.432170 0.396232 0.768420 -0.215956
C3    C     C_R   0.428938 0.587847 0.154990 -0.155010
C4    C     C_R   0.423838 0.575912 0.234341 -0.258579
C5    C     C_R   0.648370 0.480378 0.217779 0.240562
C6    C     C_R   0.642460 0.476671 0.137379 -0.252786
C7    C     C_R   0.532466 0.529462 0.104359 0.099430
C8    C     C_2   0.416330 0.526301 0.978090 -0.105005
C9    C     C_2   0.532817 0.525073 0.017687 -0.074608
C10   C     C_R   0.531478 0.519463 0.266604 -0.050537
C11   C     C_R   0.305294 0.856871 0.407017 -0.167507
C12   C     C_R   0.480955 0.500454 0.648950 0.808578
C13   C     C_R   0.181028 0.907323 0.391558 -0.175189
C14   C     C_R   0.145999 0.023719 0.425418 -0.164692
C15   C     C_R   0.242757 0.096112 0.465708 -0.203044
C16   C     C_R   0.376750 0.051994 0.473738 0.093030
C17   C     C_R   0.397555 0.924799 0.454712 0.107397
C18   C     C_R   0.507408 0.868468 0.486040 -0.105862
C19   C     C_R   0.613335 0.941023 0.518143 -0.220193
C20   C     C_R   0.607532 0.068598 0.522367 -0.211414
C21   C     C_R   0.489922 0.126360 0.501320 -0.118785
C22   C     C_R   0.867051 0.337101 0.393171 -0.072028
C23   C     C_R   0.496868 0.262005 0.501133 0.774806
C24   C     C_R   0.944311 0.261413 0.338346 -0.233783
C25   C     C_R   0.087190 0.265381 0.336262 -0.222113
C26   C     C_R   0.153557 0.341387 0.390961 -0.135043
C27   C     C_R   0.079519 0.421733 0.446661 0.146175
C28   C     C_R   0.930620 0.421187 0.446954 0.137553
C29   C     C_R   0.920678 0.571335 0.553840 0.301079
C30   C     C_R   0.068833 0.574427 0.552136 0.015837
C31   C     C_R   0.519351 0.504765 0.350487 0.772705
C32   C     C_R   0.467064 0.504161 0.732327 -0.066741
C33   C     C_R   0.481732 0.617080 0.775502 -0.237974
C34   C     C_R   0.461642 0.622753 0.855462 -0.200787
C35   C     C_R   0.428989 0.515108 0.892856 0.086126
C36   C     C_R   0.416258 0.398973 0.849704 0.312467
Cu1   Cu    Cu3+1 0.359340 0.500010 0.500010 0.919116
Cu2   Cu    Cu3+1 0.640660 0.499990 0.499990 0.926529
H1    H     H_    0.507116 0.700921 0.747096 0.143525
H2    H     H_    0.726938 0.434430 0.101121 0.130778
H3    H     H_    0.700144 0.899186 0.540931 0.155744
H4    H     H_    0.327287 0.763903 0.382800 0.145488
H5    H     H_    0.108276 0.853014 0.357658 0.135402
H6    H     H_    0.043597 0.058057 0.420349 0.159295
H7    H     H_    0.205977 0.181795 0.494313 0.176617
H8    H     H_    0.693865 0.122282 0.544826 0.166710
H9    H     H_    0.757904 0.327720 0.390124 0.207577
H10   H     H_    0.892637 0.199045 0.297232 0.144829
H11   H     H_    0.337034 0.614398 0.270826 0.155984
H12   H     H_    0.147016 0.205017 0.294152 0.158301
H13   H     H_    0.262508 0.329677 0.389677 0.204724
H14   H     H_    0.351174 0.643492 0.134912 0.156389
H15   H     H_    0.418658 0.311009 0.732515 0.131421
H16   H     H_    0.473636 0.711064 0.888546 0.131860
N1    N     N_R   0.852190 0.498790 0.499250 -0.233540
N2    N     N_R   0.148060 0.498710 0.499220 -0.240562
O1    O     O_R   0.381190 0.680360 0.500010 -0.575030
O2    O     O_R   0.618760 0.680340 0.500000 -0.609266
O3    O     O_R   0.367440 0.500030 0.613600 -0.580408
O4    O     O_R   0.605010 0.500010 0.613590 -0.566812
O5    O     O_R   0.381240 0.319660 0.500000 -0.612113
O6    O     O_R   0.618810 0.319640 0.499990 -0.597140
O7    O     O_R   0.394990 0.499990 0.386410 -0.612261
O8    O     O_R   0.632560 0.499970 0.386400 -0.572018
N3    N     N_2   0.845123 0.646502 0.613320 -0.431570
H17   H     H_    0.757495 0.688779 0.600861 0.288016
C37   C     C_3   0.846838 0.613316 0.692518 -0.665900
H18   H     H_    0.740701 0.598456 0.718294 0.247449
H19   H     H_    0.893776 0.690597 0.728248 0.223830
H20   H     H_    0.904010 0.526892 0.695824 0.213496
C38   C     C_R   0.133742 0.671261 0.604152 0.223962
C39   C     C_R   0.162429 0.648397 0.679807 -0.105746
C40   C     C_R   0.202079 0.745407 0.732309 -0.188280
C41   C     C_R   0.214700 0.865892 0.709757 -0.140607
C42   C     C_R   0.182635 0.890238 0.635572 -0.138819
C43   C     C_R   0.139071 0.793858 0.583829 -0.114432
H21   H     H_    0.149419 0.556165 0.699080 0.125954
H22   H     H_    0.220693 0.727460 0.790956 0.146004
H23   H     H_    0.245896 0.940738 0.750392 0.127668
H24   H     H_    0.187980 0.984175 0.618902 0.138490
H25   H     H_    0.105964 0.814641 0.528519 0.135983
N4    N     N_2   0.772888 0.446688 0.248096 -0.429318
H26   H     H_    0.824967 0.377691 0.214093 0.235011
C44   C     C_3   0.864126 0.551021 0.268293 -0.643071
H27   H     H_    0.960834 0.517877 0.289096 0.230357
H28   H     H_    0.813817 0.615075 0.314598 0.245327
H29   H     H_    0.892503 0.603989 0.217512 0.203622
C45   C     C_R   0.669419 0.514388 0.971396 0.134893
C46   C     C_R   0.740505 0.621153 0.947910 -0.150986
C47   C     C_R   0.861876 0.611098 0.898554 -0.133309
C48   C     C_R   0.914480 0.494712 0.873662 -0.078098
C49   C     C_R   0.844555 0.388057 0.897111 -0.127128
C50   C     C_R   0.721780 0.397615 0.945303 -0.169428
H30   H     H_    0.700484 0.711774 0.966706 0.113018
H31   H     H_    0.915877 0.693591 0.880138 0.119944
H32   H     H_    0.009241 0.487249 0.836132 0.118799
H33   H     H_    0.884892 0.297939 0.877436 0.124952
H34   H     H_    0.667032 0.314400 0.962009 0.126940
N5    N     N_2   0.385793 0.287932 0.887834 -0.434846
H35   H     H_    0.392006 0.295158 0.946976 0.245598
C51   C     C_3   0.439954 0.172651 0.850961 -0.741192
H36   H     H_    0.421762 0.098547 0.891274 0.218312
H37   H     H_    0.553341 0.182339 0.835941 0.231829
H38   H     H_    0.385342 0.143374 0.798374 0.230327
C52   C     C_R   0.273637 0.545099 0.012965 0.120500
C53   C     C_R   0.209493 0.657245 0.004828 -0.173559
C54   C     C_R   0.072276 0.675280 0.033103 -0.144406
C55   C     C_R   0.997004 0.580577 0.067774 -0.096484
C56   C     C_R   0.059805 0.468740 0.076547 -0.127326
C57   C     C_R   0.198388 0.450986 0.049587 -0.131360
H39   H     H_    0.265805 0.730967 0.976846 0.116595
H40   H     H_    0.023255 0.761763 0.026659 0.122194
H41   H     H_    0.889544 0.594529 0.087012 0.132993
H42   H     H_    0.000961 0.395579 0.103622 0.119657
H43   H     H_    0.246078 0.364139 0.056586 0.116741

loop_
_geom_bond_atom_site_label_1
_geom_bond_atom_site_label_2
_ccdc_geom_bond_type
C52   C57   A    
C16   C21   A    
C40   C41   A    
C35   C36   A    
C44   H29   S    
C8    C52   S    
C30   C38   S    
C47   H31   S    
C1    C18   S    
C29   C30   A    
C44   H28   S    
C18   C19   A    
C3    C7    A    
C9    C45   S    
C5    C6    A    
C53   C54   A    
C15   C16   A    
C55   C56   A    
C11   H4    S    
C2    C32   A    
C34   C35   A    
C54   H40   S    
C46   H30   S    
C25   H12   S    
C39   H21   S    
C48   H32   S    
Cu2   O2    S    
Cu1   N2    S    
C10   C31   S    
C23   O6    A    
Cu2   N1    S    
C19   C20   A    
C8    C9    D    
N3    C37   S    
C40   H22   S    
C42   H24   S    
C22   H9    S    
C51   H37   S    
C22   C28   A    
C13   C14   A    
C12   C32   S    
C12   O3    A    
Cu1   O7    S    
C28   N1    A    
C49   H33   S    
C33   C34   A    
Cu2   O8    S    
C53   H39   S    
C41   C42   A    
C37   H18   S    
C24   H10   S    
C51   H36   S    
C31   O7    A    
C6    H2    S    
C24   C25   A    
C48   C49   A    
C27   N2    A    
C16   C17   A    
C29   N1    A    
C25   C26   A    
C30   N2    A    
N4    H26   S    
C37   H19   S    
C8    C35   S    
C55   H41   S    
C42   C43   A    
Cu1   Cu2   S    
C1    O1    A    
N5    H35   S    
C23   O5    A    
C54   C55   A    
C20   C21   A    
C17   C18   A    
C26   C27   A    
C33   H1    S    
C44   H27   S    
Cu1   O3    S    
C56   H42   S    
C29   N3    S    
N5    C51   S    
C34   H16   S    
C51   H38   S    
N4    C44   S    
C41   H23   S    
C21   C23   S    
Cu2   O4    S    
C15   H7    S    
C4    C10   A    
C3    C4    A    
C13   H5    S    
C14   H6    S    
C2    C36   A    
C7    C9    S    
C45   C50   A    
C11   C17   A    
C31   O8    A    
C39   C40   A    
C2    H15   S    
C43   H25   S    
Cu1   O5    S    
C3    H14   S    
C6    C7    A    
C52   C53   A    
C4    H11   S    
C37   H20   S    
C32   C33   A    
C5    C10   A    
C26   H13   S    
C5    N4    S    
C11   C13   A    
C47   C48   A    
C38   C43   A    
C57   H43   S    
C49   C50   A    
C36   N5    S    
C22   C24   A    
C20   H8    S    
C12   O4    A    
C38   C39   A    
C45   C46   A    
N3    H17   S    
C56   C57   A    
C27   C28   A    
C14   C15   A    
C46   C47   A    
C1    O2    A    
C50   H34   S    
Cu1   O1    S    
C19   H3    S    
Cu2   O6    S    
