data_mof_unit_49782.cif
_audit_creation_date              2012-12-10T17:08:49-0500
_audit_creation_method            fapswitch 2.2
_symmetry_space_group_name_H-M    P1
_symmetry_Int_Tables_number       1
_space_group_crystal_system       triclinic
_cell_length_a                    27.787796
_cell_length_b                    11.046426
_cell_length_c                    9.818619
_cell_angle_alpha                 111.44659
_cell_angle_beta                  97.880689
_cell_angle_gamma                 91.135278
_cell_volume                      2770.69652224

loop_
_atom_site_label
_atom_site_type_symbol
_atom_type_description
_atom_site_fract_x
_atom_site_fract_y
_atom_site_fract_z
_atom_type_partial_charge
C1    C     C_R   0.497814 0.254226 0.440055 0.915611
C2    C     C_R   0.502215 0.745777 0.559945 0.921346
C3    C     C_R   0.102804 0.506519 0.515941 -0.042467
C4    C     C_R   0.897302 0.497981 0.481941 -0.042516
C5    C     C_R   0.128011 0.403007 0.534736 -0.025680
C6    C     C_R   0.872414 0.605599 0.474169 -0.027917
C7    C     C_R   0.102192 0.299208 0.547834 -0.133939
C8    C     C_R   0.898595 0.714274 0.473163 -0.133995
C9    C     C_R   0.129257 0.611547 0.504480 -0.029483
C10   C     C_R   0.870538 0.388669 0.482675 -0.028108
C11   C     C_R   0.354795 0.494325 0.504192 -0.139177
C12   C     C_R   0.645255 0.506622 0.495974 -0.153797
C13   C     C_R   0.973423 0.391753 0.501497 0.043151
C14   C     C_R   0.026531 0.611006 0.491180 0.043084
C15   C     C_R   0.975134 0.610390 0.486602 0.043613
C16   C     C_R   0.025107 0.396122 0.515776 0.043310
C17   C     C_R   0.948836 0.499982 0.489842 0.070695
C18   C     C_R   0.051264 0.504626 0.507779 0.070830
C19   C     C_R   0.945144 0.282022 0.497380 -0.198743
C20   C     C_R   0.054345 0.714474 0.479115 -0.198571
C21   C     C_R   0.894837 0.280990 0.488703 -0.133297
C22   C     C_R   0.104584 0.714543 0.485889 -0.132325
C23   C     C_R   0.407533 0.496713 0.500685 0.870957
C24   C     C_R   0.592483 0.503493 0.499375 0.883000
C25   C     C_R   0.051867 0.295762 0.539065 -0.200133
C26   C     C_R   0.948839 0.717024 0.479526 -0.199026
C27   C     C_2   0.492599 0.115091 0.405884 -0.353839
C28   C     C_2   0.507508 0.884895 0.594091 -0.309854
C29   C     C_2   0.511896 0.061951 0.501920 0.303747
C30   C     C_2   0.488229 0.938049 0.498046 0.216537
C31   C     C_2   0.504140 0.510729 0.081394 0.005879
C32   C     C_2   0.495877 0.489219 0.918589 0.008010
C33   C     C_R   0.178740 0.405421 0.539363 0.554034
C34   C     C_R   0.821687 0.602835 0.469701 0.556811
C35   C     C_R   0.179969 0.609939 0.509141 0.560042
C36   C     C_R   0.819847 0.390057 0.478691 0.556130
C37   C     C_R   0.288294 0.588514 0.635492 -0.060603
C38   C     C_R   0.711741 0.416182 0.362433 -0.067578
C39   C     C_R   0.337970 0.584018 0.628221 -0.217034
C40   C     C_R   0.662088 0.419557 0.370237 -0.226339
C41   C     C_R   0.320786 0.405630 0.387220 0.337579
C42   C     C_R   0.679282 0.593805 0.614333 0.400050
C43   C     C_R   0.271032 0.412241 0.395934 -0.175722
C44   C     C_R   0.729027 0.588063 0.605185 -0.146370
C45   C     C_R   0.254731 0.502946 0.519132 0.280628
C46   C     C_R   0.745345 0.500046 0.480136 0.261319
Cu1   Cu    Cu3+1 0.508480 0.521810 0.644910 1.079554
Cu2   Cu    Cu3+1 0.491520 0.478190 0.355090 1.085467
H1    H     H_    0.533456 0.939882 0.691427 0.212837
H2    H     H_    0.466675 0.060020 0.308528 0.223421
H3    H     H_    0.467675 0.416268 0.845357 0.159572
H4    H     H_    0.532359 0.583634 0.154611 0.165878
H5    H     H_    0.547701 0.623367 0.934785 0.238017
H6    H     H_    0.452269 0.376710 0.065242 0.236368
H7    H     H_    0.244475 0.346505 0.307072 0.183113
H8    H     H_    0.755572 0.652554 0.695127 0.198206
H9    H     H_    0.120811 0.219338 0.564604 0.191456
H10   H     H_    0.880346 0.798749 0.468410 0.190559
H11   H     H_    0.636727 0.352572 0.278433 0.191797
H12   H     H_    0.363353 0.652260 0.718871 0.194531
H13   H     H_    0.724147 0.348198 0.265056 0.169165
H14   H     H_    0.275836 0.658640 0.731345 0.174060
H15   H     H_    0.875025 0.194891 0.487145 0.192034
H16   H     H_    0.124032 0.795981 0.475550 0.192342
H17   H     H_    0.960544 0.193791 0.498736 0.137687
H18   H     H_    0.038521 0.796804 0.461890 0.138217
H19   H     H_    0.035232 0.213189 0.553132 0.138374
H20   H     H_    0.965889 0.805878 0.481046 0.137029
N1    N     N_R   0.203503 0.507275 0.525085 -0.460213
N2    N     N_R   0.796597 0.496673 0.473695 -0.459096
N3    N     N_2   0.478780 0.445430 0.137360 -0.264567
N4    N     N_2   0.521220 0.554570 0.862640 -0.261979
O1    O     O_R   0.504520 0.332330 0.577400 -0.543708
O2    O     O_R   0.495480 0.667670 0.422600 -0.537852
O3    O     O_R   0.490210 0.295500 0.332650 -0.558064
O4    O     O_R   0.509790 0.704500 0.667350 -0.563979
O5    O     O_R   0.437420 0.518430 0.622370 -0.614078
O6    O     O_R   0.562580 0.481570 0.377630 -0.611600
O7    O     O_R   0.423110 0.481600 0.377610 -0.491995
O8    O     O_R   0.576890 0.518400 0.622390 -0.491433
O9    O     O_2   0.203168 0.306611 0.557494 -0.513131
O10   O     O_2   0.797577 0.705495 0.461656 -0.504461
O11   O     O_2   0.794116 0.286714 0.482476 -0.509872
O12   O     O_2   0.205464 0.709060 0.495455 -0.502991
S1    S     S_3+6 0.338400 0.281624 0.232070 0.053806
O13   O     O_2   0.352330 0.341060 0.126324 -0.223448
O14   O     O_2   0.381279 0.218095 0.280300 -0.291606
O15   O     O_3   0.292148 0.167236 0.143626 -0.482056
H21   H     H_    0.288077 0.122301 0.212550 0.366972
S2    S     S_3+6 0.661742 0.715333 0.771629 0.029512
O16   O     O_2   0.619411 0.781142 0.724400 -0.297645
O17   O     O_2   0.647234 0.652754 0.874000 -0.265028
O18   O     O_3   0.708406 0.827925 0.862172 -0.519685
H22   H     H_    0.695466 0.891905 0.946760 0.387247
S3    S     S_3+6 0.431208 0.868878 0.380575 0.032761
O19   O     O_2   0.440551 0.799399 0.224641 -0.242783
O20   O     O_2   0.405941 0.773950 0.429819 -0.276251
O21   O     O_3   0.393612 0.986953 0.383148 -0.474306
H23   H     H_    0.391879 0.035088 0.489322 0.348498
S4    S     S_3+6 0.568855 0.131107 0.619547 0.017890
O22   O     O_2   0.593976 0.226051 0.570008 -0.275716
O23   O     O_2   0.559477 0.200017 0.775621 -0.297948
O24   O     O_3   0.606225 0.012047 0.614678 -0.500829
H24   H     H_    0.633928 0.054603 0.694761 0.400100

loop_
_geom_bond_atom_site_label_1
_geom_bond_atom_site_label_2
_ccdc_geom_bond_type
O18   H22   S    
C27   C29   D    
C8    C26   A    
C14   C18   A    
S3    O19   D    
C25   H19   S    
C31   H4    S    
C37   H14   S    
S3    O21   S    
C32   N4    D    
S1    O13   D    
C30   S3    S    
Cu2   O7    S    
C20   H18   S    
C19   C21   A    
Cu1   O4    S    
C9    C22   A    
C36   O11   S    
C3    C18   A    
Cu2   O6    S    
C12   C42   A    
C8    H10   S    
C24   O8    A    
H6    N3    S    
Cu1   Cu2   S    
C36   N2    A    
C5    C33   A    
C19   H17   S    
C34   N2    A    
C2    O2    A    
C27   H2    S    
C33   N1    A    
C38   H13   S    
C31   N3    D    
C40   H11   S    
C41   C43   A    
Cu2   O3    S    
C42   C44   A    
Cu1   O8    S    
C44   C46   A    
S1    O14   D    
C10   C21   A    
C38   C46   A    
C13   C19   A    
C45   N1    S    
C1    O3    A    
C14   C20   A    
Cu1   O1    S    
C4    C6    A    
C5    C7    A    
C15   C26   A    
C6    C8    A    
S4    O24   S    
C6    C34   A    
C42   S2    S    
C12   C40   A    
C32   H3    S    
C29   C30   S    
C3    C9    A    
Cu2   O2    S    
C28   H1    S    
C44   H8    S    
S2    O17   D    
C31   C32   S    
S4    O23   D    
C23   O5    A    
C11   C39   A    
C43   C45   A    
C4    C17   A    
C43   H7    S    
C20   C22   A    
Cu1   O5    S    
Cu2   N3    S    
C37   C45   A    
C46   N2    S    
C2    O4    A    
S2    O18   S    
C1    C27   S    
S1    O15   S    
C24   O6    A    
C16   C25   A    
C15   C17   A    
C29   S4    S    
C4    C10   A    
C3    C5    A    
C10   C36   A    
C35   O12   S    
S3    O20   D    
C41   S1    S    
C12   C24   S    
C7    C25   A    
C13   C17   A    
C26   H20   S    
C28   C30   D    
C1    O1    A    
C37   C39   A    
C38   C40   A    
S2    O16   D    
C39   H12   S    
C11   C23   S    
S4    O22   D    
C11   C41   A    
Cu1   N4    S    
C21   H15   S    
C22   H16   S    
O15   H21   S    
C35   N1    A    
C16   C18   A    
O21   H23   S    
C13   C16   A    
O24   H24   S    
C9    C35   A    
C14   C15   A    
C2    C28   S    
C34   O10   S    
C23   O7    A    
H5    N4    S    
C33   O9    S    
C7    H9    S    
