data_mof_unit_68590.cif
_audit_creation_date              2012-12-11T15:36:02-0500
_audit_creation_method            fapswitch 2.2
_symmetry_space_group_name_H-M    P1
_symmetry_Int_Tables_number       1
_space_group_crystal_system       triclinic
_cell_length_a                    7.014127
_cell_length_b                    11.669036
_cell_length_c                    36.461236
_cell_angle_alpha                 89.999846
_cell_angle_beta                  87.430808
_cell_angle_gamma                 90.002114
_cell_volume                      2981.28315525

loop_
_atom_site_label
_atom_site_type_symbol
_atom_type_description
_atom_site_fract_x
_atom_site_fract_y
_atom_site_fract_z
_atom_type_partial_charge
O1    O     O_R   0.379730 0.148600 0.662710 -0.506230
O2    O     O_R   0.620270 0.851400 0.337290 -0.506249
O3    O     O_R   0.120270 0.648600 0.337290 -0.506270
O4    O     O_R   0.879730 0.351400 0.662710 -0.506257
O5    O     O_R   0.722480 0.134490 0.741330 -0.537451
O6    O     O_R   0.277520 0.865510 0.258670 -0.537451
O7    O     O_R   0.777520 0.634490 0.258670 -0.537445
O8    O     O_R   0.222480 0.365510 0.741330 -0.537447
O9    O     O_R   0.892880 0.345890 0.741600 -0.547664
O10   O     O_R   0.107120 0.654110 0.258400 -0.547662
O11   O     O_R   0.607120 0.845890 0.258400 -0.547653
O12   O     O_R   0.392880 0.154110 0.741600 -0.547653
C1    C     C_R   0.548668 0.110627 0.753927 0.655237
C2    C     C_R   0.451331 0.889366 0.246070 0.655248
C3    C     C_R   0.951328 0.610633 0.246070 0.655254
C4    C     C_R   0.048672 0.389370 0.753929 0.655226
O13   O     O_R   0.709490 0.135560 0.662990 -0.512401
O14   O     O_R   0.290510 0.864440 0.337010 -0.512399
O15   O     O_R   0.790510 0.635560 0.337010 -0.512454
O16   O     O_R   0.209490 0.364440 0.662990 -0.512450
C5    C     C_R   0.546194 0.108681 0.649903 0.851650
C6    C     C_R   0.453806 0.891313 0.350099 0.851672
C7    C     C_R   0.953808 0.608696 0.350100 0.851716
C8    C     C_R   0.046189 0.391310 0.649902 0.851685
O17   O     O_3   0.552800 0.316610 0.702160 -0.357923
O18   O     O_3   0.447200 0.683390 0.297840 -0.357926
O19   O     O_3   0.947200 0.816610 0.297840 -0.357876
O20   O     O_3   0.052800 0.183390 0.702160 -0.357859
V1    V     V_3+5 0.827630 0.234380 0.702160 1.650304
V2    V     V_3+5 0.172370 0.765620 0.297840 1.650276
V3    V     V_3+5 0.672370 0.734380 0.297840 1.650232
V4    V     V_3+5 0.327630 0.265620 0.702160 1.650266
C9    C     C_R   0.006970 0.673566 0.906440 0.551821
C10   C     C_R   0.993042 0.326511 0.093537 0.551828
C11   C     C_R   0.493067 0.173510 0.093543 0.551852
C12   C     C_R   0.506972 0.826458 0.906446 0.551808
O21   O     O_2   0.042785 0.560652 0.909641 -0.544336
O22   O     O_2   0.957222 0.439425 0.090338 -0.544340
O23   O     O_2   0.457265 0.060592 0.090344 -0.544337
O24   O     O_2   0.542787 0.939374 0.909646 -0.544338
N1    N     N_R   0.968582 0.721049 0.872688 -0.544742
N2    N     N_R   0.031430 0.279023 0.127288 -0.544741
N3    N     N_R   0.531449 0.221000 0.127295 -0.544738
N4    N     N_R   0.468579 0.778972 0.872695 -0.544753
C13   C     C_R   0.934417 0.837542 0.871409 0.552164
C14   C     C_R   0.065602 0.162531 0.128565 0.552136
C15   C     C_R   0.565601 0.337495 0.128573 0.552161
C16   C     C_R   0.434407 0.662478 0.871417 0.552186
C17   C     C_R   0.041584 0.677732 0.803939 -0.029779
C18   C     C_R   0.958443 0.322302 0.196040 -0.029725
C19   C     C_R   0.458421 0.177705 0.196044 -0.029720
C20   C     C_R   0.541580 0.822274 0.803947 -0.029751
C21   C     C_R   0.064164 0.593969 0.775831 -0.100274
C22   C     C_R   0.935864 0.406040 0.224155 -0.100305
C23   C     C_R   0.435797 0.093952 0.224155 -0.100286
C24   C     C_R   0.564192 0.906024 0.775836 -0.100263
C25   C     C_R   0.929953 0.449611 0.816442 -0.173004
C26   C     C_R   0.070013 0.550439 0.183551 -0.173058
C27   C     C_R   0.570078 0.949586 0.183555 -0.173037
C28   C     C_R   0.429938 0.050394 0.816440 -0.173014
C29   C     C_R   0.894523 0.532816 0.843514 -0.052773
C30   C     C_R   0.105443 0.467253 0.156473 -0.052817
C31   C     C_R   0.605494 0.032778 0.156478 -0.052801
C32   C     C_R   0.394525 0.967197 0.843514 -0.052824
C33   C     C_R   0.963901 0.646524 0.839781 0.323858
C34   C     C_R   0.036099 0.353537 0.160199 0.323883
C35   C     C_R   0.536120 0.146485 0.160205 0.323876
C36   C     C_R   0.463900 0.853492 0.839786 0.323835
C37   C     C_R   0.993130 0.860437 0.936138 -0.044548
C38   C     C_R   0.006880 0.139643 0.063836 -0.044576
C39   C     C_R   0.506877 0.360381 0.063844 -0.044577
C40   C     C_R   0.493133 0.639588 0.936147 -0.044551
C41   C     C_R   0.012823 0.741231 0.938450 -0.042788
C42   C     C_R   0.987193 0.258850 0.061526 -0.042769
C43   C     C_R   0.487207 0.241173 0.061533 -0.042788
C44   C     C_R   0.512823 0.758795 0.938457 -0.042771
C45   C     C_R   0.038729 0.691219 0.972723 -0.117231
C46   C     C_R   0.961291 0.308863 0.027252 -0.117227
C47   C     C_R   0.461308 0.191158 0.027260 -0.117235
C48   C     C_R   0.538729 0.808809 0.972731 -0.117214
C49   C     C_R   0.960499 0.908905 0.901919 0.000336
C50   C     C_R   0.039511 0.091172 0.098055 0.000294
C51   C     C_R   0.539499 0.408854 0.098063 0.000324
C52   C     C_R   0.460500 0.591117 0.901928 0.000333
C53   C     C_R   0.022630 0.478017 0.782971 -0.040110
C54   C     C_R   0.977373 0.522002 0.217023 -0.040105
C55   C     C_R   0.477382 0.978002 0.217023 -0.040154
C56   C     C_R   0.522617 0.021979 0.782970 -0.040098
H1    H     H_    0.881561 0.362615 0.821486 0.105847
H2    H     H_    0.118375 0.637444 0.178510 0.105853
H3    H     H_    0.618483 0.862592 0.178516 0.105865
H4    H     H_    0.381543 0.137390 0.821482 0.105854
H5    H     H_    0.815095 0.506302 0.868097 0.141173
H6    H     H_    0.184853 0.493789 0.131890 0.141198
H7    H     H_    0.684925 0.006257 0.131896 0.141186
H8    H     H_    0.315105 0.993714 0.868097 0.141185
H9    H     H_    0.054356 0.599290 0.975539 0.159157
H10   H     H_    0.945667 0.400793 0.024437 0.159148
H11   H     H_    0.445697 0.099227 0.024444 0.159152
H12   H     H_    0.554356 0.900738 0.975547 0.159150
C57   C     C_R   0.024392 0.948745 0.034919 0.030418
C58   C     C_R   0.975614 0.051335 0.965055 0.030428
C59   C     C_R   0.475616 0.448688 0.965063 0.030426
C60   C     C_R   0.524376 0.551281 0.034928 0.030436
C61   C     C_R   0.977392 0.121267 0.997089 0.021863
C62   C     C_R   0.022617 0.878815 0.002884 0.021851
C63   C     C_R   0.522610 0.621212 0.002893 0.021846
C64   C     C_R   0.477392 0.378757 0.997098 0.021867
C65   C     C_R   0.001647 0.069507 0.031831 0.065487
C66   C     C_R   0.998360 0.930574 0.968143 0.065490
C67   C     C_R   0.498359 0.569452 0.968152 0.065481
C68   C     C_R   0.501641 0.430517 0.031840 0.065491
C69   C     C_R   0.049140 0.902342 0.070237 -0.168034
C70   C     C_R   0.950861 0.097737 0.929736 -0.168063
C71   C     C_R   0.450868 0.402286 0.929745 -0.168081
C72   C     C_R   0.549108 0.597686 0.070247 -0.168034
C73   C     C_R   0.057824 0.972136 0.100959 -0.082088
C74   C     C_R   0.942178 0.027941 0.899014 -0.082121
C75   C     C_R   0.442183 0.472081 0.899023 -0.082124
C76   C     C_R   0.557795 0.527891 0.100968 -0.082110
O25   O     O_2   0.138012 0.114112 0.158152 -0.540391
O26   O     O_2   0.862028 0.885958 0.841819 -0.540384
O27   O     O_2   0.361992 0.614060 0.841830 -0.540365
O28   O     O_2   0.638001 0.385920 0.158160 -0.540385
C77   C     C_R   0.043477 0.758102 0.004220 -0.164909
C78   C     C_R   0.956539 0.241980 0.995754 -0.164906
C79   C     C_R   0.456549 0.258042 0.995763 -0.164900
C80   C     C_R   0.543474 0.741926 0.004228 -0.164921
H13   H     H_    0.080923 0.931928 0.127180 0.155252
H14   H     H_    0.919076 0.068147 0.872793 0.155241
H15   H     H_    0.419082 0.431874 0.872802 0.155243
H16   H     H_    0.580884 0.568100 0.127190 0.155248
H17   H     H_    0.065347 0.812158 0.075320 0.118581
H18   H     H_    0.934650 0.187920 0.924653 0.118585
H19   H     H_    0.434661 0.312101 0.924662 0.118590
H20   H     H_    0.565296 0.687871 0.075330 0.118581
H21   H     H_    0.063467 0.711446 0.029198 0.132426
H22   H     H_    0.936554 0.288637 0.970776 0.132427
H23   H     H_    0.436564 0.211385 0.970784 0.132426
H24   H     H_    0.563470 0.788582 0.029207 0.132427
C81   C     C_R   0.938139 0.529586 0.382418 -0.196302
C82   C     C_R   0.061844 0.470427 0.617585 -0.196325
C83   C     C_R   0.561908 0.029554 0.617587 -0.196258
C84   C     C_R   0.438094 0.970438 0.382416 -0.196199
C85   C     C_R   0.780505 0.368436 0.413746 -0.152375
C86   C     C_R   0.219446 0.631580 0.586256 -0.152359
C87   C     C_R   0.719851 0.868550 0.586235 -0.152279
C88   C     C_R   0.280193 0.131463 0.413761 -0.152319
C89   C     C_R   0.796338 0.442078 0.383875 0.377192
C90   C     C_R   0.203659 0.557924 0.616124 0.377234
C91   C     C_R   0.703906 0.942159 0.616114 0.377426
C92   C     C_R   0.296153 0.057858 0.383883 0.377351
C93   C     C_R   0.038780 0.551387 0.414638 0.302423
C94   C     C_R   0.961137 0.448655 0.585372 0.302393
C95   C     C_R   0.461101 0.051251 0.585380 0.302397
C96   C     C_R   0.538829 0.948723 0.414630 0.302398
C97   C     C_R   0.980106 0.495530 0.448316 0.004453
C98   C     C_R   0.019761 0.504519 0.551693 0.004453
C99   C     C_R   0.519836 0.995472 0.551693 0.004408
C100  C     C_R   0.480081 0.004515 0.448315 0.004437
C101  C     C_R   0.870541 0.394273 0.445888 -0.000107
C102  C     C_R   0.129346 0.605765 0.554119 -0.000130
C103  C     C_R   0.629679 0.894328 0.554104 -0.000050
C104  C     C_R   0.370283 0.105671 0.445900 -0.000046
C105  C     C_R   0.020789 0.535651 0.484268 0.082182
C106  C     C_R   0.979041 0.464403 0.515743 0.082179
C107  C     C_R   0.478982 0.035581 0.515748 0.082096
C108  C     C_R   0.520902 0.964411 0.484262 0.082081
C109  C     C_R   0.911392 0.352737 0.509796 -0.120393
C110  C     C_R   0.088429 0.647319 0.490215 -0.120391
C111  C     C_R   0.588862 0.852814 0.490193 -0.120178
C112  C     C_R   0.411025 0.147179 0.509816 -0.120182
C113  C     C_R   0.847074 0.320932 0.475917 -0.170470
C114  C     C_R   0.152777 0.679114 0.524092 -0.170492
C115  C     C_R   0.653267 0.821036 0.524066 -0.170383
C116  C     C_R   0.346662 0.178963 0.475938 -0.170377
H25   H     H_    0.779692 0.237955 0.473105 0.151337
H26   H     H_    0.220178 0.762083 0.526904 0.151353
H27   H     H_    0.720864 0.738126 0.526865 0.151299
H28   H     H_    0.279073 0.261878 0.473135 0.151284
H29   H     H_    0.683453 0.296136 0.413016 0.171898
H30   H     H_    0.316513 0.703872 0.586983 0.171907
H31   H     H_    0.817091 0.796337 0.586950 0.171825
H32   H     H_    0.182989 0.203689 0.413037 0.171842
H33   H     H_    0.907492 0.288181 0.530941 0.202034
H34   H     H_    0.092311 0.711878 0.469072 0.202068
H35   H     H_    0.592937 0.788293 0.469038 0.201998
H36   H     H_    0.406920 0.211700 0.530972 0.201961
Cl1   Cl    Cl    0.748259 0.366660 0.589161 -0.632230
Cl2   Cl    Cl    0.251617 0.633415 0.410857 -0.632266
Cl3   Cl    Cl    0.751937 0.866972 0.410827 -0.632134
Cl4   Cl    Cl    0.247946 0.132965 0.589189 -0.632072
Cl5   Cl    Cl    0.377037 0.577280 0.649162 -0.556119
Cl6   Cl    Cl    0.622995 0.422713 0.350829 -0.556159
Cl7   Cl    Cl    0.122808 0.077176 0.350835 -0.555946
Cl8   Cl    Cl    0.877311 0.922867 0.649153 -0.555901
C117  C     C_1   0.897573 0.369003 0.261623 0.322384
N5    N     N_1   0.872322 0.335952 0.291279 -0.224563
C118  C     C_1   0.102444 0.630978 0.738363 0.322318
N6    N     N_1   0.127735 0.664032 0.708702 -0.224544
C119  C     C_1   0.602628 0.869011 0.738370 0.322381
N7    N     N_1   0.627995 0.835998 0.708714 -0.224671
C120  C     C_1   0.397309 0.130967 0.261616 0.322320
N8    N     N_1   0.371841 0.164024 0.291270 -0.224542
C121  C     C_1   0.910082 0.206163 0.206633 0.359160
N9    N     N_1   0.876220 0.113832 0.216509 -0.329625
C122  C     C_1   0.089943 0.793867 0.793340 0.359159
N10   N     N_1   0.123806 0.886192 0.783460 -0.329594
C123  C     C_1   0.589936 0.706139 0.793351 0.359125
N11   N     N_1   0.623793 0.613808 0.783475 -0.329628
C124  C     C_1   0.410063 0.293842 0.206637 0.359172
N12   N     N_1   0.376204 0.386172 0.216512 -0.329628

loop_
_geom_bond_atom_site_label_1
_geom_bond_atom_site_label_2
_ccdc_geom_bond_type
C26   C30   A    
C120  N8    T    
O1    C5    A    
C105  C106  A    
C31   H7    S    
O13   V1    S    
C119  N7    T    
O3    C7    A    
C10   N2    A    
C40   C44   A    
C103  C115  A    
C16   O27   S    
C28   C56   A    
C81   C89   A    
C121  N9    T    
C112  C116  A    
C86   C102  A    
C62   C77   A    
C11   C43   A    
C18   C22   A    
C22   C117  S    
C17   C33   A    
C61   C78   A    
C74   H14   S    
C100  C104  A    
C47   H11   S    
O20   V1    S    
O9    C4    A    
C63   C80   A    
C94   C98   A    
O10   C3    A    
C32   C36   A    
C62   C66   A    
O4    C8    A    
O11   C2    A    
C29   H5    S    
C24   C56   A    
O18   V3    S    
C57   C65   A    
C85   H29   S    
C57   C62   A    
C57   C69   A    
C58   C61   A    
C59   C67   A    
N2    C14   A    
O16   C8    A    
C61   C65   A    
C12   C44   A    
C14   C50   A    
C108  C111  A    
C109  C113  A    
C64   C79   A    
C17   C122  S    
C8    C82   S    
C46   H10   S    
C75   H15   S    
C14   O25   S    
C45   H9    S    
C59   C64   A    
O14   V2    S    
C15   C51   A    
C11   N3    A    
C72   C76   A    
C114  H26   S    
O5    C1    A    
O4    V1    S    
C20   C36   A    
C12   N4    A    
O9    V1    S    
C64   C68   A    
C73   H13   S    
O17   V4    S    
C83   C91   A    
C40   C67   A    
O15   V3    S    
C118  N6    T    
O8    C4    A    
C69   H17   S    
O12   V4    S    
O19   V2    S    
C23   C55   A    
C21   C53   A    
C117  N5    T    
C79   H23   S    
C26   C54   A    
C58   C66   A    
C76   H16   S    
C28   C32   A    
O5    V1    S    
C93   Cl2   S    
C28   H4    S    
O17   V1    S    
C31   C35   A    
C40   C52   A    
O7    V3    S    
C86   H30   S    
C95   C99   A    
C122  N10   T    
C21   C118  S    
C88   C92   A    
C12   O24   S    
C32   H8    S    
C97   C105  A    
C107  C108  A    
C60   C68   A    
C30   C34   A    
O15   C7    A    
C19   C35   A    
C24   C119  S    
C48   C80   A    
C77   H21   S    
C111  C115  A    
C49   C74   A    
O1    V4    S    
O13   C5    A    
C16   C52   A    
O2    V3    S    
C88   C104  A    
C51   C76   A    
C84   C96   A    
O3    V2    S    
C11   O23   S    
C102  C114  A    
C18   C121  S    
C90   Cl5   S    
C38   C42   A    
C59   C71   A    
C58   C70   A    
C38   C65   A    
C19   C124  S    
C89   Cl6   S    
O6    C2    A    
C91   Cl8   S    
C101  C113  A    
C37   C66   A    
O10   V2    S    
C83   C95   A    
C124  N12   T    
O20   V4    S    
C88   H32   S    
C23   C120  S    
C39   C68   A    
C110  H34   S    
C123  N11   T    
C70   H18   S    
C27   H3    S    
C82   C94   A    
C37   C41   A    
C26   H2    S    
C5    C83   S    
C70   C74   A    
C25   H1    S    
C10   C42   A    
C3    C54   S    
C69   C73   A    
C9    C41   A    
O6    V2    S    
C94   Cl1   S    
O18   V2    S    
C71   C75   A    
C30   H6    S    
O19   V3    S    
C20   C123  S    
C99   C103  A    
N4    C36   S    
C46   C78   A    
C97   C101  A    
C45   C77   A    
C98   C106  A    
C22   C54   A    
O16   V4    S    
C87   H31   S    
C105  C110  A    
C86   C90   A    
C47   C79   A    
C78   H22   S    
N1    C13   A    
C92   Cl7   S    
C10   O22   S    
C63   C67   A    
C13   C49   A    
C44   C48   A    
N3    C15   A    
C2    C55   S    
C115  H27   S    
C18   C34   A    
C25   C29   A    
C107  C112  A    
C72   H20   S    
C110  C114  A    
C13   O26   S    
C27   C31   A    
C111  H35   S    
C85   C101  A    
C9    N1    A    
C60   C72   A    
C82   C90   A    
O14   C6    A    
C80   H24   S    
C109  H33   S    
N1    C33   S    
C84   C92   A    
C87   C103  A    
O2    C6    A    
C39   C43   A    
C81   C93   A    
C15   O28   S    
C4    C53   S    
O8    V4    S    
C71   H19   S    
C112  H36   S    
C52   C75   A    
C17   C21   A    
C87   C91   A    
C1    C56   S    
O7    C3    A    
C99   C107  A    
C9    O21   S    
C104  C116  A    
C19   C23   A    
C100  C108  A    
C29   C33   A    
C93   C97   A    
C96   C100  A    
C38   C50   A    
C27   C55   A    
C37   C49   A    
C95   Cl4   S    
C98   C102  A    
O11   V3    S    
C96   Cl3   S    
C20   C24   A    
C116  H28   S    
C85   C89   A    
O12   C1    A    
C106  C109  A    
N3    C35   S    
C42   C46   A    
C6    C84   S    
N2    C34   S    
C41   C45   A    
C7    C81   S    
C39   C51   A    
C50   C73   A    
C113  H25   S    
C43   C47   A    
C25   C53   A    
C60   C63   A    
C48   H12   S    
N4    C16   A    
