data_mof_unit_63896.cif
_audit_creation_date              2012-12-10T18:15:27-0500
_audit_creation_method            fapswitch 2.2
_symmetry_space_group_name_H-M    P1
_symmetry_Int_Tables_number       1
_space_group_crystal_system       triclinic
_cell_length_a                    21.412342
_cell_length_b                    29.189279
_cell_length_c                    29.185106
_cell_angle_alpha                 89.997316
_cell_angle_beta                  90.2637
_cell_angle_gamma                 89.996538
_cell_volume                      18240.8139222

loop_
_atom_site_label
_atom_site_type_symbol
_atom_type_description
_atom_site_fract_x
_atom_site_fract_y
_atom_site_fract_z
_atom_type_partial_charge
C1    C     C_R   0.000104 0.999994 0.086740 0.921228
C2    C     C_1   0.999939 0.999995 0.770576 0.001813
C3    C     C_3   0.310888 0.499948 0.500890 -0.181632
C4    C     C_1   0.000155 1.000000 0.137406 -0.208739
C5    C     C_1   0.999848 0.000004 0.862594 -0.208652
C6    C     C_1   0.500154 0.499999 0.637406 -0.208743
C7    C     C_1   0.499848 0.500004 0.362594 -0.208679
C8    C     C_3   0.246627 0.997943 0.120149 0.085556
C9    C     C_3   0.219766 0.982947 0.166163 -0.317600
C10   C     C_3   0.265206 0.992715 0.205385 -0.965066
C11   C     C_3   0.753335 0.996785 0.879869 0.085543
C12   C     C_3   0.780158 0.981313 0.834001 -0.317608
C13   C     C_1   0.500063 0.499991 0.729424 0.001795
C14   C     C_3   0.734714 0.990730 0.794694 -0.965078
C15   C     C_3   0.746761 0.112398 0.044736 0.106568
C16   C     C_3   0.749936 0.151800 0.010260 -0.353542
C17   C     C_3   0.697541 0.186349 0.018072 -0.950628
C18   C     C_3   0.253223 0.111938 0.954145 0.106601
C19   C     C_3   0.250013 0.151665 0.988242 -0.353480
C20   C     C_3   0.302418 0.186131 0.980132 -0.950709
C21   C     C_3   0.746639 0.497528 0.620140 0.085555
C22   C     C_3   0.719792 0.482363 0.666103 -0.317603
C23   C     C_3   0.765239 0.491999 0.705354 -0.965076
C24   C     C_1   0.499939 0.499996 0.270576 0.001809
C25   C     C_3   0.253329 0.496761 0.379869 0.085546
C26   C     C_3   0.280171 0.481308 0.334000 -0.317602
C27   C     C_3   0.234710 0.490690 0.294695 -0.965078
C28   C     C_3   0.246760 0.612401 0.544729 0.106566
C29   C     C_3   0.249935 0.651801 0.510251 -0.353539
C30   C     C_3   0.197539 0.686349 0.518061 -0.950626
C31   C     C_3   0.753222 0.612099 0.454536 0.106586
C32   C     C_3   0.750020 0.651707 0.488771 -0.353504
C33   C     C_3   0.802424 0.686201 0.480772 -0.950682
C34   C     C_3   0.247807 0.884371 0.047594 -0.739011
C35   C     C_1   0.999931 0.999990 0.271624 0.003586
C36   C     C_3   0.752166 0.883922 0.953557 -0.738792
C37   C     C_3   0.755431 0.014416 0.124595 -0.789385
C38   C     C_3   0.244604 0.013147 0.875253 -0.789356
C39   C     C_3   0.747822 0.384209 0.547192 -0.738930
C40   C     C_3   0.252167 0.383920 0.453559 -0.738800
C41   C     C_3   0.255432 0.514423 0.624594 -0.789386
C42   C     C_3   0.744592 0.513593 0.375302 -0.789362
C43   C     C_1   0.000073 0.999992 0.728376 0.003603
C44   C     C_1   0.499929 0.499989 0.771624 0.003591
C45   C     C_1   0.500073 0.499992 0.228376 0.003602
C46   C     C_1   0.999763 0.999988 0.321449 0.000839
C47   C     C_1   0.000239 0.999990 0.678550 0.000849
C48   C     C_1   0.499762 0.499988 0.821450 0.000842
C49   C     C_R   0.999897 0.999996 0.913260 0.921178
C50   C     C_1   0.500239 0.499990 0.178550 0.000849
C51   C     C_1   0.999705 0.999989 0.363653 -0.203796
C52   C     C_1   0.000295 0.999989 0.636347 -0.203793
C53   C     C_1   0.499705 0.499988 0.863653 -0.203795
C54   C     C_1   0.500295 0.499989 0.136347 -0.203792
C55   C     C_R   0.500000 0.086705 0.999999 0.910188
C56   C     C_R   1.000000 0.586705 0.499999 0.910190
C57   C     C_R   0.377372 0.999260 0.999811 0.957229
C58   C     C_R   0.622628 0.999281 0.000190 0.957262
C59   C     C_R   0.877372 0.499265 0.499811 0.957234
C60   C     C_R   0.500104 0.499994 0.586740 0.921183
C61   C     C_R   0.122628 0.499280 0.500190 0.957255
C62   C     C_R   0.500001 0.913187 0.000001 0.912822
C63   C     C_R   0.000001 0.413187 0.500001 0.912808
C64   C     C_R   0.999998 0.085643 0.500000 0.878718
C65   C     C_R   0.499998 0.585643 0.000000 0.878717
C66   C     C_R   0.999882 0.999989 0.414332 0.878614
C67   C     C_R   0.000118 0.999989 0.585668 0.878613
C68   C     C_R   0.499882 0.499989 0.914332 0.878613
C69   C     C_R   0.500118 0.499989 0.085668 0.878614
C70   C     C_R   0.122597 0.000009 0.999583 0.995700
C71   C     C_R   0.499897 0.499996 0.413260 0.921132
C72   C     C_R   0.877402 0.000013 0.000383 0.995392
C73   C     C_R   0.622597 0.500009 0.499590 0.995592
C74   C     C_R   0.377402 0.500013 0.500383 0.995397
C75   C     C_R   0.000002 0.914322 0.500000 0.878421
C76   C     C_R   0.500002 0.414322 1.000000 0.878421
C77   C     C_1   0.500001 0.137375 0.999996 -0.240273
C78   C     C_1   0.000001 0.637375 0.499997 -0.240273
C79   C     C_1   0.500002 0.179572 0.999995 -0.011325
C80   C     C_1   0.000002 0.679572 0.499995 -0.011355
C81   C     C_1   0.500004 0.229393 0.999994 0.008671
C82   C     C_1   0.000154 0.999997 0.179603 -0.007263
C83   C     C_1   0.000004 0.729393 0.499995 0.008684
C84   C     C_1   0.000005 0.771594 0.499996 0.004116
C85   C     C_1   0.500006 0.271594 0.999995 0.004104
C86   C     C_1   0.000006 0.821427 0.499997 0.000148
C87   C     C_1   0.500006 0.321427 0.999996 0.000150
C88   C     C_1   0.000005 0.863634 0.499998 -0.203966
C89   C     C_1   0.500005 0.363634 0.999998 -0.203966
C90   C     C_1   0.500000 0.862529 0.000003 -0.215739
C91   C     C_1   1.000000 0.362530 0.500003 -0.215750
C92   C     C_1   0.500000 0.820337 0.000003 0.003400
C93   C     C_1   0.999850 0.000001 0.820396 -0.007213
C94   C     C_1   0.999999 0.320337 0.500003 0.003397
C95   C     C_1   0.499998 0.770522 0.000003 0.004711
C96   C     C_1   0.999997 0.270522 0.500003 0.004705
C97   C     C_3   0.229892 0.995166 0.042122 0.464088
C98   C     C_3   0.770095 0.994762 0.957916 0.463975
C99   C     C_3   0.769882 0.039594 0.017538 0.504825
C100  C     C_3   0.230118 0.039401 0.982051 0.504694
C101  C     C_3   0.729895 0.495020 0.542105 0.464062
C102  C     C_3   0.270095 0.494759 0.457916 0.463982
C103  C     C_3   0.269881 0.539595 0.517535 0.504818
C104  C     C_1   0.500153 0.499996 0.679603 -0.007254
C105  C     C_3   0.730116 0.539466 0.482191 0.504737
C106  C     C_1   0.999996 0.228327 0.500002 0.003722
C107  C     C_1   0.499997 0.728327 0.000002 0.003726
C108  C     C_1   0.999995 0.178509 0.500001 0.001663
C109  C     C_1   0.499995 0.678509 0.000001 0.001664
C110  C     C_1   0.999996 0.136312 0.500001 -0.203265
C111  C     C_1   0.499996 0.636312 0.000001 -0.203264
C112  C     C_3   0.271115 0.035417 0.025591 -0.452941
C113  C     C_3   0.728876 0.035181 0.974046 -0.453122
C114  C     C_3   0.771115 0.535331 0.525715 -0.453004
C115  C     C_1   0.499849 0.500001 0.320396 -0.007220
C116  C     C_3   0.228875 0.535179 0.474044 -0.453090
C117  C     C_3   0.310734 0.999527 0.999290 -0.243816
C118  C     C_3   0.689265 0.999560 0.000712 -0.243788
C119  C     C_3   0.810734 0.499536 0.499287 -0.243807
C120  C     C_3   0.189265 0.499559 0.500713 -0.243793
C121  C     C_3   0.269481 0.960204 0.016322 0.185256
C122  C     C_3   0.730514 0.960066 0.984071 0.185400
C123  C     C_3   0.730653 0.004514 0.043517 0.163569
C124  C     C_3   0.269354 0.004060 0.956432 0.163558
C125  C     C_3   0.769484 0.460152 0.516182 0.185296
C126  C     C_1   0.000065 0.999992 0.229424 0.001791
C127  C     C_3   0.230514 0.460064 0.484073 0.185373
C128  C     C_3   0.230654 0.504516 0.543517 0.163570
C129  C     C_3   0.769352 0.504217 0.456447 0.163577
C130  C     C_3   0.228359 0.964031 0.972955 -0.333274
C131  C     C_3   0.771648 0.964319 0.027393 -0.333201
C132  C     C_3   0.728359 0.464129 0.472829 -0.333261
C133  C     C_3   0.271649 0.464321 0.527396 -0.333196
C134  C     C_3   0.189111 0.999929 0.999092 -0.181577
C135  C     C_3   0.810888 0.999948 0.000890 -0.181634
C136  C     C_3   0.689111 0.499933 0.499094 -0.181597
H1    H     H_    0.290913 0.063698 0.046483 0.154603
H2    H     H_    0.291082 0.979032 0.114283 0.139660
H3    H     H_    0.175293 0.001516 0.172512 0.232968
H4    H     H_    0.209625 0.945605 0.165132 0.223995
H5    H     H_    0.309608 0.973771 0.200169 0.263801
H6    H     H_    0.244284 0.981448 0.238253 0.270716
H7    H     H_    0.275195 0.030000 0.207531 0.265642
H8    H     H_    0.743743 0.034225 0.878136 0.147661
H9    H     H_    0.708863 0.977963 0.885935 0.139665
H10   H     H_    0.824651 0.999783 0.827458 0.232963
H11   H     H_    0.790251 0.943975 0.835402 0.223979
H12   H     H_    0.709078 0.063257 0.952875 0.154775
H13   H     H_    0.690286 0.971881 0.800112 0.263810
H14   H     H_    0.755603 0.979116 0.761937 0.270702
H15   H     H_    0.724780 0.028001 0.792174 0.265647
H16   H     H_    0.754604 0.126454 0.079664 0.160145
H17   H     H_    0.698794 0.097346 0.044725 0.141799
H18   H     H_    0.795722 0.169449 0.013664 0.233321
H19   H     H_    0.746057 0.138137 0.974857 0.221384
H20   H     H_    0.651303 0.169620 0.013602 0.267525
H21   H     H_    0.701428 0.214654 0.992830 0.270167
H22   H     H_    0.700861 0.200983 0.053132 0.266407
H23   H     H_    0.790909 0.563539 0.546706 0.154664
H24   H     H_    0.245394 0.125663 0.919083 0.160115
H25   H     H_    0.301196 0.096891 0.954312 0.141946
H26   H     H_    0.204231 0.169287 0.984643 0.233306
H27   H     H_    0.253852 0.138338 0.023776 0.221421
H28   H     H_    0.348652 0.169440 0.984793 0.267516
H29   H     H_    0.298501 0.214676 0.005099 0.270193
H30   H     H_    0.299139 0.200432 0.944932 0.266389
H31   H     H_    0.756258 0.534973 0.621631 0.147663
H32   H     H_    0.791099 0.478646 0.614202 0.139665
H33   H     H_    0.675316 0.500902 0.672524 0.232963
H34   H     H_    0.209077 0.563254 0.452871 0.154778
H35   H     H_    0.709663 0.445024 0.664941 0.223993
H36   H     H_    0.809646 0.473083 0.700064 0.263804
H37   H     H_    0.744329 0.480611 0.738183 0.270714
H38   H     H_    0.775216 0.529278 0.707632 0.265643
H39   H     H_    0.243696 0.534195 0.378138 0.147644
H40   H     H_    0.208877 0.477913 0.385933 0.139678
H41   H     H_    0.324637 0.499812 0.327455 0.232951
H42   H     H_    0.290317 0.443978 0.335402 0.223995
H43   H     H_    0.190314 0.471800 0.300111 0.263813
H44   H     H_    0.255618 0.479098 0.261936 0.270703
H45   H     H_    0.209550 0.935528 0.951828 0.171486
H46   H     H_    0.224713 0.527952 0.292180 0.265643
H47   H     H_    0.254603 0.626459 0.579656 0.160145
H48   H     H_    0.198793 0.597349 0.544719 0.141797
H49   H     H_    0.295721 0.669449 0.513653 0.233322
H50   H     H_    0.246056 0.638136 0.474849 0.221386
H51   H     H_    0.151301 0.669620 0.513592 0.267527
H52   H     H_    0.201427 0.714654 0.492817 0.270167
H53   H     H_    0.200860 0.700986 0.553121 0.266406
H54   H     H_    0.745385 0.625945 0.419522 0.160126
H55   H     H_    0.801194 0.597050 0.454645 0.141900
H56   H     H_    0.790463 0.936026 0.048802 0.171333
H57   H     H_    0.704238 0.669340 0.485239 0.233309
H58   H     H_    0.753869 0.638257 0.524257 0.221412
H59   H     H_    0.848658 0.669495 0.485368 0.267518
H60   H     H_    0.798513 0.714660 0.505838 0.270185
H61   H     H_    0.799136 0.700623 0.445621 0.266397
H62   H     H_    0.328028 0.922820 0.059639 0.218534
H63   H     H_    0.271403 0.852092 0.057922 0.229672
H64   H     H_    0.216495 0.876793 0.018111 0.246050
H65   H     H_    0.219736 0.897030 0.076889 0.257654
H66   H     H_    0.671944 0.922266 0.941143 0.218267
H67   H     H_    0.709552 0.435700 0.451603 0.171433
H68   H     H_    0.728561 0.851546 0.943560 0.229644
H69   H     H_    0.783491 0.876633 0.983107 0.246020
H70   H     H_    0.780225 0.896282 0.924128 0.257661
H71   H     H_    0.674943 0.985327 0.098270 0.248260
H72   H     H_    0.733195 0.020443 0.158351 0.237344
H73   H     H_    0.786296 0.043963 0.117070 0.271361
H74   H     H_    0.783860 0.982626 0.126669 0.234417
H75   H     H_    0.325084 0.984314 0.901890 0.248118
H76   H     H_    0.266852 0.018824 0.841440 0.237336
H77   H     H_    0.213744 0.042779 0.882468 0.271318
H78   H     H_    0.290465 0.436029 0.548806 0.171334
H79   H     H_    0.216169 0.981345 0.873502 0.234412
H80   H     H_    0.828043 0.422621 0.559361 0.218437
H81   H     H_    0.771423 0.351896 0.557404 0.229664
H82   H     H_    0.716503 0.376734 0.517687 0.246041
H83   H     H_    0.719757 0.396765 0.576535 0.257656
H84   H     H_    0.171936 0.422258 0.441157 0.218254
H85   H     H_    0.228564 0.351541 0.443570 0.229648
H86   H     H_    0.283504 0.376637 0.483104 0.246028
H87   H     H_    0.280214 0.396280 0.424124 0.257651
H88   H     H_    0.174943 0.485333 0.598271 0.248261
H89   H     H_    0.256257 0.035392 0.121509 0.147670
H90   H     H_    0.233196 0.520452 0.658350 0.237344
H91   H     H_    0.286296 0.543971 0.617067 0.271361
H92   H     H_    0.283861 0.482634 0.626670 0.234418
H93   H     H_    0.825078 0.484671 0.401830 0.248168
H94   H     H_    0.766836 0.519395 0.341509 0.237338
H95   H     H_    0.713729 0.543195 0.382626 0.271336
H96   H     H_    0.716160 0.481795 0.373437 0.234411
N1    N     N_2   0.294212 0.917919 0.034885 -0.305089
N2    N     N_2   0.705771 0.917603 0.965937 -0.305130
N3    N     N_2   0.707569 0.009819 0.089793 -0.297367
N4    N     N_2   0.292454 0.008895 0.910108 -0.297197
N5    N     N_2   0.794221 0.417804 0.534595 -0.305107
N6    N     N_2   0.205772 0.417599 0.465945 -0.305136
N7    N     N_2   0.207569 0.509824 0.589793 -0.297367
N8    N     N_2   0.792447 0.509219 0.410139 -0.297256
O1    O     O_R   1.000000 0.964340 0.063140 -0.608024
O2    O     O_R   0.000000 0.035640 0.936880 -0.601960
O3    O     O_R   0.500000 0.535640 0.563120 -0.601971
O4    O     O_R   0.500000 0.535640 0.436880 -0.601979
O5    O     O_R   0.093030 0.964340 0.000000 -0.629863
O6    O     O_R   0.906970 0.964340 0.000000 -0.629531
O7    O     O_R   0.593030 0.464340 0.500000 -0.629747
O8    O     O_R   0.406970 0.464340 0.500000 -0.629535
O9    O     O_R   0.093040 0.035640 0.000000 -0.590163
O10   O     O_R   0.906960 0.035640 0.000000 -0.590161
O11   O     O_R   0.593040 0.535640 0.500000 -0.590152
O12   O     O_R   0.000000 0.964340 0.936860 -0.607971
O13   O     O_R   0.406960 0.535640 0.500000 -0.590152
O14   O     O_R   0.500000 0.063090 0.964350 -0.601001
O15   O     O_R   0.500000 0.063090 0.035650 -0.600973
O16   O     O_R   1.000000 0.563090 0.464350 -0.600994
O17   O     O_R   1.000000 0.563090 0.535650 -0.600975
O18   O     O_R   0.406990 0.999940 0.964350 -0.623207
O19   O     O_R   0.593010 0.999940 0.035650 -0.623271
O20   O     O_R   0.593010 0.999940 0.964350 -0.632450
O21   O     O_R   0.406990 0.999940 0.035650 -0.632518
O22   O     O_R   0.906990 0.499940 0.464350 -0.623227
O23   O     O_R   0.500000 0.464340 0.563140 -0.607995
O24   O     O_R   0.093010 0.499940 0.535650 -0.623267
O25   O     O_R   0.093010 0.499940 0.464350 -0.632452
O26   O     O_R   0.906990 0.499940 0.535650 -0.632495
O27   O     O_R   0.500000 0.936790 0.964340 -0.606608
O28   O     O_R   0.500000 0.936790 0.035660 -0.606427
O29   O     O_R   0.000000 0.436790 0.464340 -0.606572
O30   O     O_R   0.000000 0.436790 0.535660 -0.606452
O31   O     O_R   0.052540 0.063140 0.500000 -0.592593
O32   O     O_R   0.947460 0.063140 0.500000 -0.592592
O33   O     O_R   0.552540 0.563140 0.000000 -0.592594
O34   O     O_R   0.500000 0.464340 0.436860 -0.607966
O35   O     O_R   0.447460 0.563140 0.000000 -0.592591
O36   O     O_R   0.052540 0.999990 0.436840 -0.592800
O37   O     O_R   0.947460 0.999990 0.563160 -0.592794
O38   O     O_R   0.947460 0.999990 0.436840 -0.592639
O39   O     O_R   0.052540 0.999990 0.563160 -0.592641
O40   O     O_R   0.552540 0.499990 0.936840 -0.592799
O41   O     O_R   0.447460 0.499990 0.063160 -0.592794
O42   O     O_R   0.447460 0.499990 0.936840 -0.592639
O43   O     O_R   0.552540 0.499990 0.063160 -0.592641
O44   O     O_3   0.202460 0.988580 0.085471 -0.652292
O45   O     O_R   0.052520 0.936840 0.500000 -0.592747
O46   O     O_3   0.797508 0.987738 0.914630 -0.652220
O47   O     O_3   0.794961 0.080490 0.035726 -0.638493
O48   O     O_3   0.205032 0.080111 0.963446 -0.638704
O49   O     O_3   0.702469 0.488280 0.585433 -0.652261
O50   O     O_3   0.297510 0.487736 0.414630 -0.652216
O51   O     O_3   0.294960 0.580492 0.535720 -0.638489
O52   O     O_3   0.705030 0.580241 0.463731 -0.638634
O53   O     O_R   0.947480 0.936840 0.500000 -0.592746
O54   O     O_R   0.552520 0.436840 0.000000 -0.592747
O55   O     O_R   0.447480 0.436840 0.000000 -0.592747
O56   O     O_R   1.000000 0.035640 0.063120 -0.601954
Zn1   Zn    Zn3+2 0.000000 0.952380 0.000000 0.964266
Zn2   Zn    Zn3+2 0.929860 0.999990 0.500000 0.965094
Zn3   Zn    Zn3+2 0.570140 0.499990 0.000000 0.965087
Zn4   Zn    Zn3+2 0.429860 0.499990 0.000000 0.965095
Zn5   Zn    Zn3+2 0.500000 0.452380 0.500000 0.964318
Zn6   Zn    Zn3+2 1.000000 0.047600 0.000000 1.012179
Zn7   Zn    Zn3+2 0.500000 0.547600 0.500000 1.012179
Zn8   Zn    Zn3+2 0.500000 0.999950 0.952390 0.941221
Zn9   Zn    Zn3+2 0.500000 0.999950 0.047610 0.941243
Zn10  Zn    Zn3+2 0.000000 0.499950 0.452390 0.941230
Zn11  Zn    Zn3+2 0.000000 0.499950 0.547610 0.941246
Zn12  Zn    Zn3+2 0.070140 0.999990 0.500000 0.965085

loop_
_geom_bond_atom_site_label_1
_geom_bond_atom_site_label_2
_ccdc_geom_bond_type
C39   H82   S    
C19   C20   S    
O23   Zn5   S    
C63   O30   A    
C84   C86   S    
C86   C88   T    
C18   O48   S    
C34   H65   S    
C29   H50   S    
C8    H2    S    
C30   H53   S    
C72   O6    A    
C53   C68   S    
C59   O22   A    
C132  H67   S    
C14   H15   S    
C15   O47   S    
C6    C104  T    
C19   H26   S    
C42   H95   S    
C26   H42   S    
C21   C22   S    
C60   O23   A    
C5    C49   S    
C130  C134  S    
C80   C83   S    
C77   C79   T    
C27   H44   S    
C97   O44   S    
C97   C112  S    
C42   N8    S    
O18   Zn8   S    
C58   O20   A    
C100  C124  S    
C10   H5    S    
H66   N2    S    
C90   C92   T    
C16   H19   S    
C124  C130  S    
C36   H70   S    
C94   C96   S    
C70   O9    A    
C68   O40   A    
C122  N2    S    
C87   C89   T    
C37   H72   S    
O13   Zn7   S    
O14   Zn8   S    
O20   Zn8   S    
C3    C103  S    
C41   H90   S    
C60   O3    A    
O3    Zn7   S    
C1    O56   A    
C28   H47   S    
C47   C52   T    
C73   O7    A    
C40   H85   S    
C30   H51   S    
C103  C116  S    
O36   Zn12  S    
C91   C94   T    
O38   Zn2   S    
C45   C50   S    
C98   C135  S    
C14   H13   S    
C55   O15   A    
C70   O5    A    
O15   Zn9   S    
C34   H64   S    
O2    Zn6   S    
C127  N6    S    
C63   C91   S    
C70   C134  S    
C22   C23   S    
C38   H76   S    
C43   C47   S    
C13   C44   T    
C44   C48   S    
O45   Zn12  S    
C121  C130  S    
O28   Zn9   S    
O19   Zn9   S    
C120  C127  S    
H71   N3    S    
C23   H38   S    
C128  N7    S    
O56   Zn6   S    
C20   H29   S    
C31   H54   S    
C21   H32   S    
C113  H12   S    
C39   H83   S    
C71   O4    A    
C109  C111  T    
C9    H4    S    
C78   C80   T    
C36   N2    S    
C56   C78   S    
C118  C122  S    
O53   Zn2   S    
C3    C74   S    
C40   N6    S    
C64   O32   A    
O4    Zn7   S    
C62   O28   A    
C49   O12   A    
C83   C84   T    
C33   H60   S    
O11   Zn7   S    
C17   H21   S    
C9    C10   S    
C114  C119  S    
C76   C89   S    
C118  C123  S    
C41   H92   S    
O7    Zn5   S    
C61   C120  S    
O21   Zn9   S    
O41   Zn4   S    
C100  C134  S    
C37   N3    S    
C68   O42   A    
C48   C53   T    
C40   H87   S    
C65   O33   A    
C74   O13   A    
C76   O55   A    
C72   C135  S    
C25   C26   S    
O10   Zn6   S    
C46   C51   T    
C116  C120  S    
C124  N4    S    
C29   C30   S    
C17   H22   S    
O43   Zn3   S    
C74   O8    A    
C25   H39   S    
C31   C32   S    
C132  C136  S    
C37   H73   S    
C116  H34   S    
C19   H27   S    
O24   Zn11  S    
C52   C67   S    
C56   O16   A    
C16   H18   S    
C67   O39   A    
O32   Zn2   S    
C122  C131  S    
C39   N5    S    
C26   H41   S    
C98   C122  S    
C39   H81   S    
O12   Zn1   S    
C32   H57   S    
H62   N1    S    
C100  O48   S    
C25   O50   S    
C63   O29   A    
O54   Zn3   S    
C35   C46   S    
C106  C108  S    
C119  C129  S    
C29   H49   S    
C37   H74   S    
C15   H17   S    
C18   H24   S    
O37   Zn2   S    
C34   N1    S    
C81   C85   T    
C73   O11   A    
C42   H96   S    
C65   O35   A    
C66   O36   A    
C56   O17   A    
C38   H79   S    
H84   N6    S    
C101  O49   S    
C131  H56   S    
C57   O21   A    
C26   C27   S    
C50   C54   T    
C133  H78   S    
C12   H11   S    
C28   C29   S    
C117  C124  S    
C27   H43   S    
C38   N4    S    
C112  C117  S    
C8    O44   S    
O16   Zn10  S    
C20   H28   S    
C31   H55   S    
C18   C19   S    
C10   H6    S    
C82   C126  S    
C16   C17   S    
C67   O37   A    
C22   H35   S    
C129  C132  S    
C101  C114  S    
C107  C109  S    
O27   Zn8   S    
O26   Zn11  S    
C15   H16   S    
O25   Zn10  S    
O8    Zn5   S    
C61   O24   A    
C98   C113  S    
O1    Zn1   S    
O6    Zn1   S    
C130  H45   S    
C40   H86   S    
C30   H52   S    
O33   Zn3   S    
C76   O54   A    
O9    Zn6   S    
C73   C136  S    
C75   O45   A    
C99   C135  S    
O22   Zn10  S    
C13   C104  S    
O17   Zn11  S    
C95   C107  T    
C123  N3    S    
C119  C125  S    
C100  C112  S    
C121  N1    S    
C21   O49   S    
H80   N5    S    
C38   H77   S    
O34   Zn5   S    
C125  N5    S    
O35   Zn4   S    
C57   C117  S    
C41   N7    S    
C59   C119  S    
C123  C131  S    
C112  H1    S    
C127  C133  S    
C28   O51   S    
C99   C113  S    
C8    H89   S    
C120  C128  S    
O55   Zn4   S    
C23   H37   S    
C99   O47   S    
C20   H30   S    
C21   H31   S    
C58   O19   A    
C32   C33   S    
C75   O53   A    
C9    H3    S    
O39   Zn12  S    
C54   C69   S    
C18   H25   S    
C36   H69   S    
C28   H48   S    
C105  O52   S    
C22   H33   S    
O29   Zn10  S    
O5    Zn1   S    
C33   H59   S    
O40   Zn3   S    
C72   O10   A    
C17   H20   S    
C51   C66   S    
C41   H91   S    
C25   H40   S    
C49   O2    A    
O42   Zn4   S    
C24   C45   T    
C131  C135  S    
C7    C71   S    
C55   C77   S    
C7    C115  T    
C15   C16   S    
C57   O18   A    
C58   C118  S    
C71   O34   A    
H75   N4    S    
C12   H10   S    
C117  C121  S    
C65   C111  S    
C103  O51   S    
C34   H63   S    
C69   O41   A    
C23   H36   S    
C108  C110  T    
C8    C9    S    
C97   C121  S    
C11   H8    S    
C102  O50   S    
C14   H14   S    
C97   C134  S    
C85   C87   S    
C6    C60   S    
C105  C114  S    
C32   H58   S    
C102  C127  S    
C79   C81   S    
C31   O52   S    
C11   H9    S    
C105  C129  S    
C92   C95   S    
C3    C133  S    
C35   C126  T    
C64   O31   A    
C62   O27   A    
C64   C110  S    
O30   Zn11  S    
C33   H61   S    
C2    C43   T    
O31   Zn12  S    
H93   N8    S    
C103  C128  S    
C61   O25   A    
C1    O1    A    
C105  C136  S    
C3    C102  S    
C12   C14   S    
C129  N8    S    
C42   H94   S    
C99   C123  S    
C101  C136  S    
C96   C106  T    
C59   O26   A    
C2    C93   S    
C11   O46   S    
C5    C93   T    
C11   C12   S    
C55   O14   A    
C1    C4    S    
C27   H46   S    
C128  C133  S    
C125  C132  S    
C69   O43   A    
C62   C90   S    
C66   O38   A    
C10   H7    S    
H88   N7    S    
C114  H23   S    
C102  C116  S    
C113  C118  S    
C75   C88   S    
C4    C82   T    
C24   C115  S    
C36   H68   S    
C101  C125  S    
C98   O46   S    
