data_mof_unit_67293.cif
_audit_creation_date              2013-03-05T16:02:15-0500
_audit_creation_method            fapswitch 2.2
_symmetry_space_group_name_H-M    P1
_symmetry_Int_Tables_number       1
_space_group_crystal_system       triclinic
_cell_length_a                    8.404053
_cell_length_b                    14.39888
_cell_length_c                    15.076986
_cell_angle_alpha                 94.918826
_cell_angle_beta                  97.383083
_cell_angle_gamma                 92.441403
_cell_volume                      1800.00457874

loop_
_atom_site_label
_atom_site_type_symbol
_atom_site_description
_atom_site_fract_x
_atom_site_fract_y
_atom_site_fract_z
_atom_type_partial_charge
P1    P     P_3+3 0.018600 0.416790 0.295970 0.474596
O1    O     O_2   0.841230 0.444160 0.280430 -0.345871
O2    O     O_3   0.112860 0.447350 0.393710 -0.423932
O3    O     O_3   0.597940 0.615700 0.327690 -0.350974
O4    O     O_2   0.685021 0.544213 0.174986 -0.374028
O5    O     O_3   0.014326 0.298209 0.254863 -0.543643
O6    O     O_3   0.601019 0.715125 0.169988 -0.550907
C1    C     C_3   0.432760 0.817355 0.075976 -0.428303
H1    H     H_    0.395588 0.890012 0.088435 0.207811
P2    P     P_3+3 0.635660 0.716530 0.560900 0.455472
P3    P     P_3+3 0.044716 0.785294 0.370911 0.436863
O7    O     O_2   0.802240 0.729740 0.532850 -0.391141
O8    O     O_3   0.017180 0.664790 0.371080 -0.398127
O9    O     O_2   0.909210 0.829990 0.417133 -0.378247
O10   O     O_3   0.643638 0.746982 0.676558 -0.639909
O11   O     O_3   0.004445 0.811066 0.258946 -0.542807
C2    C     C_3   0.021385 0.729604 0.203110 0.470282
H2    H     H_    0.920723 0.677830 0.205618 0.168427
H3    H     H_    0.135865 0.697475 0.224537 0.012878
C3    C     C_3   0.019827 0.752583 0.106412 -1.008346
H4    H     H_    0.894827 0.753348 0.073553 0.277405
H5    H     H_    0.083170 0.821347 0.103739 0.281974
C4    C     C_3   0.226109 0.740836 0.640257 0.526782
H6    H     H_    0.316004 0.700477 0.608337 0.078316
H7    H     H_    0.112315 0.738035 0.593418 0.104028
C5    C     C_3   0.289673 0.842376 0.661963 -0.904850
H8    H     H_    0.421830 0.847226 0.668156 0.237468
H9    H     H_    0.240773 0.885733 0.608594 0.215932
H10   H     H_    0.257633 0.872617 0.727071 0.336672
Ba1   Ba    Ba6+2 0.833400 0.543310 0.453520 1.583679
C6    C     C_3   0.957380 0.236227 0.310356 0.317207
H11   H     H_    0.834696 0.252222 0.322658 0.121395
H12   H     H_    0.045868 0.237094 0.371184 0.021540
C7    C     C_3   0.951832 0.136844 0.265007 -0.465354
H13   H     H_    0.944531 0.087188 0.317180 0.149048
H14   H     H_    0.062665 0.125072 0.234800 0.241568
C8    C     C_3   0.775082 0.716570 0.730454 1.058067
H15   H     H_    0.847978 0.667994 0.693660 -0.046707
C9    C     C_3   0.709112 0.670469 0.806515 -1.036701
H16   H     H_    0.625468 0.716520 0.838062 0.260257
H17   H     H_    0.807257 0.656116 0.859327 0.234488
H18   H     H_    0.641046 0.604564 0.779274 0.251842
P4    P     P_3+3 0.171090 0.583290 0.704030 0.473865
O12   O     O_2   0.348480 0.555870 0.719620 -0.375638
O13   O     O_3   0.076830 0.552730 0.606300 -0.435496
O14   O     O_3   0.591760 0.384380 0.672320 -0.394717
O15   O     O_3   0.197371 0.704795 0.720033 -0.523686
P5    P     P_3+3 0.154654 0.212178 0.623896 0.418981
O16   O     O_3   0.629090 0.386350 0.459240 -0.355087
O17   O     O_3   0.172520 0.335290 0.628920 -0.369257
O18   O     O_2   0.309003 0.175928 0.590858 -0.399565
O19   O     O_3   0.170387 0.185540 0.735683 -0.545794
Ba2   Ba    Ba6+2 0.356420 0.456770 0.546480 1.535093
P6    P     P_3+3 0.557123 0.606230 0.209742 0.474043
C10   C     C_3   0.464599 0.770017 0.165556 0.645301
H19   H     H_    0.353280 0.727335 0.166728 -0.072199
H20   H     H_    0.326166 0.779785 0.034976 0.163523
O20   O     O_3   0.560610 0.613730 0.540770 -0.379043
C11   C     C_3   0.389818 0.225828 0.267999 1.087708
H21   H     H_    0.291488 0.257410 0.300015 0.005626
C12   C     C_3   0.376980 0.118763 0.265805 -1.177904
H22   H     H_    0.290285 0.097044 0.310059 0.201126
H23   H     H_    0.333376 0.083933 0.197960 0.308074
H24   H     H_    0.494103 0.091478 0.289688 0.251729
P7    P     P_3+3 0.556372 0.269180 0.429803 0.406855
O21   O     O_2   0.387460 0.270290 0.467210 -0.393971
O22   O     O_3   0.539114 0.262246 0.311975 -0.611536
H25   H     H_    0.079086 0.698150 0.068067 0.227604
C13   C     C_3   0.056546 0.234709 0.778790 0.163993
H26   H     H_    0.077333 0.311069 0.776215 0.070127
H27   H     H_    0.933180 0.212494 0.746700 0.064795
C14   C     C_3   0.074259 0.218792 0.878461 0.113373
H28   H     H_    0.982119 0.257183 0.910917 0.082760
H29   H     H_    0.193367 0.248411 0.910882 0.091684
P8    P     P_3+3 0.641542 0.394199 0.789878 0.394857
C15   C     C_3   0.549302 0.217538 0.795731 0.654851
O23   O     O_2   0.491434 0.421213 0.834424 -0.420334
O24   O     O_3   0.682090 0.281376 0.818716 -0.616459
H30   H     H_    0.445418 0.248192 0.758235 0.180218
H31   H     H_    0.597608 0.147487 0.917383 0.257635
C16   C     C_3   0.500880 0.186560 0.883331 -0.766624
H32   H     H_    0.389780 0.140811 0.870446 0.278714
H33   H     H_    0.480075 0.248573 0.928562 0.249676
C17   C     C_R   0.830944 0.461656 0.837755 0.252600
C18   C     C_R   0.901599 0.462200 0.928689 -0.037968
C19   C     C_R   0.040995 0.469976 0.113622 -0.052370
C20   C     C_R   0.889676 0.424979 0.082824 -0.062015
C21   C     C_R   0.820567 0.422416 0.993227 -0.167626
C22   C     C_R   0.108955 0.477837 0.206783 0.287488
H34   H     H_    0.819757 0.392322 0.127464 0.200500
H35   H     H_    0.701523 0.389360 0.975614 0.194931
C23   C     C_R   0.263191 0.519645 0.230646 -0.428151
C24   C     C_R   0.075359 0.535896 0.798296 0.265001
C25   C     C_R   0.147197 0.539671 0.890198 -0.008016
C26   C     C_R   0.059140 0.502917 0.955646 0.005180
C27   C     C_R   0.303177 0.578672 0.919360 -0.072103
C28   C     C_R   0.373321 0.578233 0.008540 -0.204131
C29   C     C_R   0.287342 0.545241 0.074604 -0.001750
C30   C     C_R   0.128872 0.506476 0.048156 -0.001332
C31   C     C_R   0.353972 0.551651 0.166624 0.214876
C32   C     C_R   0.917338 0.500649 0.776308 -0.559561
H36   H     H_    0.496098 0.605185 0.025184 0.163026
H37   H     H_    0.374009 0.610286 0.874174 0.167375
H38   H     H_    0.316433 0.524174 0.300247 0.177400
H39   H     H_    0.857069 0.505946 0.710002 0.163698
C33   C     C_R   0.714463 0.935234 0.536299 -0.144894
C34   C     C_R   0.512763 0.800127 0.497485 0.284473
C35   C     C_R   0.359323 0.767980 0.455059 -0.536667
C36   C     C_R   0.246344 0.830291 0.423865 0.249137
C37   C     C_R   0.288427 0.925739 0.430827 -0.301198
C38   C     C_R   0.445022 0.959441 0.466589 0.092152
C39   C     C_R   0.558989 0.897355 0.500745 -0.040897
H40   H     H_    0.324804 0.694239 0.449832 0.171228
C40   C     C_R   0.649103 0.089527 0.490628 -0.021830
C41   C     C_R   0.761950 0.029112 0.529045 0.096530
C42   C     C_R   0.699455 0.182964 0.478922 0.120412
C43   C     C_R   0.863830 0.212566 0.505571 -0.258118
C44   C     C_R   0.968449 0.156632 0.554768 0.253647
C45   C     C_R   0.919648 0.063857 0.562676 -0.356955
C46   C     C_R   0.489133 0.054609 0.466543 -0.178129
H41   H     H_    0.200352 0.973166 0.405533 0.147318
H42   H     H_    0.002812 0.019923 0.598082 0.177622
H43   H     H_    0.802470 0.892115 0.566867 0.213146
H44   H     H_    0.397372 0.100637 0.446148 0.176859
C47   C     C_3   0.475577 0.838840 0.250005 -0.380269
C48   C     C_3   0.615577 0.910726 0.259520 -0.806480
H45   H     H_    0.729433 0.876378 0.253967 0.316990
H46   H     H_    0.592170 0.959828 0.207560 0.236223
H47   H     H_    0.627829 0.950948 0.326103 0.249254
H48   H     H_    0.361716 0.875390 0.250386 0.177265
H49   H     H_    0.490889 0.797994 0.309036 0.205375
C49   C     C_3   0.810301 0.113495 0.191361 -0.343315
C50   C     C_3   0.826228 0.160938 0.106511 -0.483815
H50   H     H_    0.731524 0.130755 0.052950 0.224862
H51   H     H_    0.809893 0.236434 0.117844 0.245951
H52   H     H_    0.944492 0.148829 0.084024 0.294119
H53   H     H_    0.696366 0.131184 0.216172 0.236408
H54   H     H_    0.808078 0.037531 0.173323 0.201397
S1    S     S_3+6 0.893990 0.817913 0.778035 -0.020882
O25   O     O_2   0.026060 0.794176 0.848160 -0.252035
O26   O     O_2   0.964895 0.861889 0.704621 -0.387654
O27   O     O_3   0.775500 0.893393 0.824951 -0.501378
H55   H     H_    0.740570 0.933915 0.777164 0.361016
S2    S     S_3+6 0.376488 0.260028 0.155647 -0.049304
O28   O     O_2   0.462385 0.353946 0.157423 -0.318865
O29   O     O_2   0.453853 0.190798 0.096807 -0.315381
O30   O     O_3   0.183610 0.266157 0.112590 -0.547092
H56   H     H_    0.186586 0.304858 0.061674 0.352321
C51   C     C_3   0.565996 0.815222 0.014689 -0.227082
C52   C     C_3   0.693438 0.894505 0.040457 -0.736106
H57   H     H_    0.637172 0.962857 0.040232 0.253827
H58   H     H_    0.760322 0.886745 0.107080 0.255859
H59   H     H_    0.781532 0.892236 0.991756 0.315534
H60   H     H_    0.622825 0.747226 0.012424 0.199224
H61   H     H_    0.509522 0.823368 0.945126 0.217353
S3    S     S_3+6 0.053856 0.098235 0.898501 0.007426
O31   O     O_2   0.162160 0.082114 0.982451 -0.211052
O32   O     O_2   0.883485 0.073781 0.911384 -0.321832
O33   O     O_3   0.104724 0.028238 0.812972 -0.433437
H62   H     H_    0.016172 0.031985 0.763571 0.366145
C53   C     C_3   0.602382 0.135270 0.736013 -0.368608
C54   C     C_3   0.489424 0.047834 0.723746 -0.846510
H63   H     H_    0.496418 0.012751 0.786769 0.278887
H64   H     H_    0.363286 0.063353 0.703506 0.324078
H65   H     H_    0.527073 0.998910 0.670738 0.242661
H66   H     H_    0.615193 0.159434 0.669197 0.194826
H67   H     H_    0.722170 0.114553 0.764856 0.220634
C55   C     C_3   0.917331 0.313099 0.503349 -0.301359
C56   C     C_3   0.866193 0.365427 0.585561 -0.497384
H68   H     H_    0.750131 0.333543 0.587933 0.236791
H69   H     H_    0.924155 0.352690 0.652286 0.163925
H70   H     H_    0.857171 0.439650 0.578583 0.245386
H71   H     H_    0.044074 0.323525 0.494542 0.230826
H72   H     H_    0.868383 0.342453 0.442171 0.195338

loop_
_geom_bond_atom_site_label_1
_geom_bond_atom_site_label_2
_geom_bond_distance
_ccdc_geom_bond_type
C1    H1    1.112027 S    
C10   H19   1.100167 S    
C24   C25   1.434098 A    
C14   S3    1.792186 S    
Ba2   O20   2.793007 S    
P3    C36   1.843517 S    
O2    Ba2   2.867837 S    
C34   C39   1.431859 A    
Ba1   O13   2.867279 S    
C38   C39   1.416636 A    
C15   H30   1.106979 S    
O6    C10   1.417801 S    
C51   H60   1.107309 S    
C28   C29   1.405963 A    
C15   C53   1.542145 S    
C51   C52   1.521221 S    
C9    H17   1.109504 S    
C33   C39   1.414644 A    
C42   C43   1.424522 A    
C55   H72   1.087556 S    
P7    C42   1.895123 S    
C5    H8    1.101254 S    
C48   H45   1.104978 S    
O16   P7    1.769425 S    
C20   C21   1.396945 A    
S3    O31   1.502217 D    
P2    O20   1.573263 S    
C15   O24   1.403193 S    
C7    H13   1.113031 S    
P2    O10   1.753238 S    
C37   H41   1.083896 S    
H31   C16   1.105514 S    
P3    O9    1.544722 D    
C26   C30   1.437555 A    
P8    C17   1.857661 S    
C45   H42   1.083194 S    
C43   C55   1.501820 S    
C49   H54   1.103020 S    
C2    C3    1.520960 S    
C35   C36   1.399240 A    
C13   H27   1.107965 S    
P1    O1    1.551870 D    
C56   H68   1.066333 S    
C4    C5    1.528592 S    
C12   H23   1.110032 S    
P2    Ba1   3.457701 S    
C44   C45   1.400044 A    
O10   C8    1.394231 S    
O19   C13   1.406262 S    
C11   O22   1.399766 S    
C37   C38   1.405878 A    
O12   Ba2   2.875590 S    
P4    Ba2   3.440575 S    
P5    O18   1.543486 D    
O30   H56   0.988721 S    
C49   C50   1.518959 S    
P7    O22   1.757574 S    
C52   H59   1.107240 S    
C33   H43   1.070282 S    
C50   H52   1.106528 S    
P1    C22   1.888293 S    
C4    H6    1.105871 S    
C6    H12   1.102834 S    
C28   H36   1.077442 S    
O7    Ba1   2.880076 S    
S1    O26   1.496240 D    
P5    O17   1.766922 S    
O5    C6    1.385693 S    
C7    C49   1.524189 S    
C11   H21   1.104348 S    
C17   C32   1.388528 A    
C56   H69   1.093742 S    
O33   H62   0.989627 S    
P6    C31   1.862229 S    
P2    C34   1.865277 S    
C25   C26   1.430133 A    
S2    O30   1.675797 S    
C47   H48   1.111954 S    
C1    C10   1.562322 S    
O14   P8    1.760089 S    
C16   H33   1.110145 S    
C16   H32   1.105666 S    
C9    H18   1.105878 S    
C54   H64   1.102517 S    
C32   H39   1.071442 S    
C55   H71   1.095837 S    
Ba1   Ba2   4.572039 S    
C11   C12   1.538018 S    
O17   Ba2   2.762127 S    
C4    O15   1.394745 S    
P1    O5    1.763039 S    
C10   C47   1.535353 S    
O4    P6    1.540651 D    
C17   C18   1.421565 A    
C14   H29   1.106763 S    
C24   C32   1.389849 A    
C9    H16   1.109775 S    
C19   C20   1.406783 A    
O11   C2    1.407300 S    
P5    C44   1.872448 S    
C48   H47   1.105641 S    
C49   H53   1.103699 S    
C38   C46   1.404319 A    
P1    O2    1.597439 S    
C35   H40   1.082260 S    
O2    Ba1   2.974106 S    
P4    O12   1.552289 D    
C8    H15   1.108859 S    
C19   C30   1.427966 A    
C1    H20   1.111888 S    
C54   H65   1.105669 S    
P4    O13   1.597312 S    
P3    O11   1.753064 S    
C47   H49   1.105157 S    
C6    H11   1.101158 S    
C21   H35   1.080491 S    
C34   C35   1.404514 A    
C27   C28   1.397664 A    
C3    H4    1.103305 S    
C2    H2    1.110024 S    
C6    C7    1.528322 S    
C40   C46   1.406308 A    
C18   C26   1.420047 A    
C22   C23   1.395892 A    
C25   C27   1.404945 A    
Ba2   O21   2.880224 S    
P8    O23   1.551953 D    
C53   H67   1.107637 S    
P2    O7    1.522548 D    
S2    O29   1.501737 D    
C55   C56   1.514313 S    
Ba1   O16   2.793623 S    
C3    H5    1.110321 S    
C11   S2    1.795386 S    
P7    O21   1.593606 D    
C41   C45   1.411070 A    
C47   C48   1.517796 S    
C56   H70   1.087720 S    
C52   H58   1.103135 S    
C20   H34   1.073191 S    
C2    H3    1.108014 S    
C13   C14   1.528858 S    
C23   C31   1.400626 A    
C54   H63   1.109953 S    
C18   C21   1.404056 A    
C48   H46   1.104302 S    
O3    P6    1.759626 S    
O27   H55   0.988963 S    
C5    H9    1.108640 S    
C3    H25   1.107299 S    
S3    O33   1.678367 S    
C53   H66   1.110073 S    
C14   H28   1.109995 S    
C19   C22   1.439773 A    
C15   C16   1.527294 S    
C40   C42   1.425368 A    
S1    O25   1.503087 D    
C40   C41   1.416736 A    
C29   C31   1.421586 A    
O1    Ba1   2.875092 S    
C33   C41   1.410328 A    
S2    O28   1.502077 D    
S3    O32   1.500672 D    
C1    C51   1.540296 S    
C51   H61   1.112164 S    
C8    C9    1.525011 S    
C53   C54   1.527595 S    
C43   C44   1.402509 A    
C12   H24   1.104077 S    
P3    O8    1.740956 S    
C50   H50   1.104360 S    
S1    O27   1.677664 S    
O16   Ba2   2.958579 S    
Ba1   O20   2.959510 S    
O14   Ba2   2.854514 S    
P1    Ba1   3.439960 S    
P4    C24   1.883172 S    
C7    H14   1.101348 S    
C4    H7    1.110477 S    
C12   H22   1.102320 S    
P8    O24   1.753407 S    
C13   H26   1.110677 S    
C23   H38   1.082020 S    
O13   Ba2   2.975089 S    
P5    O19   1.750178 S    
O8    Ba1   2.761532 S    
C5    H10   1.109210 S    
C29   C30   1.416414 A    
C8    S1    1.776120 S    
C27   H37   1.077041 S    
C50   H51   1.103006 S    
C52   H57   1.109973 S    
O6    P6    1.767075 S    
C36   C37   1.396151 A    
P4    O15   1.746106 S    
O3    Ba1   2.855053 S    
C46   H44   1.070536 S    
