data_mof_unit_55042.cif
_audit_creation_date              2012-12-10T17:43:54-0500
_audit_creation_method            fapswitch 2.2
_symmetry_space_group_name_H-M    P1
_symmetry_Int_Tables_number       1
_space_group_crystal_system       triclinic
_cell_length_a                    15.868526
_cell_length_b                    15.087024
_cell_length_c                    13.689083
_cell_angle_alpha                 89.960515
_cell_angle_beta                  90.819575
_cell_angle_gamma                 89.910364
_cell_volume                      3276.94725943

loop_
_atom_site_label
_atom_site_type_symbol
_atom_type_description
_atom_site_fract_x
_atom_site_fract_y
_atom_site_fract_z
_atom_type_partial_charge
C1    C     C_R   0.500180 0.328444 0.500031 0.817772
C2    C     C_R   0.499872 0.671558 0.499970 0.816854
C3    C     C_R   0.499781 0.768407 0.499955 -0.076405
C4    C     C_R   0.500417 0.231596 0.500048 -0.076847
C5    C     C_R   0.501555 0.814830 0.411151 -0.243546
C6    C     C_R   0.498719 0.185173 0.588855 -0.244808
C7    C     C_R   0.501769 0.907185 0.410554 0.106146
C8    C     C_R   0.498601 0.092819 0.589456 0.106294
C9    C     C_R   0.500087 0.953538 0.499993 0.063158
C10   C     C_R   0.500305 0.046467 0.500016 0.062982
C11   C     C_R   0.498172 0.907062 0.589410 0.104362
C12   C     C_R   0.502204 0.092943 0.410599 0.103723
C13   C     C_R   0.503692 0.953921 0.322083 -0.210303
C14   C     C_R   0.496716 0.046084 0.677927 -0.210563
C15   C     C_R   0.503927 0.046335 0.322107 -0.203946
C16   C     C_R   0.496488 0.953670 0.677904 -0.204745
C17   C     C_R   0.555584 0.447387 0.794258 0.045440
C18   C     C_R   0.443464 0.551592 0.205682 0.041567
C19   C     C_R   0.443910 0.552175 0.792022 0.022954
C20   C     C_R   0.556098 0.447851 0.207787 0.043421
C21   C     C_R   0.440913 0.552253 0.895228 -0.111711
C22   C     C_R   0.557483 0.446126 0.104524 -0.079070
C23   C     C_R   0.339702 0.500157 0.499419 0.824214
C24   C     C_R   0.660303 0.500043 0.500748 0.825640
C25   C     C_R   0.499034 0.499269 0.948089 0.025863
C26   C     C_R   0.499325 0.499103 0.051710 0.017587
C27   C     C_R   0.556789 0.446224 0.897239 -0.033323
C28   C     C_R   0.441578 0.552146 0.102597 -0.055356
C29   C     C_R   0.381375 0.603448 0.946816 0.466917
C30   C     C_R   0.615785 0.393584 0.053178 0.434089
C31   C     C_R   0.383339 0.604288 0.049684 -0.267581
C32   C     C_R   0.614025 0.392981 0.950005 -0.308366
C33   C     C_3   0.973482 0.420257 0.537898 -0.485212
C34   C     C_3   0.026465 0.581739 0.469139 -0.470050
C35   C     C_3   0.025945 0.436584 0.445055 0.401917
C36   C     C_3   0.974196 0.565547 0.562023 0.418803
C37   C     C_1   0.250082 0.500816 0.498471 -0.180775
C38   C     C_1   0.749932 0.500170 0.502933 -0.173239
C39   C     C_3   0.030581 0.487404 0.593532 0.424126
C40   C     C_3   0.969618 0.514598 0.413892 0.404259
C41   C     C_3   0.083057 0.502264 0.500938 -0.036476
C42   C     C_3   0.917030 0.499933 0.506084 -0.030106
C43   C     C_1   0.174609 0.501486 0.499016 0.065978
C44   C     C_1   0.825422 0.500201 0.505111 0.066713
C45   C     C_R   0.498017 0.814713 0.588772 -0.238249
C46   C     C_R   0.502270 0.185292 0.411234 -0.236188
Cu1   Cu    Cu3+1 0.500010 0.499990 0.597420 0.944122
Cu2   Cu    Cu3+1 0.499990 0.500010 0.402580 0.948289
H1    H     H_    0.338713 0.645498 0.088103 0.156324
H2    H     H_    0.657287 0.350498 0.911188 0.145824
H3    H     H_    0.948973 0.355446 0.563098 0.154368
H4    H     H_    0.049465 0.646362 0.441490 0.157919
H5    H     H_    0.496512 0.779027 0.657517 0.162545
H6    H     H_    0.503749 0.220978 0.342488 0.164048
H7    H     H_    0.502890 0.779232 0.342398 0.157530
H8    H     H_    0.497346 0.220771 0.657608 0.157252
H9    H     H_    0.505015 0.919010 0.252961 0.147058
H10   H     H_    0.495392 0.080996 0.747050 0.146919
H11   H     H_    0.505417 0.081348 0.253002 0.152128
H12   H     H_    0.495003 0.918658 0.747009 0.151154
H13   H     H_    0.599222 0.406513 0.754085 0.123167
H14   H     H_    0.399630 0.592217 0.245861 0.123555
H15   H     H_    0.401352 0.593467 0.749528 0.151582
H16   H     H_    0.599837 0.407631 0.250024 0.169217
N1    N     N_R   0.499960 0.499930 0.743810 -0.189023
N2    N     N_R   0.500040 0.500070 0.256190 -0.194790
O1    O     O_R   0.500020 0.370250 0.582280 -0.590353
O2    O     O_R   0.499980 0.629750 0.417720 -0.589641
O3    O     O_R   0.500010 0.370270 0.417740 -0.587985
O4    O     O_R   0.499990 0.629730 0.582260 -0.587928
O5    O     O_R   0.379080 0.499980 0.582260 -0.583112
O6    O     O_R   0.620920 0.500020 0.417740 -0.577981
O7    O     O_R   0.379070 0.500000 0.417710 -0.577940
O8    O     O_R   0.620930 0.500000 0.582290 -0.579310
O9    O     O_3   0.059659 0.372238 0.381894 -0.576731
C47   C     C_3   0.995821 0.312190 0.353725 0.074435
H17   H     H_    0.937084 0.346930 0.329806 0.163933
H18   H     H_    0.981365 0.266957 0.415431 0.150705
C48   C     C_3   0.026504 0.256765 0.268575 -0.799599
H19   H     H_    0.084395 0.219811 0.290298 0.258860
H20   H     H_    0.976988 0.208640 0.246247 0.202987
H21   H     H_    0.040657 0.300388 0.205509 0.241801
O10   O     O_3   0.940458 0.630386 0.624640 -0.576768
C49   C     C_3   0.005010 0.688425 0.655851 0.078662
H22   H     H_    0.026736 0.729657 0.593720 0.146842
H23   H     H_    0.059642 0.651784 0.688126 0.170766
C50   C     C_3   0.970827 0.749959 0.733841 -0.793890
H24   H     H_    0.949144 0.710814 0.797428 0.241373
H25   H     H_    0.021089 0.796189 0.758758 0.201456
H26   H     H_    0.917084 0.789061 0.703702 0.257662
O11   O     O_3   0.324126 0.657471 0.897929 -0.598538
C51   C     C_3   0.255605 0.606353 0.861813 0.069688
H27   H     H_    0.270359 0.534667 0.850797 0.134148
H28   H     H_    0.236924 0.633028 0.789001 0.170428
C52   C     C_3   0.180513 0.614989 0.929059 -0.826054
H29   H     H_    0.163265 0.685863 0.937943 0.257263
H30   H     H_    0.125761 0.578923 0.897090 0.224135
H31   H     H_    0.196129 0.586161 0.001737 0.239215
O12   O     O_3   0.670535 0.338361 0.104163 -0.589253
C53   C     C_3   0.753603 0.370317 0.094738 0.053899
H32   H     H_    0.757843 0.441958 0.114304 0.141140
H33   H     H_    0.776207 0.360482 0.018982 0.152456
C54   C     C_3   0.811631 0.318884 0.163603 -0.784517
H34   H     H_    0.808369 0.246950 0.146840 0.251733
H35   H     H_    0.877561 0.341573 0.154647 0.200928
H36   H     H_    0.792658 0.329843 0.240452 0.246296
O13   O     O_3   0.929575 0.526490 0.322098 -0.609346
C55   C     C_3   0.990154 0.545206 0.250730 0.072024
H37   H     H_    0.034563 0.488588 0.242854 0.177965
H38   H     H_    0.026099 0.606238 0.269900 0.142908
C56   C     C_3   0.944850 0.560544 0.152929 -0.328061
H39   H     H_    0.907839 0.500708 0.132919 0.216790
H40   H     H_    0.900606 0.617336 0.159700 0.230121
C57   C     C_3   0.007018 0.580075 0.071871 -0.960194
H41   H     H_    0.045124 0.639633 0.090219 0.264447
H42   H     H_    0.971998 0.592819 0.002487 0.266524
H43   H     H_    0.049570 0.522450 0.061293 0.259444
O14   O     O_3   0.071177 0.480357 0.685969 -0.626527
C58   C     C_3   0.024187 0.428375 0.751559 0.056880
H44   H     H_    0.067273 0.410691 0.813252 0.167630
H45   H     H_    0.003628 0.364374 0.719016 0.137195
C59   C     C_3   0.949346 0.480011 0.792922 -0.320862
H46   H     H_    0.971499 0.545297 0.820432 0.230815
H47   H     H_    0.901177 0.491181 0.734602 0.243114
C60   C     C_3   0.908150 0.429660 0.876298 -0.974106
H48   H     H_    0.883872 0.364785 0.849981 0.257634
H49   H     H_    0.854612 0.469043 0.904620 0.257419
H50   H     H_    0.954166 0.418425 0.936973 0.263875

loop_
_geom_bond_atom_site_label_1
_geom_bond_atom_site_label_2
_ccdc_geom_bond_type
C50   H24   S    
C20   H16   S    
C36   C42   S    
C52   H29   S    
C47   C48   S    
Cu2   O3    S    
C57   H41   S    
C52   H31   S    
C39   C41   S    
C4    C46   A    
C35   O9    S    
C33   C39   S    
C36   C39   S    
O10   C49   S    
C34   C40   S    
C33   C42   S    
C20   N2    A    
C19   C21   A    
C47   H18   S    
C2    O2    A    
C13   H9    S    
C36   O10   S    
C55   H37   S    
C16   H12   S    
O14   C58   S    
C51   H27   S    
C17   H13   S    
C23   O7    A    
C56   H40   S    
C56   H39   S    
C19   H15   S    
C60   H50   S    
C24   C38   S    
O13   C55   S    
C49   C50   S    
C19   N1    A    
C56   C57   S    
C9    C10   A    
C40   C42   S    
C45   H5    S    
C41   C43   S    
C34   C41   S    
C42   C44   S    
C31   H1    S    
Cu1   O1    S    
C58   H45   S    
C14   H10   S    
C17   C27   A    
C23   O5    A    
C18   C28   A    
C49   H22   S    
C4    C6    A    
O11   C51   S    
C5    C7    A    
C18   H14   S    
C6    C8    A    
C25   C26   A    
C23   C37   S    
C21   C29   A    
C30   O12   S    
C3    C45   A    
C53   C54   S    
C1    O3    A    
C37   C43   T    
O9    C47   S    
Cu1   O4    S    
C38   C44   T    
C11   C16   A    
Cu1   Cu2   S    
C12   C15   A    
Cu1   O5    S    
C46   H6    S    
C53   H33   S    
C54   H35   S    
C47   H17   S    
C9    C11   A    
C32   H2    S    
C10   C12   A    
C40   O13   S    
C12   C46   A    
C17   N1    A    
C20   C22   A    
C13   C15   A    
C60   H48   S    
C14   C16   A    
C11   C45   A    
C18   N2    A    
Cu2   O6    S    
C59   H47   S    
C29   O11   S    
C24   O6    A    
C48   H20   S    
C58   C59   S    
C7    C9    A    
C21   C25   A    
C8    C14   A    
C22   C30   A    
C27   C32   A    
C26   C28   A    
Cu2   O7    S    
C5    H7    S    
C28   C31   A    
Cu1   O8    S    
C6    H8    S    
C3    C5    A    
C48   H21   S    
C57   H42   S    
C58   H44   S    
C52   H30   S    
C1    O1    A    
C33   H3    S    
C39   O14   S    
C34   H4    S    
C55   C56   S    
Cu2   O2    S    
C1    C4    S    
C59   C60   S    
C50   H25   S    
C35   C40   S    
C29   C31   A    
O12   C53   S    
C30   C32   A    
C24   O8    A    
C51   H28   S    
C53   H32   S    
C33   C35   S    
C55   H38   S    
C2    C3    S    
C54   H36   S    
C34   C36   S    
C51   C52   S    
C35   C41   S    
C15   H11   S    
C57   H43   S    
C48   H19   S    
C7    C13   A    
C8    C10   A    
C22   C26   A    
C50   H26   S    
C54   H34   S    
C60   H49   S    
C49   H23   S    
Cu2   N2    S    
C59   H46   S    
C2    O4    A    
Cu1   N1    S    
C25   C27   A    
