data_mof_unit_42002.cif
_audit_creation_date              2012-10-26T18:41:02-0400
_audit_creation_method            fapswitch 2.2
_symmetry_space_group_name_H-M    P1
_symmetry_Int_Tables_number       1
_space_group_crystal_system       triclinic
_cell_length_a                    19.427812
_cell_length_b                    18.156428
_cell_length_c                    10.78369
_cell_angle_alpha                 89.984644
_cell_angle_beta                  89.994316
_cell_angle_gamma                 90.022862
_cell_volume                      3803.83479137

loop_
_atom_site_label
_atom_site_type_symbol
_atom_type_description
_atom_site_fract_x
_atom_site_fract_y
_atom_site_fract_z
_atom_type_partial_charge
C1    C     C_R   0.367478 0.499929 0.500926 0.548505
C2    C     C_R   0.291893 0.499130 0.506404 -0.003414
C3    C     C_R   0.964017 0.535503 0.614533 -0.127252
C4    C     C_R   0.035803 0.536168 0.614518 -0.125779
C5    C     C_R   0.072137 0.497025 0.523687 0.030094
C6    C     C_R   0.928110 0.495941 0.523382 0.027159
C7    C     C_R   0.036276 0.458386 0.431622 -0.097837
C8    C     C_R   0.964686 0.458103 0.431137 -0.097956
C9    C     C_R   0.463300 0.721080 0.412722 0.046034
C10   C     C_R   0.537068 0.720960 0.586969 0.047084
C11   C     C_R   0.463145 0.798421 0.410500 -0.144415
C12   C     C_R   0.632504 0.499939 0.500938 0.530328
C13   C     C_R   0.537793 0.798300 0.588817 -0.143691
C14   C     C_R   0.500581 0.838674 0.499609 0.020880
C15   C     C_R   0.502353 0.500024 0.262375 0.540198
C16   C     C_R   0.502306 0.499991 0.737612 0.543122
C17   C     C_R   0.559302 0.961700 0.536527 -0.121412
C18   C     C_R   0.442229 0.961690 0.462344 -0.120866
C19   C     C_R   0.559708 0.039392 0.538624 -0.010421
C20   C     C_R   0.441944 0.039331 0.459850 -0.010956
C21   C     C_R   0.500759 0.079348 0.499438 0.008702
C22   C     C_R   0.500711 0.921734 0.499581 0.005401
C23   C     C_R   0.852317 0.495340 0.522613 0.018873
C24   C     C_R   0.453396 0.201547 0.572777 -0.139354
C25   C     C_R   0.547387 0.202064 0.426740 -0.139967
C26   C     C_R   0.454036 0.278841 0.571711 0.047756
C27   C     C_R   0.546210 0.279327 0.428151 0.047810
C28   C     C_R   0.500551 0.162105 0.499704 0.014718
C29   C     C_R   0.612426 0.576795 0.129191 -0.106606
C30   C     C_R   0.612696 0.576196 0.870398 -0.112146
C31   C     C_R   0.663910 0.613848 0.064167 -0.123745
C32   C     C_R   0.664064 0.613517 0.935177 -0.128442
C33   C     C_R   0.559251 0.539282 0.934319 0.026109
C34   C     C_R   0.147748 0.496866 0.523462 0.017088
C35   C     C_R   0.559175 0.539464 0.065468 0.023035
C36   C     C_R   0.507096 0.499946 0.128763 -0.000358
C37   C     C_R   0.507119 0.499824 0.871185 0.004702
C38   C     C_R   0.458442 0.458560 0.063977 -0.156263
C39   C     C_R   0.458430 0.458530 0.936081 -0.155603
C40   C     C_R   0.742954 0.431328 0.508414 -0.131451
C41   C     C_R   0.256846 0.432024 0.520771 -0.136593
C42   C     C_R   0.814641 0.428706 0.517792 -0.006652
C43   C     C_R   0.185178 0.430389 0.530900 -0.007809
C44   C     C_R   0.622206 0.077456 0.584832 0.029992
C45   C     C_R   0.817161 0.562846 0.520802 -0.139166
C46   C     C_R   0.686235 0.065119 0.527938 -0.111083
C47   C     C_R   0.745021 0.101683 0.570535 -0.113725
C48   C     C_R   0.740376 0.150565 0.670284 -0.099581
C49   C     C_R   0.677028 0.162674 0.728060 -0.113578
C50   C     C_R   0.618178 0.126050 0.686081 -0.082500
C51   C     C_R   0.380008 0.077243 0.411201 0.029986
C52   C     C_R   0.315390 0.065223 0.466064 -0.107496
C53   C     C_R   0.257021 0.101027 0.420060 -0.111644
C54   C     C_R   0.262691 0.148761 0.318828 -0.103566
C55   C     C_R   0.326689 0.160674 0.263290 -0.111407
C56   C     C_R   0.182820 0.563829 0.509547 -0.138905
C57   C     C_R   0.385130 0.124857 0.308764 -0.081967
C58   C     C_R   0.848036 0.355676 0.527687 0.027549
C59   C     C_R   0.839905 0.303442 0.432709 -0.106803
C60   C     C_R   0.870251 0.233928 0.443214 -0.113765
C61   C     C_R   0.907855 0.215706 0.549296 -0.107823
C62   C     C_R   0.915198 0.267005 0.644971 -0.109281
C63   C     C_R   0.885941 0.337003 0.634001 -0.079553
C64   C     C_R   0.151125 0.359318 0.557092 0.031568
C65   C     C_R   0.120352 0.347117 0.673057 -0.081727
C66   C     C_R   0.089991 0.279170 0.699716 -0.111021
C67   C     C_R   0.745635 0.564702 0.512822 -0.147613
C68   C     C_R   0.088973 0.223606 0.610070 -0.097074
C69   C     C_R   0.118675 0.235806 0.493853 -0.106931
C70   C     C_R   0.150542 0.303129 0.467733 -0.102028
C71   C     C_R   0.254368 0.565044 0.501382 -0.137868
C72   C     C_R   0.708047 0.498943 0.506192 -0.004606
Cu1   Cu    Cu3+1 0.500000 0.573360 0.500000 0.921819
Cu2   Cu    Cu3+1 0.500000 0.426640 0.500000 0.928752
H1    H     H_    0.419245 0.427470 0.112836 0.123731
H2    H     H_    0.584298 0.173639 0.368709 0.098658
H3    H     H_    0.417747 0.308869 0.628523 0.116368
H4    H     H_    0.582318 0.309742 0.371484 0.119647
H5    H     H_    0.615781 0.576639 0.229229 0.138609
H6    H     H_    0.616312 0.575425 0.770403 0.127253
H7    H     H_    0.704390 0.642106 0.114131 0.109901
H8    H     H_    0.704669 0.641487 0.885039 0.105839
H9    H     H_    0.714370 0.380052 0.505544 0.131400
H10   H     H_    0.285241 0.380782 0.527533 0.128392
H11   H     H_    0.845324 0.614334 0.523637 0.108064
H12   H     H_    0.419210 0.427446 0.887304 0.117877
H13   H     H_    0.154592 0.615149 0.503276 0.110399
H14   H     H_    0.719844 0.617572 0.511714 0.123167
H15   H     H_    0.280224 0.617514 0.490609 0.128465
H16   H     H_    0.936447 0.565215 0.686059 0.102100
H17   H     H_    0.063047 0.566384 0.685870 0.103447
H18   H     H_    0.063815 0.428975 0.359694 0.106886
H19   H     H_    0.937772 0.428739 0.358402 0.110877
H20   H     H_    0.690451 0.027824 0.449937 0.098699
H21   H     H_    0.794160 0.092142 0.526107 0.101775
H22   H     H_    0.785849 0.178845 0.703223 0.119877
H23   H     H_    0.434137 0.690973 0.343953 0.124324
H24   H     H_    0.673548 0.200309 0.805624 0.105847
H25   H     H_    0.569533 0.135519 0.732448 0.108366
H26   H     H_    0.310361 0.028637 0.544896 0.099971
H27   H     H_    0.207411 0.091669 0.462898 0.100953
H28   H     H_    0.217522 0.176303 0.282934 0.095222
H29   H     H_    0.330974 0.197441 0.184643 0.101721
H30   H     H_    0.434279 0.134005 0.263927 0.107363
H31   H     H_    0.810470 0.316772 0.350420 0.097917
H32   H     H_    0.864139 0.193969 0.369580 0.097634
H33   H     H_    0.930689 0.161590 0.557916 0.093241
H34   H     H_    0.566153 0.690780 0.655713 0.117152
H35   H     H_    0.943130 0.252322 0.728095 0.096384
H36   H     H_    0.891865 0.376185 0.708966 0.107172
H37   H     H_    0.120708 0.389860 0.743111 0.103299
H38   H     H_    0.067090 0.269674 0.789794 0.090784
H39   H     H_    0.064934 0.171210 0.630508 0.093013
H40   H     H_    0.117064 0.192989 0.424217 0.091849
H41   H     H_    0.174035 0.311800 0.377816 0.096384
H42   H     H_    0.434576 0.826234 0.338220 0.089653
H43   H     H_    0.566614 0.826025 0.660873 0.089224
H44   H     H_    0.605311 0.932445 0.564556 0.104503
H45   H     H_    0.396238 0.932460 0.434068 0.105499
H46   H     H_    0.416652 0.172693 0.630623 0.099464
N1    N     N_R   0.500000 0.683620 0.500000 -0.220451
N2    N     N_R   0.500000 0.316380 0.500000 -0.219283
O1    O     O_R   0.400190 0.561980 0.499980 -0.498727
O2    O     O_R   0.599810 0.561980 0.500020 -0.519255
O3    O     O_R   0.400190 0.438070 0.500040 -0.509636
O4    O     O_R   0.599810 0.438070 0.499960 -0.508178
O5    O     O_R   0.500000 0.561970 0.319650 -0.510986
O6    O     O_R   0.500000 0.561970 0.680350 -0.507685
O7    O     O_R   0.500010 0.438060 0.319710 -0.500905
O8    O     O_R   0.499990 0.438060 0.680290 -0.500831

loop_
_geom_bond_atom_site_label_1
_geom_bond_atom_site_label_2
_ccdc_geom_bond_type
C66   C68   A    
C34   C56   A    
C23   C45   A    
Cu1   Cu2   S    
C10   H34   S    
C35   C36   A    
C10   N1    A    
C42   C58   S    
C7    C8    A    
C53   C54   A    
C52   C53   A    
C25   C28   A    
C50   H25   S    
C59   H31   S    
C23   C42   A    
C3    H16   S    
C19   C21   A    
C1    O3    A    
C67   C72   A    
C20   C51   S    
C38   C39   A    
C11   C14   A    
Cu2   O3    S    
C12   O4    A    
C6    C23   S    
C2    C41   A    
C55   H29   S    
C1    C2    S    
C65   H37   S    
C17   C19   A    
C49   H24   S    
C46   C47   A    
C31   C32   A    
C53   H27   S    
C68   C69   A    
Cu1   O1    S    
C15   O7    A    
C45   C67   A    
C9    N1    A    
C51   C57   A    
C64   C70   A    
C16   O8    A    
C68   H39   S    
C4    H17   S    
C30   H6    S    
C27   H4    S    
C40   C42   A    
C12   C72   S    
C59   C60   A    
C15   O5    A    
C13   C14   A    
C41   C43   A    
C40   H9    S    
C61   C62   A    
C27   N2    A    
C44   C46   A    
C43   C64   S    
C38   H1    S    
C69   H40   S    
C24   H46   S    
C26   H3    S    
C34   C43   A    
C51   C52   A    
C3    C6    A    
C5    C7    A    
C56   H13   S    
C6    C8    A    
C58   C59   A    
Cu1   O5    S    
C41   H10   S    
C52   H26   S    
C33   C37   A    
C60   C61   A    
C45   H11   S    
C1    O1    A    
C62   C63   A    
C9    C11   A    
C47   C48   A    
C46   H20   S    
Cu1   O2    S    
C5    C34   S    
C67   H14   S    
C29   H5    S    
C11   H42   S    
C16   O6    A    
C71   H15   S    
C17   H44   S    
C48   C49   A    
Cu2   N2    S    
C21   C28   S    
C49   C50   A    
Cu1   N1    S    
C55   C57   A    
C3    C4    A    
C15   C36   S    
C60   H32   S    
C19   C44   S    
C44   C50   A    
C58   C63   A    
C57   H30   S    
C54   C55   A    
C9    H23   S    
C40   C72   A    
C30   C33   A    
C18   C22   A    
C54   H28   S    
C48   H22   S    
C8    H19   S    
C24   C28   A    
C16   C37   S    
C24   C26   A    
C4    C5    A    
C10   C13   A    
C13   H43   S    
C70   H41   S    
C25   C27   A    
Cu1   O6    S    
C32   H8    S    
C29   C35   A    
C17   C22   A    
C31   H7    S    
C25   H2    S    
C64   C65   A    
C14   C22   S    
C63   H36   S    
Cu2   O8    S    
C37   C39   A    
C30   C32   A    
Cu2   O4    S    
C62   H35   S    
C7    H18   S    
C18   H45   S    
C36   C38   A    
C33   C35   A    
C18   C20   A    
C69   C70   A    
C61   H33   S    
C20   C21   A    
C29   C31   A    
C65   C66   A    
Cu2   O7    S    
C47   H21   S    
C26   N2    A    
C39   H12   S    
C66   H38   S    
C12   O2    A    
C2    C71   A    
C56   C71   A    
