data_mof_unit_65301.cif
_audit_creation_date              2013-03-05T16:11:27-0500
_audit_creation_method            fapswitch 2.2
_symmetry_space_group_name_H-M    P1
_symmetry_Int_Tables_number       1
_space_group_crystal_system       triclinic
_cell_length_a                    36.935937
_cell_length_b                    30.272766
_cell_length_c                    21.723198
_cell_angle_alpha                 90.000026
_cell_angle_beta                  125.0022
_cell_angle_gamma                 90.0
_cell_volume                      19896.5523025

loop_
_atom_site_label
_atom_site_type_symbol
_atom_site_description
_atom_site_fract_x
_atom_site_fract_y
_atom_site_fract_z
_atom_type_partial_charge
O1    O     O_R   0.434530 0.536960 0.934530 -0.616839
O2    O     O_R   0.565470 0.536960 0.065470 -0.616840
O3    O     O_R   0.934530 0.036960 0.934530 -0.616810
O4    O     O_R   0.065470 0.036960 0.065470 -0.616810
O5    O     O_R   0.434530 0.463040 0.934530 -0.625766
O6    O     O_R   0.565470 0.463040 0.065470 -0.625767
O7    O     O_R   0.934530 0.963040 0.934530 -0.625806
O8    O     O_R   0.065470 0.963040 0.065470 -0.625806
C1    C     C_R   0.413651 0.500048 0.913330 0.894629
C2    C     C_R   0.586349 0.500048 0.086670 0.894631
C3    C     C_R   0.913651 0.000049 0.913340 0.894629
C4    C     C_R   0.086348 0.000049 0.086660 0.894630
O9    O     O_R   0.500010 0.536960 0.909550 -0.564132
O10   O     O_R   0.499990 0.536960 0.090450 -0.564131
O11   O     O_R   0.000010 0.036960 0.909550 -0.564004
O12   O     O_R   0.999990 0.036960 0.090450 -0.564004
O13   O     O_R   0.500010 0.463040 0.909550 -0.638707
O14   O     O_R   0.499990 0.463040 0.090450 -0.638707
O15   O     O_R   0.000010 0.963040 0.909550 -0.638769
O16   O     O_R   0.999990 0.963040 0.090450 -0.638768
C5    C     C_R   0.501636 0.500373 0.882402 0.838994
C6    C     C_R   0.498364 0.500373 0.117598 0.838992
C7    C     C_R   0.001632 0.000373 0.882399 0.839119
C8    C     C_R   0.998368 0.000373 0.117601 0.839117
Zn1   Zn    Zn3+2 0.500000 0.549350 0.000000 1.070346
Zn2   Zn    Zn3+2 0.000000 0.049350 0.000000 1.070691
Zn3   Zn    Zn3+2 0.500000 0.450640 0.000000 0.962170
Zn4   Zn    Zn3+2 0.000000 0.950640 0.000000 0.962133
C9    C     C_R   0.000000 0.273963 0.500000 0.100055
C10   C     C_R   0.500000 0.773864 0.500000 0.102929
C11   C     C_R   0.013649 0.296869 0.460703 -0.159395
C12   C     C_R   0.986351 0.296869 0.539297 -0.159394
C13   C     C_R   0.489644 0.796760 0.435848 -0.161208
C14   C     C_R   0.510356 0.796760 0.564152 -0.161207
C15   C     C_R   0.000000 0.365696 0.500000 -0.036428
C16   C     C_R   0.500000 0.865621 0.500000 -0.037028
C17   C     C_R   0.013390 0.342664 0.460294 -0.178575
C18   C     C_R   0.986610 0.342664 0.539706 -0.178578
C19   C     C_R   0.489888 0.842552 0.435964 -0.177088
C20   C     C_R   0.510112 0.842552 0.564036 -0.177087
C21   C     C_2   0.530555 0.471874 0.746071 -0.107993
C22   C     C_2   0.469444 0.471874 0.253929 -0.107994
C23   C     C_2   0.030560 0.971882 0.746077 -0.106872
C24   C     C_2   0.969440 0.971882 0.253923 -0.106871
C25   C     C_2   0.496803 0.488210 0.680706 -0.250046
C26   C     C_2   0.503196 0.488210 0.319293 -0.250046
C27   C     C_2   0.996802 0.988205 0.680704 -0.250751
C28   C     C_2   0.003198 0.988204 0.319296 -0.250752
H1    H     H_    0.560695 0.460574 0.753338 0.171101
H2    H     H_    0.439305 0.460574 0.246662 0.171101
H3    H     H_    0.060705 0.960596 0.753353 0.171151
H4    H     H_    0.939294 0.960596 0.246646 0.171150
H5    H     H_    0.465279 0.494896 0.672189 0.172748
H6    H     H_    0.534721 0.494896 0.327811 0.172748
H7    H     H_    0.965274 0.994877 0.672179 0.172151
H8    H     H_    0.034726 0.994876 0.327822 0.172150
C29   C     C_2   0.526548 0.469799 0.809293 -0.294538
C30   C     C_2   0.473452 0.469799 0.190707 -0.294537
C31   C     C_2   0.026551 0.969807 0.809297 -0.294677
C32   C     C_2   0.973449 0.969807 0.190703 -0.294674
C33   C     C_2   0.508251 0.503473 0.822882 0.151400
C34   C     C_2   0.491749 0.503473 0.177118 0.151400
C35   C     C_2   0.008236 0.003473 0.822867 0.151441
C36   C     C_2   0.991764 0.003473 0.177133 0.151438
H9    H     H_    0.538346 0.440431 0.844372 0.162477
H10   H     H_    0.461654 0.440431 0.155627 0.162477
H11   H     H_    0.038369 0.940448 0.844399 0.162400
H12   H     H_    0.961631 0.940448 0.155601 0.162399
C37   C     C_R   0.296359 0.461167 0.794975 -0.206113
C38   C     C_R   0.703640 0.461167 0.205027 -0.206115
C39   C     C_R   0.796356 0.961192 0.794952 -0.206324
C40   C     C_R   0.203644 0.961192 0.205044 -0.206323
H13   H     H_    0.278421 0.430333 0.781846 0.162627
H14   H     H_    0.721579 0.430333 0.218159 0.162627
H15   H     H_    0.778413 0.930353 0.781718 0.162505
H16   H     H_    0.221587 0.930354 0.218275 0.162505
C41   C     C_R   0.342017 0.460727 0.843511 -0.189245
C42   C     C_R   0.657983 0.460727 0.156492 -0.189245
C43   C     C_R   0.842014 0.960737 0.843452 -0.189231
C44   C     C_R   0.157986 0.960738 0.156544 -0.189231
H17   H     H_    0.358741 0.429445 0.866372 0.173470
H18   H     H_    0.641259 0.429444 0.133633 0.173471
H19   H     H_    0.858736 0.929440 0.866191 0.173460
H20   H     H_    0.141264 0.929441 0.133802 0.173459
C45   C     C_R   0.365618 0.500377 0.862869 -0.132715
C46   C     C_R   0.634382 0.500377 0.137131 -0.132715
C47   C     C_R   0.865619 0.000389 0.862919 -0.132645
C48   C     C_R   0.134380 0.000389 0.137081 -0.132645
C49   C     C_R   0.343175 0.540449 0.832419 -0.159074
C50   C     C_R   0.656825 0.540450 0.167578 -0.159074
C51   C     C_R   0.843179 0.040481 0.832630 -0.159084
C52   C     C_R   0.156821 0.040480 0.167374 -0.159084
H21   H     H_    0.361167 0.571276 0.846150 0.193460
H22   H     H_    0.638834 0.571277 0.153845 0.193460
H23   H     H_    0.861173 0.071312 0.846455 0.193442
H24   H     H_    0.138827 0.071311 0.153552 0.193442
C53   C     C_R   0.297431 0.541314 0.782572 0.467823
C54   C     C_R   0.702569 0.541314 0.217425 0.467823
C55   C     C_R   0.797435 0.041363 0.782825 0.467893
C56   C     C_R   0.202565 0.041363 0.217179 0.467894
C57   C     C_R   0.273828 0.501135 0.764884 -0.000501
C58   C     C_R   0.726172 0.501136 0.235116 -0.000500
C59   C     C_R   0.773830 0.001179 0.765011 -0.000490
C60   C     C_R   0.226170 0.001179 0.234989 -0.000490
C61   C     C_R   0.202829 0.522844 0.742061 -0.154444
C62   C     C_R   0.797171 0.522842 0.257937 -0.154445
C63   C     C_R   0.702819 0.022763 0.742244 -0.154666
C64   C     C_R   0.297181 0.022765 0.257758 -0.154666
H25   H     H_    0.220335 0.542101 0.793390 0.171924
H26   H     H_    0.779665 0.542099 0.206607 0.171924
H27   H     H_    0.720311 0.041930 0.793672 0.172052
H28   H     H_    0.279689 0.041934 0.206332 0.172051
C65   C     C_R   0.157107 0.521263 0.698764 -0.231185
C66   C     C_R   0.842893 0.521261 0.301235 -0.231185
C67   C     C_R   0.657096 0.021174 0.698905 -0.231668
C68   C     C_R   0.342904 0.021176 0.301097 -0.231668
H29   H     H_    0.139590 0.540173 0.716307 0.174016
H30   H     H_    0.860410 0.540171 0.283690 0.174017
H31   H     H_    0.639567 0.039989 0.716526 0.174181
H32   H     H_    0.360433 0.039993 0.283478 0.174180
C69   C     C_R   0.134155 0.496454 0.632327 -0.154459
C70   C     C_R   0.865845 0.496453 0.367673 -0.154461
C71   C     C_R   0.634161 0.996478 0.632341 -0.155914
C72   C     C_R   0.365839 0.996478 0.367659 -0.155912
C73   C     C_R   0.157524 0.471520 0.610458 0.448161
C74   C     C_R   0.842476 0.471521 0.389544 0.448160
C75   C     C_R   0.657553 0.971673 0.610377 0.446936
C76   C     C_R   0.342447 0.971672 0.389621 0.446937
C77   C     C_R   0.203319 0.474378 0.653466 -0.151535
C78   C     C_R   0.796681 0.474379 0.346535 -0.151535
C79   C     C_R   0.703346 0.974543 0.653429 -0.151293
C80   C     C_R   0.296654 0.974541 0.346569 -0.151290
H33   H     H_    0.221499 0.455921 0.636733 0.167250
H34   H     H_    0.778501 0.455924 0.363270 0.167250
H35   H     H_    0.721541 0.956184 0.636625 0.167656
H36   H     H_    0.278459 0.956181 0.363372 0.167655
C81   C     C_R   0.225837 0.499991 0.718755 -0.011566
C82   C     C_R   0.774162 0.499991 0.281245 -0.011565
C83   C     C_R   0.725844 0.000035 0.718853 -0.011750
C84   C     C_R   0.274156 0.000035 0.281148 -0.011752
H37   H     H_    0.024027 0.279280 0.429860 0.147798
H38   H     H_    0.975973 0.279280 0.570140 0.147798
H39   H     H_    0.481852 0.779163 0.386179 0.146711
H40   H     H_    0.518148 0.779163 0.613820 0.146710
O17   O     O_R   0.536960 0.434530 0.536970 -0.632659
O18   O     O_R   0.463040 0.434530 0.463030 -0.632659
O19   O     O_R   0.036960 0.934530 0.536970 -0.632692
O20   O     O_R   0.963040 0.934530 0.463030 -0.632691
C85   C     C_R   0.500000 0.413661 0.500000 0.899418
C86   C     C_R   1.000000 0.913661 0.500000 0.899396
O21   O     O_R   0.536950 0.500000 0.627420 -0.609718
O22   O     O_R   0.463050 0.500000 0.372580 -0.609717
O23   O     O_R   0.036950 0.000000 0.627420 -0.607027
O24   O     O_R   0.963050 0.000000 0.372580 -0.607027
O25   O     O_R   0.463030 0.500000 0.553490 -0.619529
O26   O     O_R   0.536970 0.500000 0.446510 -0.619530
O27   O     O_R   0.963030 0.000000 0.553490 -0.622142
O28   O     O_R   0.036970 0.000000 0.446510 -0.622142
C87   C     C_R   0.499443 0.496596 0.618173 0.938866
C88   C     C_R   0.500557 0.496596 0.381827 0.938865
C89   C     C_R   0.999443 0.996594 0.618172 0.939220
C90   C     C_R   0.000557 0.996594 0.381828 0.939220
Zn5   Zn    Zn3+2 0.549360 0.500000 0.549360 0.992066
Zn6   Zn    Zn3+2 0.450640 0.500000 0.450640 0.992067
Zn7   Zn    Zn3+2 0.049360 0.000000 0.549360 0.991869
Zn8   Zn    Zn3+2 0.950640 0.000000 0.450640 0.991869
O29   O     O_R   0.536960 0.565470 0.536960 -0.616289
O30   O     O_R   0.463040 0.565470 0.463040 -0.616289
O31   O     O_R   0.036960 0.065470 0.536960 -0.616549
O32   O     O_R   0.963040 0.065470 0.463040 -0.616549
C91   C     C_R   0.500000 0.586279 0.500000 0.896591
C92   C     C_R   0.000000 0.086298 0.500000 0.896855
O33   O     O_R   0.000000 0.434540 0.448940 -0.624620
O34   O     O_R   0.000000 0.434540 0.551060 -0.624620
O35   O     O_R   0.500000 0.934540 0.448940 -0.625328
O36   O     O_R   0.500000 0.934540 0.551060 -0.625328
C93   C     C_R   0.000000 0.413622 0.500000 0.843158
C94   C     C_R   0.500000 0.913596 0.500000 0.843277
O37   O     O_R   0.065470 0.500010 0.514410 -0.601424
O38   O     O_R   0.934530 0.500010 0.485590 -0.601423
O39   O     O_R   0.565470 0.000010 0.514410 -0.599606
O40   O     O_R   0.434530 0.000010 0.485590 -0.599607
O41   O     O_R   0.065460 0.500010 0.616540 -0.616615
O42   O     O_R   0.934540 0.500010 0.383460 -0.616614
O43   O     O_R   0.565460 0.000010 0.616540 -0.618671
O44   O     O_R   0.434540 0.000010 0.383460 -0.618670
C95   C     C_R   0.086280 0.498571 0.585759 0.863637
C96   C     C_R   0.913720 0.498571 0.414241 0.863637
C97   C     C_R   0.586282 0.998575 0.585762 0.863374
C98   C     C_R   0.413718 0.998575 0.414238 0.863372
Zn9   Zn    Zn3+2 0.000010 0.500010 0.431810 0.987907
Zn10  Zn    Zn3+2 0.999990 0.500010 0.568190 0.987907
Zn11  Zn    Zn3+2 0.500010 0.000010 0.431810 0.987169
Zn12  Zn    Zn3+2 0.499990 0.000010 0.568190 0.987168
O45   O     O_R   0.000010 0.565480 0.448930 -0.623317
O46   O     O_R   0.999990 0.565480 0.551070 -0.623317
O47   O     O_R   0.500010 0.065480 0.448930 -0.623194
O48   O     O_R   0.499990 0.065480 0.551070 -0.623194
C99   C     C_R   0.000000 0.586428 0.500000 0.877475
C100  C     C_R   0.500000 0.086428 0.500000 0.877853
C101  C     C_R   0.459289 0.296842 0.458969 0.441889
C102  C     C_R   0.540710 0.296842 0.541031 0.441887
C103  C     C_R   0.959290 0.796842 0.458875 0.441890
C104  C     C_R   0.040709 0.796842 0.541125 0.441890
C105  C     C_R   0.459936 0.342622 0.459568 -0.185172
C106  C     C_R   0.540064 0.342622 0.540432 -0.185171
C107  C     C_R   0.959937 0.842622 0.459481 -0.185207
C108  C     C_R   0.040063 0.842622 0.540519 -0.185206
H41   H     H_    0.428740 0.360191 0.428092 0.197876
H42   H     H_    0.571260 0.360191 0.571908 0.197877
H43   H     H_    0.928742 0.860191 0.427932 0.197855
H44   H     H_    0.071258 0.860191 0.572068 0.197855
C109  C     C_R   0.500000 0.365612 0.500000 -0.228759
C110  C     C_R   1.000000 0.865612 0.500000 -0.228728
C111  C     C_R   0.500000 0.273678 0.500000 -0.164818
C112  C     C_R   1.000000 0.773678 0.500000 -0.164797
C113  C     C_R   0.000078 0.703285 0.444118 -0.153182
C114  C     C_R   0.999922 0.703285 0.555882 -0.153184
C115  C     C_R   0.499952 0.203285 0.444002 -0.153161
C116  C     C_R   0.500047 0.203285 0.555998 -0.153162
H45   H     H_    0.000138 0.721103 0.400916 0.151818
H46   H     H_    0.999861 0.721103 0.599084 0.151818
H47   H     H_    0.499915 0.221103 0.400709 0.151818
H48   H     H_    0.500085 0.221103 0.599290 0.151818
C117  C     C_R   0.000074 0.657517 0.444049 -0.184744
C118  C     C_R   0.999926 0.657517 0.555951 -0.184746
C119  C     C_R   0.499949 0.157517 0.443934 -0.184738
C120  C     C_R   0.500050 0.157517 0.556066 -0.184739
H49   H     H_    0.000132 0.640312 0.400393 0.163932
H50   H     H_    0.999868 0.640312 0.599607 0.163932
H51   H     H_    0.499907 0.140311 0.400186 0.163908
H52   H     H_    0.500093 0.140311 0.599814 0.163909
C121  C     C_R   1.000000 0.634419 0.500000 -0.041645
C122  C     C_R   0.500000 0.134418 0.500000 -0.041736
H53   H     H_    0.024008 0.360010 0.429616 0.165020
H54   H     H_    0.975992 0.360010 0.570384 0.165020
H55   H     H_    0.481887 0.859841 0.385941 0.163825
H56   H     H_    0.518113 0.859841 0.614059 0.163824
C123  C     C_R   1.000000 0.725906 0.500000 0.069722
C124  C     C_R   0.500000 0.225906 0.500000 0.069695
C125  C     C_R   0.537323 0.703047 0.557124 -0.157423
C126  C     C_R   0.462677 0.703047 0.442875 -0.157422
C127  C     C_R   0.961620 0.203127 0.479026 -0.157458
C128  C     C_R   0.038380 0.203127 0.520973 -0.157459
H57   H     H_    0.566386 0.720642 0.601276 0.142213
H58   H     H_    0.433614 0.720642 0.398724 0.142213
H59   H     H_    0.931741 0.220717 0.462346 0.142728
H60   H     H_    0.068258 0.220717 0.537654 0.142729
C129  C     C_R   0.537452 0.657253 0.556867 -0.159672
C130  C     C_R   0.462548 0.657253 0.443133 -0.159671
C131  C     C_R   0.961519 0.157331 0.478568 -0.160359
C132  C     C_R   0.038481 0.157331 0.521432 -0.160360
H61   H     H_    0.566571 0.639915 0.601380 0.164793
H62   H     H_    0.433429 0.639915 0.398620 0.164793
H63   H     H_    0.931557 0.140024 0.462122 0.163787
H64   H     H_    0.068443 0.140024 0.537878 0.163787
C133  C     C_R   0.500000 0.634215 0.500000 -0.036519
C134  C     C_R   0.000000 0.134269 0.500000 -0.034853
C135  C     C_R   0.500000 0.725944 0.500000 0.101721
C136  C     C_R   0.000000 0.226031 0.500000 0.101732
O49   O     O_3   0.137339 0.443581 0.549154 -0.754619
H65   H     H_    0.108657 0.433770 0.538292 0.332777
O50   O     O_3   0.862661 0.443583 0.450848 -0.754618
H66   H     H_    0.891342 0.433771 0.461709 0.332776
O51   O     O_3   0.637392 0.943845 0.548935 -0.750930
H67   H     H_    0.608746 0.933923 0.538094 0.335919
O52   O     O_3   0.362608 0.943842 0.451061 -0.750932
H68   H     H_    0.391255 0.933921 0.461903 0.335919
O53   O     O_3   0.418292 0.276600 0.417737 -0.752346
H69   H     H_    0.421483 0.244126 0.421553 0.350478
O54   O     O_3   0.581707 0.276600 0.582263 -0.752345
H70   H     H_    0.578517 0.244126 0.578448 0.350478
O55   O     O_3   0.918294 0.776600 0.417541 -0.752371
H71   H     H_    0.921484 0.744125 0.421322 0.350468
O56   O     O_3   0.081706 0.776600 0.582459 -0.752370
H72   H     H_    0.078516 0.744125 0.578678 0.350468
N1    N     N_R   0.500648 0.545930 0.786972 0.218775
O57   O     O_R   0.464886 0.568046 0.764666 -0.373656
O58   O     O_R   0.531847 0.564945 0.785753 -0.362401
N2    N     N_R   0.499352 0.545931 0.213028 0.218776
O59   O     O_R   0.535114 0.568046 0.235334 -0.373656
O60   O     O_R   0.468153 0.564945 0.214246 -0.362401
N3    N     N_R   0.000604 0.045924 0.786927 0.218484
O61   O     O_R   0.964829 0.068017 0.764612 -0.375501
O62   O     O_R   0.031792 0.064959 0.785701 -0.359353
N4    N     N_R   0.999396 0.045924 0.213073 0.218484
O63   O     O_R   0.035172 0.068017 0.235389 -0.375500
O64   O     O_R   0.968208 0.064960 0.214300 -0.359353
O65   O     O_3   0.277584 0.581674 0.752362 -0.757855
H73   H     H_    0.246842 0.577054 0.708296 0.345256
O66   O     O_3   0.722416 0.581675 0.247632 -0.757855
H74   H     H_    0.753158 0.577056 0.291698 0.345255
O67   O     O_3   0.777590 0.081747 0.752776 -0.757988
H75   H     H_    0.746835 0.077162 0.708735 0.345226
O68   O     O_3   0.222409 0.081746 0.247232 -0.757988
H76   H     H_    0.253165 0.077160 0.291272 0.345226

loop_
_geom_bond_atom_site_label_1
_geom_bond_atom_site_label_2
_geom_bond_distance
_ccdc_geom_bond_type
C6    C34   1.450070 S    
C130  H62   1.083606 S    
O28   C90   1.275075 A    
C119  H51   1.082955 S    
O22   C88   1.284885 A    
C13   H39   1.083736 S    
C30   C34   1.346084 D    
C47   C51   1.402614 A    
C38   C42   1.384191 A    
O20   Zn8   2.017166 S    
C126  C135  1.399392 A    
O44   Zn11  2.009239 S    
C37   C41   1.384190 A    
O56   H72   0.987935 S    
C128  C136  1.398922 A    
O3    C3    1.283711 A    
C120  H52   1.082950 S    
O43   Zn12  2.009243 S    
C44   H20   1.083105 S    
C33   N1    1.445015 S    
O41   Zn10  2.009243 S    
C22   C30   1.464672 S    
C43   C47   1.398889 A    
O19   C86   1.284511 A    
C35   N3    1.445006 S    
O50   H66   0.989648 S    
Zn12  O48   2.016549 S    
C132  H64   1.083197 S    
C103  O55   1.383783 S    
C116  C124  1.395085 A    
O7    C3    1.286303 A    
C14   H40   1.083738 S    
O5    C1    1.286280 A    
C126  H58   1.083873 S    
C118  C121  1.403583 A    
C34   N2    1.445014 S    
C62   C66   1.384470 A    
C125  H57   1.083872 S    
Zn10  O46   2.016549 S    
C61   C65   1.384470 A    
C15   C17   1.401459 A    
O55   H71   0.987935 S    
O20   C86   1.284517 A    
C9    C12   1.399077 A    
C79   H35   1.084089 S    
C99   C121  1.452817 S    
C131  C134  1.401847 A    
C58   C82   1.452459 S    
O49   H65   0.989647 S    
C68   H32   1.083706 S    
C80   H36   1.084091 S    
C62   C82   1.396686 A    
O37   C95   1.276044 A    
C101  O53   1.383758 S    
C74   C78   1.388705 A    
O54   H70   0.987921 S    
C75   C79   1.388632 A    
C129  H61   1.083605 S    
C56   C60   1.415162 A    
C114  C118  1.385528 A    
C116  C120  1.385528 A    
C22   C26   1.335737 D    
C21   H1    1.086092 S    
C29   C33   1.346084 D    
C42   H18   1.083105 S    
C101  C111  1.417626 A    
C16   C20   1.402226 A    
C20   H56   1.083373 S    
O38   C96   1.276044 A    
C41   C45   1.398911 A    
C1    C45   1.455390 S    
C23   H3    1.086091 S    
O5    Zn3   2.016379 S    
C131  H63   1.083200 S    
C30   H10   1.086311 S    
O30   C91   1.283622 A    
C115  C119  1.385525 A    
O16   C8    1.292012 A    
C104  O56   1.383784 S    
C3    C47   1.455334 S    
C43   H19   1.083104 S    
C25   C87   1.439173 S    
C38   H14   1.083906 S    
O33   Zn9   2.016627 S    
N4    O64   1.301901 A    
C17   H53   1.083287 S    
O40   Zn12  2.021989 S    
C12   C18   1.386380 A    
C102  C111  1.417624 A    
O4    C4    1.283710 A    
O19   Zn7   2.017167 S    
O51   H67   0.989624 S    
C113  C123  1.395210 A    
C130  C133  1.401987 A    
C120  C122  1.403456 A    
C26   H6    1.088030 S    
C23   C31   1.464666 S    
C72   C76   1.418081 A    
C31   H11   1.086309 S    
C70   C74   1.418069 A    
C42   C46   1.398912 A    
O66   H74   0.989060 S    
C7    C35   1.450036 S    
C12   H38   1.083507 S    
C105  C109  1.398052 A    
O12   C8    1.272308 A    
O53   H69   0.987921 S    
C107  H43   1.083645 S    
C115  H47   1.083473 S    
O9    Zn1   2.000551 S    
C78   H34   1.084086 S    
O39   C97   1.276081 A    
C114  C123  1.395208 A    
C56   O68   1.381680 S    
C76   C80   1.388632 A    
N2    O60   1.301898 A    
C108  H44   1.083646 S    
C9    C11   1.399078 A    
C73   O49   1.380449 S    
C50   H22   1.083544 S    
O35   C94   1.277618 A    
O45   C99   1.278046 A    
C15   C93   1.450844 S    
O3    Zn2   2.016322 S    
C52   H24   1.083545 S    
Zn7   O31   2.017164 S    
C39   H15   1.083913 S    
C9    C136  1.451031 S    
C67   C71   1.400777 A    
C10   C14   1.399027 A    
C101  C105  1.386007 A    
C132  C134  1.401848 A    
C10   C135  1.450659 S    
O13   Zn3   2.000609 S    
O1    C1    1.283763 A    
C48   C52   1.402613 A    
C103  C112  1.417641 A    
O26   C88   1.275082 A    
C114  H46   1.083573 S    
C125  C129  1.386335 A    
N2    O59   1.301363 A    
O26   Zn5   2.007044 S    
C113  H45   1.083573 S    
C55   C59   1.415162 A    
C46   C50   1.402592 A    
C129  C133  1.401988 A    
O68   H76   0.989052 S    
C64   C84   1.396651 A    
C4    C48   1.455334 S    
C128  H60   1.083518 S    
O11   Zn2   2.000551 S    
O29   C91   1.283620 A    
C40   C60   1.399922 A    
Zn9   O45   2.016548 S    
C55   O67   1.381683 S    
C54   C58   1.415200 A    
O25   C87   1.275083 A    
C117  H49   1.083061 S    
C25   H5    1.088030 S    
C107  C110  1.398066 A    
O13   C5    1.292021 A    
C39   C43   1.384165 A    
C64   H28   1.083575 S    
C49   C53   1.388905 A    
O21   C87   1.284885 A    
C115  C124  1.395087 A    
O44   C98   1.276835 A    
O47   C100  1.278044 A    
O15   C7    1.292012 A    
C102  O54   1.383761 S    
C16   C94   1.452330 S    
C69   C73   1.418072 A    
O67   H75   0.989051 S    
C28   C90   1.439169 S    
C59   C83   1.452334 S    
C69   C95   1.449885 S    
O18   C85   1.284514 A    
C13   C19   1.386276 A    
C106  H42   1.083631 S    
C53   C57   1.415201 A    
C70   C96   1.449885 S    
O6    Zn3   2.016379 S    
C105  H41   1.083631 S    
Zn5   O29   2.017164 S    
O8    C4    1.286301 A    
C91   C133  1.451167 S    
C26   C88   1.439172 S    
C15   C18   1.401464 A    
C61   H25   1.083575 S    
C38   C58   1.399924 A    
O65   H73   0.989058 S    
O42   C96   1.276815 A    
O42   Zn9   2.009239 S    
C77   C81   1.396862 A    
C40   H16   1.083912 S    
C45   C49   1.402592 A    
C37   H13   1.083909 S    
O15   Zn4   2.000609 S    
O34   C93   1.277224 A    
C63   C67   1.384470 A    
C66   H30   1.083706 S    
C22   H2    1.086092 S    
C103  C107  1.386010 A    
C106  C109  1.398049 A    
C11   H37   1.083505 S    
Zn8   O32   2.017164 S    
N3    O61   1.301364 A    
O21   Zn5   1.994307 S    
N1    O58   1.301901 A    
C73   C77   1.388707 A    
O38   Zn10  2.021989 S    
O10   C6    1.272312 A    
O8    Zn4   2.016379 S    
O31   C92   1.283896 A    
C65   H29   1.083707 S    
C31   C35   1.346083 D    
C125  C135  1.399391 A    
C19   H55   1.083370 S    
C71   C97   1.449985 S    
C92   C134  1.452230 S    
C78   C82   1.396863 A    
O16   Zn4   2.000606 S    
O27   C89   1.275075 A    
C71   C75   1.418085 A    
C116  H48   1.083475 S    
O39   Zn11  2.021995 S    
C104  C108  1.386007 A    
C52   C56   1.388854 A    
C27   H7    1.088033 S    
C62   H26   1.083574 S    
C36   N4    1.445017 S    
C5    C33   1.450069 S    
C28   H8    1.088035 S    
C119  C122  1.403456 A    
C39   C59   1.399920 A    
C2    C46   1.455390 S    
C108  C110  1.398068 A    
C77   H33   1.084085 S    
C68   C72   1.400774 A    
C10   C13   1.399027 A    
O46   C99   1.278046 A    
C102  C106  1.386010 A    
O14   C6    1.292021 A    
C112  C123  1.446191 S    
C63   H27   1.083576 S    
O24   C90   1.284888 A    
C16   C19   1.402227 A    
O24   Zn8   1.994304 S    
O14   Zn3   2.000606 S    
O36   C94   1.277620 A    
C100  C122  1.452808 S    
O22   Zn6   1.994304 S    
O12   Zn2   2.000549 S    
O27   Zn8   2.007045 S    
O6    C2    1.286279 A    
O4    Zn2   2.016322 S    
O52   H68   0.989622 S    
O1    Zn1   2.016322 S    
O43   C97   1.276835 A    
C72   C98   1.449985 S    
C37   C57   1.399924 A    
O25   Zn6   2.007045 S    
C80   C84   1.396793 A    
C65   C69   1.400722 A    
O17   Zn5   2.017167 S    
C104  C112  1.417644 A    
C67   H31   1.083706 S    
C75   O51   1.380380 S    
C32   C36   1.346091 D    
C51   C55   1.388854 A    
C64   C68   1.384470 A    
C127  C131  1.386391 A    
C57   C81   1.452459 S    
C54   O66   1.381671 S    
C126  C130  1.386335 A    
C21   C29   1.464674 S    
C40   C44   1.384165 A    
C24   C28   1.335738 D    
C118  H50   1.083055 S    
O34   Zn10  2.016628 S    
O9    C5    1.272310 A    
C18   H54   1.083282 S    
C24   H4    1.086098 S    
N4    O63   1.301373 A    
C113  C117  1.385528 A    
O32   C92   1.283899 A    
C24   C32   1.464665 S    
Zn11  O47   2.016548 S    
C66   C70   1.400724 A    
O11   C7    1.272306 A    
C76   O52   1.380378 S    
C50   C54   1.388905 A    
C74   O50   1.380449 S    
C8    C36   1.450039 S    
O2    Zn1   2.016322 S    
C53   O65   1.381671 S    
C127  C136  1.398922 A    
C86   C110  1.454585 S    
O10   Zn1   2.000549 S    
C49   H21   1.083544 S    
C127  H59   1.083521 S    
C85   C109  1.454585 S    
C79   C83   1.396795 A    
O7    Zn4   2.016379 S    
C61   C81   1.396685 A    
C27   C89   1.439169 S    
C117  C121  1.403581 A    
C11   C17   1.386380 A    
O37   Zn9   2.021995 S    
C32   H12   1.086320 S    
C51   H23   1.083546 S    
C44   C48   1.398888 A    
C41   H17   1.083106 S    
Zn6   O30   2.017164 S    
O23   Zn7   1.994307 S    
O18   Zn6   2.017166 S    
C21   C25   1.335735 D    
C14   C20   1.386276 A    
O48   C100  1.278045 A    
C111  C124  1.446200 S    
O40   C98   1.276081 A    
O36   Zn12  2.016628 S    
O33   C93   1.277227 A    
N1    O57   1.301363 A    
C128  C132  1.386391 A    
C23   C27   1.335731 D    
O35   Zn11  2.016627 S    
O23   C89   1.284888 A    
O17   C85   1.284514 A    
O41   C95   1.276812 A    
C63   C83   1.396650 A    
O28   Zn7   2.007044 S    
C60   C84   1.452331 S    
N3    O62   1.301897 A    
C29   H9    1.086308 S    
O2    C2    1.283762 A    
