data_mof_unit_62922.cif
_audit_creation_date              2012-12-10T21:20:46-0500
_audit_creation_method            fapswitch 2.2
_symmetry_space_group_name_H-M    P1
_symmetry_Int_Tables_number       1
_space_group_crystal_system       triclinic
_cell_length_a                    17.583037
_cell_length_b                    16.899209
_cell_length_c                    19.122786
_cell_angle_alpha                 89.997755
_cell_angle_beta                  94.018188
_cell_angle_gamma                 90.115205
_cell_volume                      5668.15449855

loop_
_atom_site_label
_atom_site_type_symbol
_atom_type_description
_atom_site_fract_x
_atom_site_fract_y
_atom_site_fract_z
_atom_type_partial_charge
C1    C     C_R   0.353206 0.500079 0.503493 0.958056
C2    C     C_R   0.646580 0.500244 0.495840 0.947023
C3    C     C_R   0.728542 0.503419 0.482862 -0.150082
C4    C     C_R   0.270144 0.502965 0.511954 -0.138615
C5    C     C_R   0.885328 0.531686 0.485109 0.032943
C6    C     C_R   0.113693 0.532883 0.494962 0.034345
C7    C     C_1   0.965556 0.544058 0.486632 -0.009344
C8    C     C_1   0.033281 0.544452 0.489432 -0.008947
C9    C     C_R   0.440271 0.833634 0.464565 -0.140339
C10   C     C_R   0.537408 0.166322 0.555565 -0.163122
C11   C     C_R   0.559618 0.833939 0.535451 -0.139432
C12   C     C_R   0.462359 0.166052 0.444772 -0.172038
C13   C     C_R   0.440260 0.749100 0.466474 0.043690
C14   C     C_R   0.534759 0.250877 0.555775 -0.004261
C15   C     C_R   0.559914 0.749427 0.533057 0.035546
C16   C     C_R   0.465094 0.250630 0.444334 -0.004996
C17   C     C_R   0.499874 0.876426 0.500154 -0.046979
C18   C     C_R   0.499877 0.123563 0.500207 -0.033589
C19   C     C_1   0.499832 0.963840 0.500251 0.153973
C20   C     C_1   0.499837 0.036160 0.500267 0.158906
C21   C     C_R   0.504030 0.499771 0.365189 0.930529
C22   C     C_R   0.496577 0.499646 0.634919 0.931791
C23   C     C_R   0.481193 0.551145 0.241429 -0.124527
C24   C     C_R   0.440317 0.431578 0.735391 -0.078186
C25   C     C_R   0.521974 0.547948 0.759476 -0.140312
C26   C     C_R   0.555114 0.429570 0.263659 -0.091184
C27   C     C_R   0.472048 0.531417 0.169910 -0.080041
C28   C     C_R   0.444266 0.413260 0.807347 -0.082422
C29   C     C_R   0.524576 0.530166 0.831468 -0.062517
C30   C     C_R   0.545790 0.409941 0.192040 -0.078386
C31   C     C_R   0.501549 0.459398 0.146042 -0.083024
C32   C     C_R   0.488510 0.461227 0.854625 -0.076077
C33   C     C_R   0.515874 0.496014 0.289293 -0.148785
C34   C     C_R   0.484329 0.495466 0.710768 -0.179709
C35   C     C_R   0.491694 0.444586 0.929776 0.344160
C36   C     C_R   0.497739 0.443968 0.070737 0.321192
C37   C     C_R   0.835388 0.585358 0.450420 -0.079739
C38   C     C_R   0.142059 0.460387 0.472190 -0.074375
C39   C     C_R   0.161029 0.587400 0.531991 -0.087718
C40   C     C_R   0.858762 0.460780 0.513066 -0.070502
C41   C     C_R   0.756602 0.570447 0.447123 -0.081987
C42   C     C_R   0.220241 0.443585 0.482782 -0.108687
C43   C     C_R   0.239461 0.571671 0.542771 -0.087482
C44   C     C_R   0.780208 0.444988 0.510273 -0.100640
N1    N     N_R   0.562863 0.443146 0.036903 -0.126725
N2    N     N_R   0.426541 0.442557 0.963604 -0.107830
N3    N     N_R   0.559887 0.443174 0.967399 -0.111161
N4    N     N_R   0.429543 0.441898 0.033156 -0.081159
N5    N     N_R   0.500000 0.707230 0.500000 -0.159957
N6    N     N_R   0.500000 0.292770 0.500000 -0.151932
O1    O     O_R   0.389110 0.566570 0.500000 -0.632592
O2    O     O_R   0.610890 0.433430 0.500000 -0.546334
O3    O     O_R   0.610890 0.566570 0.500000 -0.629002
O4    O     O_R   0.389110 0.433430 0.500000 -0.547422
O5    O     O_R   0.499990 0.566560 0.398140 -0.541673
O6    O     O_R   0.500010 0.433440 0.601860 -0.635548
O7    O     O_R   0.500010 0.566560 0.601860 -0.550381
O8    O     O_R   0.499990 0.433440 0.398140 -0.639767
Zn1   Zn    Zn3+2 0.500000 0.588860 0.500000 1.071222
Zn2   Zn    Zn3+2 0.500000 0.411140 0.500000 1.050386
C45   C     C_2   0.457376 0.630848 0.263932 1.029652
O9    O     O_2   0.503214 0.673972 0.296496 -0.554633
O10   O     O_R   0.384144 0.658506 0.243836 -0.751134
H1    H     H_    0.376002 0.715157 0.259038 0.383843
C46   C     C_2   0.388176 0.384947 0.686292 1.023394
O11   O     O_2   0.342401 0.419202 0.646076 -0.574903
O12   O     O_R   0.390130 0.302245 0.687218 -0.741809
H2    H     H_    0.351626 0.277644 0.651697 0.373982
C47   C     C_2   0.554881 0.623767 0.737148 1.000427
O13   O     O_2   0.513300 0.674282 0.709288 -0.582737
O14   O     O_R   0.632537 0.639175 0.751710 -0.714989
H3    H     H_    0.647236 0.695084 0.738833 0.384190
C48   C     C_2   0.608687 0.382805 0.311335 1.018740
O15   O     O_2   0.655222 0.417154 0.350928 -0.589475
O16   O     O_R   0.606859 0.300096 0.310365 -0.740204
H4    H     H_    0.645990 0.275730 0.345373 0.373219
C49   C     C_2   0.437597 0.589773 0.119068 0.979014
O17   O     O_2   0.372330 0.580328 0.093966 -0.536031
O18   O     O_R   0.479513 0.656415 0.101731 -0.769720
H5    H     H_    0.449848 0.692383 0.067317 0.372283
C50   C     C_2   0.401329 0.344629 0.833589 1.000060
O19   O     O_2   0.434639 0.294277 0.869967 -0.547831
O20   O     O_R   0.322818 0.338218 0.817114 -0.757270
H6    H     H_    0.300112 0.289127 0.837977 0.373312
C51   C     C_2   0.559678 0.586947 0.883750 0.944056
O21   O     O_2   0.628634 0.597546 0.888195 -0.527084
O22   O     O_R   0.513606 0.625838 0.929441 -0.774203
H7    H     H_    0.543909 0.662013 0.963314 0.372989
C52   C     C_2   0.583761 0.338985 0.164428 1.009678
O23   O     O_2   0.546194 0.289825 0.130043 -0.547015
O24   O     O_R   0.662510 0.329309 0.176826 -0.757566
H8    H     H_    0.681590 0.278968 0.155211 0.372946
C53   C     C_1   0.865869 0.653766 0.415789 0.289806
N7    N     N_1   0.890325 0.708222 0.388234 -0.111916
C54   C     C_1   0.089650 0.401784 0.440322 0.261839
N8    N     N_1   0.047891 0.355283 0.414957 -0.118358
C55   C     C_1   0.127859 0.657492 0.561513 0.286635
N9    N     N_1   0.101274 0.713277 0.584967 -0.107337
C56   C     C_1   0.912971 0.402904 0.542948 0.255269
N10   N     N_1   0.956122 0.356954 0.566743 -0.121287
C57   C     C_2   0.704657 0.621129 0.401255 0.971430
O25   O     O_2   0.656828 0.590291 0.360559 -0.586728
O26   O     O_R   0.711555 0.703545 0.403167 -0.750780
H9    H     H_    0.672731 0.730811 0.369694 0.373732
C58   C     C_2   0.247086 0.362376 0.467694 1.023419
O27   O     O_2   0.228543 0.330982 0.411402 -0.569244
O28   O     O_R   0.289606 0.319980 0.519559 -0.753109
H10   H     H_    0.303550 0.265029 0.503517 0.351314
C59   C     C_2   0.287963 0.622826 0.591609 0.974418
O29   O     O_2   0.281730 0.694863 0.589831 -0.563079
O30   O     O_R   0.339559 0.587879 0.641042 -0.774115
H11   H     H_    0.367654 0.628236 0.672443 0.373238
C60   C     C_2   0.754309 0.365798 0.532492 1.018319
O31   O     O_2   0.774790 0.340414 0.590684 -0.569440
O32   O     O_R   0.710728 0.318229 0.485091 -0.751861
H12   H     H_    0.698149 0.264836 0.505580 0.354422
C61   C     C_2   0.378864 0.877273 0.423049 0.991687
O33   O     O_2   0.346266 0.932587 0.449259 -0.572700
O34   O     O_R   0.358491 0.854722 0.353897 -0.790529
H13   H     H_    0.316198 0.888661 0.331134 0.366235
C62   C     C_2   0.580943 0.122446 0.612945 0.979257
O35   O     O_2   0.646069 0.142574 0.631664 -0.579823
O36   O     O_R   0.547503 0.058206 0.645302 -0.760666
H14   H     H_    0.583024 0.033010 0.682954 0.374638
C63   C     C_2   0.621124 0.878127 0.576586 0.991265
O37   O     O_2   0.639952 0.858451 0.636874 -0.590394
O38   O     O_R   0.657173 0.942200 0.546414 -0.768385
H15   H     H_    0.697370 0.967670 0.579794 0.370466
C64   C     C_2   0.418626 0.121825 0.387625 1.000449
O39   O     O_2   0.353331 0.141424 0.369265 -0.563077
O40   O     O_R   0.452091 0.057874 0.355075 -0.764389
H16   H     H_    0.416456 0.032416 0.317576 0.368744
C65   C     C_2   0.372470 0.707854 0.433711 0.986206
O41   O     O_2   0.379482 0.656006 0.390513 -0.597718
O42   O     O_R   0.299512 0.731436 0.449696 -0.764058
H17   H     H_    0.257682 0.699673 0.423420 0.350085
C66   C     C_2   0.566572 0.291952 0.619713 1.010566
O43   O     O_2   0.544654 0.273572 0.676803 -0.572302
O44   O     O_R   0.623803 0.348441 0.616064 -0.756722
H18   H     H_    0.640832 0.371386 0.663628 0.355388
C67   C     C_2   0.628458 0.708567 0.564083 0.983369
O45   O     O_2   0.622627 0.656465 0.607240 -0.591417
O46   O     O_R   0.700770 0.732374 0.546167 -0.762857
H19   H     H_    0.743250 0.700406 0.571065 0.353511
C68   C     C_2   0.433003 0.291421 0.380354 1.010354
O47   O     O_2   0.453591 0.271955 0.323072 -0.575869
O48   O     O_R   0.376891 0.348826 0.384203 -0.758762
H20   H     H_    0.359492 0.371378 0.336604 0.351445

loop_
_geom_bond_atom_site_label_1
_geom_bond_atom_site_label_2
_ccdc_geom_bond_type
O22   H7    S    
C57   O25   D    
C5    C37   A    
C9    C61   S    
C48   O15   D    
C54   N8    T    
C1    O4    A    
C10   C62   S    
C35   N3    A    
C22   O7    A    
C50   O19   D    
O3    Zn1   S    
C7    C8    T    
O4    Zn2   S    
C51   O21   D    
C58   O28   S    
C53   N7    T    
C11   C63   S    
C16   N6    A    
C38   C42   A    
C29   C32   A    
O5    Zn1   S    
C61   O34   S    
C30   C31   A    
O46   H19   S    
C39   C55   S    
C21   C33   S    
O8    Zn2   S    
O32   H12   S    
C55   N9    T    
C26   C48   S    
C47   O14   S    
N1    N3    A    
C45   O10   S    
C9    C13   A    
O2    Zn2   S    
C50   O20   S    
C15   C67   S    
C11   C15   A    
C11   C17   A    
O48   H20   S    
C23   C33   A    
C38   C54   S    
O28   H10   S    
C6    C38   A    
C23   C27   A    
C52   O24   S    
O42   H17   S    
C59   O29   D    
C29   C51   S    
C25   C34   A    
C51   O22   S    
C63   O37   D    
C57   O26   S    
C65   O42   S    
C48   O16   S    
C47   O13   D    
C40   C56   S    
C30   C52   S    
C68   O48   S    
C68   O47   D    
C49   O18   S    
C25   C29   A    
C22   C34   S    
N2    N4    A    
C3    C44   A    
C12   C64   S    
C27   C31   A    
O12   H2    S    
C32   C35   S    
C12   C16   A    
O36   H14   S    
C10   C14   A    
O24   H8    S    
C5    C7    S    
C22   O6    A    
C46   O12   S    
C49   O17   D    
C24   C34   A    
O6    Zn2   S    
C16   C68   S    
C67   O46   S    
O16   H4    S    
C66   O44   S    
C26   C33   A    
O20   H6    S    
C14   C66   S    
C28   C32   A    
O44   H18   S    
C37   C53   S    
C36   N1    A    
C1    O1    A    
C62   O35   D    
C2    O2    A    
C24   C46   S    
C13   N5    A    
C9    C17   A    
C44   C60   S    
C26   C30   A    
C65   O41   D    
C25   C47   S    
O38   H15   S    
C21   O5    A    
C60   O31   D    
C66   O43   D    
C23   C45   S    
C3    C41   A    
O30   H11   S    
C28   C50   S    
C31   C36   S    
C13   C65   S    
C24   C28   A    
O10   H1    S    
C27   C49   S    
C2    O3    A    
C6    C8    S    
O34   H13   S    
C4    C43   A    
C58   O27   D    
N5    Zn1   S    
C56   N10   T    
C1    C4    S    
N6    Zn2   S    
O14   H3    S    
C19   C20   T    
C59   O30   S    
C2    C3    S    
C64   O39   D    
C21   O8    A    
C67   O45   D    
C14   N6    A    
C4    C42   A    
C10   C18   A    
C17   C19   S    
C41   C57   S    
C36   N4    A    
C18   C20   S    
C15   N5    A    
C37   C41   A    
C45   O9    D    
C42   C58   S    
C62   O36   S    
O7    Zn1   S    
O18   H5    S    
C40   C44   A    
O1    Zn1   S    
C39   C43   A    
C46   O11   D    
C5    C40   A    
C12   C18   A    
O26   H9    S    
C63   O38   S    
C6    C39   A    
C43   C59   S    
C60   O32   S    
C52   O23   D    
C61   O33   D    
C35   N2    A    
O40   H16   S    
C64   O40   S    
