data_mof_unit_60100.cif
_audit_creation_date              2013-03-05T15:46:45-0500
_audit_creation_method            fapswitch 2.2
_symmetry_space_group_name_H-M    P1
_symmetry_Int_Tables_number       1
_space_group_crystal_system       triclinic
_cell_length_a                    10.270811
_cell_length_b                    10.801435
_cell_length_c                    12.036916
_cell_angle_alpha                 91.603379
_cell_angle_beta                  109.224547
_cell_angle_gamma                 95.80241
_cell_volume                      1251.77178574

loop_
_atom_site_label
_atom_site_type_symbol
_atom_site_description
_atom_site_fract_x
_atom_site_fract_y
_atom_site_fract_z
_atom_type_partial_charge
O1    O     O_R   0.936910 0.692950 0.509080 -0.551583
O2    O     O_R   0.138320 0.658600 0.480130 -0.601198
C1    C     C_R   0.048624 0.731617 0.488832 0.955937
O3    O     O_R   0.002900 0.525670 0.675280 -0.578714
O4    O     O_R   0.204310 0.491320 0.646330 -0.624701
C2    C     C_R   0.135055 0.516487 0.715651 0.900954
Zn1   Zn    Zn3+2 0.865520 0.522940 0.519330 1.078763
Zn2   Zn    Zn3+2 0.134480 0.477060 0.480670 1.093383
O5    O     O_R   0.861680 0.341400 0.519870 -0.594854
O6    O     O_R   0.063090 0.307050 0.490920 -0.546357
O7    O     O_R   0.795690 0.508680 0.353670 -0.596454
O8    O     O_R   0.997100 0.474330 0.324720 -0.547651
C3    C     C_R   0.945625 0.266616 0.499628 0.915092
C4    C     C_R   0.865354 0.484371 0.284209 0.969213
C5    C     C_R   0.669266 0.266785 0.024272 0.176418
C6    C     C_R   0.786290 0.446803 0.160020 -0.229261
C7    C     C_R   0.205015 0.650877 0.903770 0.087469
C8    C     C_R   0.301907 0.683557 0.016329 0.409705
C9    C     C_R   0.415109 0.616722 0.058890 -0.158111
C10   C     C_R   0.431895 0.514139 0.992001 0.045923
C11   C     C_R   0.317356 0.463189 0.895588 -0.034216
C12   C     C_R   0.554880 0.455361 0.024215 -0.031018
C13   C     C_R   0.553922 0.333749 0.974134 -0.120851
C14   C     C_R   0.435865 0.283216 0.878788 0.169324
C15   C     C_R   0.314773 0.341007 0.850765 0.123564
C16   C     C_R   0.679929 0.515617 0.103738 0.287197
C17   C     C_R   0.786479 0.325914 0.114207 0.262035
C18   C     C_R   0.211468 0.538500 0.842916 -0.201422
H1    H     H_    0.487990 0.644402 0.145947 0.230304
C19   C     C_2   0.069771 0.862874 0.476028 -0.351243
C20   C     C_2   0.959797 0.926188 0.431163 0.388724
C21   C     C_2   0.912918 0.131453 0.487118 -0.082859
C22   C     C_2   0.983799 0.059924 0.437044 0.295513
H2    H     H_    0.174873 0.909988 0.512839 0.183341
H3    H     H_    0.446518 0.520779 0.616140 0.143650
N1    N     N_2   0.313640 0.446500 0.454900 0.008748
C23   C     C_2   0.437311 0.487732 0.527747 -0.055325
N2    N     N_2   0.686360 0.553430 0.545150 -0.054416
C24   C     C_2   0.570731 0.476359 0.500652 0.227050
Cl1   Cl    Cl    0.935566 0.249220 0.167176 -0.432211
Cl2   Cl    Cl    0.789842 0.854955 0.351192 -0.433097
I1    I     I_    0.767710 0.055632 0.567031 -0.081421
I2    I     I_    0.563694 0.310541 0.396095 -0.126317
I3    I     I_    0.682735 0.712542 0.644990 -0.093594
I4    I     I_    0.278829 0.473015 0.276244 -0.058434
I5    I     I_    0.445276 0.161452 0.738595 -0.183547
I6    I     I_    0.655115 0.066645 0.005773 0.026203
Cl3   Cl    Cl    0.724079 0.678828 0.110024 -0.476071
I7    I     I_    0.066516 0.782667 0.824465 -0.096950
Cl4   Cl    Cl    0.292026 0.813978 0.103282 -0.422647
I8    I     I_    0.123883 0.222472 0.788897 -0.190454
Cl5   Cl    Cl    0.119041 0.114585 0.381660 -0.423537

loop_
_geom_bond_atom_site_label_1
_geom_bond_atom_site_label_2
_geom_bond_distance
_ccdc_geom_bond_type
O4    Zn2   1.879617 S    
C13   C14   1.414230 A    
C15   I8    2.124943 S    
N2    I3    2.079949 S    
C16   Cl3   1.768477 S    
C1    C19   1.432824 S    
C3    C21   1.456771 S    
C5    C17   1.405957 A    
C9    C10   1.409205 A    
C5    I6    2.152278 S    
C17   Cl1   1.755165 S    
Zn2   O8    1.939006 S    
C14   I5    2.143751 S    
C21   C22   1.366329 D    
C6    C17   1.403587 A    
C5    C13   1.420466 A    
O2    C1    1.299049 A    
N1    I4    2.093606 S    
C23   C24   1.524918 S    
C14   C15   1.393826 A    
C22   Cl5   1.785629 S    
Zn1   O7    1.879617 S    
C19   C20   1.345478 D    
O3    Zn1   1.939006 S    
Zn2   O6    1.930038 S    
N1    C23   1.308025 D    
H3    C23   1.083547 S    
Zn1   N2    2.021019 S    
C10   C12   1.415048 A    
C7    C8    1.401742 A    
Zn2   N1    2.020937 S    
C6    C16   1.381953 A    
O4    C2    1.301294 A    
O7    C4    1.303687 A    
C4    C6    1.469254 S    
C20   C22   1.436415 S    
C19   H2    1.087154 S    
O5    C3    1.312772 A    
C21   I1    2.135923 S    
C9    H1    1.080957 S    
C2    C18   1.472841 S    
N2    C24   1.321570 D    
C10   C11   1.402815 A    
C8    Cl4   1.762575 S    
O3    C2    1.297652 A    
C8    C9    1.390529 A    
C12   C16   1.405678 A    
C7    I7    2.133635 S    
Zn1   O5    1.957536 S    
C11   C15   1.406110 A    
C12   C13   1.427637 A    
C24   I2    2.141232 S    
C20   Cl2   1.773718 S    
O1    Zn1   1.930036 S    
C7    C18   1.418748 A    
C11   C18   1.414261 A    
O2    Zn2   1.957533 S    
O8    C4    1.295624 A    
O1    C1    1.281921 A    
O6    C3    1.279294 A    
