data_mof_unit_6726.cif
_audit_creation_date              2012-12-11T16:51:21-0500
_audit_creation_method            fapswitch 2.2
_symmetry_space_group_name_H-M    P1
_symmetry_Int_Tables_number       1
_space_group_crystal_system       triclinic
_cell_length_a                    24.468027
_cell_length_b                    17.253162
_cell_length_c                    15.545585
_cell_angle_alpha                 89.999207
_cell_angle_beta                  128.64032
_cell_angle_gamma                 89.998723
_cell_volume                      5125.90945082

loop_
_atom_site_label
_atom_site_type_symbol
_atom_type_description
_atom_site_fract_x
_atom_site_fract_y
_atom_site_fract_z
_atom_type_partial_charge
C1    C     C_R   0.832720 0.896567 0.197383 -0.037177
C2    C     C_R   0.184649 0.117884 0.502038 0.060963
C3    C     C_2   0.743082 0.692308 0.983666 1.042958
C4    C     C_2   0.909609 0.331535 0.228711 1.101322
C5    C     C_2   0.090294 0.331419 0.771894 1.100754
C6    C     C_2   0.409674 0.831423 0.228116 1.100462
C7    C     C_2   0.590260 0.831403 0.771920 1.100500
C8    C     C_2   0.909845 0.093617 0.705073 0.950788
C9    C     C_2   0.090152 0.093618 0.294924 0.950862
C10   C     C_2   0.409847 0.593615 0.705074 0.950783
C11   C     C_2   0.590155 0.593619 0.294927 0.950812
C12   C     C_R   0.315350 0.617885 0.497962 0.060946
C13   C     C_R   0.684647 0.617889 0.502038 0.060952
C14   C     C_R   0.889101 0.187818 0.227149 0.081487
C15   C     C_R   0.110941 0.187779 0.772978 0.081058
C16   C     C_R   0.389051 0.687778 0.227011 0.080820
C17   C     C_R   0.610950 0.687772 0.772998 0.080844
C18   C     C_R   0.843274 0.731176 0.612227 -0.191325
C19   C     C_R   0.156718 0.731168 0.387774 -0.191338
C20   C     C_R   0.343271 0.231177 0.612226 -0.191367
C21   C     C_R   0.167279 0.896559 0.802617 -0.037165
C22   C     C_R   0.656722 0.231176 0.387769 -0.191371
C23   C     C_R   0.836299 0.742450 0.516725 0.132988
C24   C     C_R   0.163699 0.742444 0.483281 0.132968
C25   C     C_R   0.336295 0.242452 0.516724 0.132992
C26   C     C_R   0.663700 0.242449 0.483274 0.132999
C27   C     C_R   0.796081 0.689367 0.429675 -0.061434
C28   C     C_R   0.203921 0.689359 0.570334 -0.061382
C29   C     C_R   0.296080 0.189368 0.429675 -0.061408
C30   C     C_R   0.703919 0.189362 0.570324 -0.061348
C31   C     C_R   0.251637 0.137976 0.429601 -0.097428
C32   C     C_R   0.332721 0.396558 0.197391 -0.037169
C33   C     C_R   0.748363 0.137970 0.570398 -0.097435
C34   C     C_R   0.751635 0.637979 0.429600 -0.097429
C35   C     C_R   0.248366 0.637969 0.570406 -0.097407
C36   C     C_R   0.245678 0.143397 0.513784 0.158684
C37   C     C_R   0.754319 0.143394 0.486212 0.158694
C38   C     C_R   0.745678 0.643401 0.513783 0.158746
C39   C     C_R   0.254319 0.643391 0.486217 0.158697
C40   C     C_R   0.297951 0.182991 0.610066 -0.210938
C41   C     C_R   0.702042 0.182989 0.389929 -0.210843
C42   C     C_R   0.797952 0.682993 0.610066 -0.210909
C43   C     C_R   0.667272 0.396496 0.802565 -0.037360
C44   C     C_R   0.202039 0.682983 0.389933 -0.210934
C45   C     C_3   0.794063 0.734506 0.683878 0.445291
C46   C     C_3   0.205921 0.734495 0.316110 0.445374
C47   C     C_3   0.294059 0.234504 0.683876 0.445371
C48   C     C_3   0.705929 0.234505 0.316114 0.445399
C49   C     C_R   0.084661 0.856164 0.405188 -0.114015
C50   C     C_R   0.915337 0.856166 0.594816 -0.114003
C51   C     C_R   0.584661 0.356166 0.405185 -0.113998
C52   C     C_R   0.415333 0.356168 0.594815 -0.113943
C53   C     C_3   0.843984 0.787739 0.686503 1.214786
C54   C     C_R   0.883706 0.101952 0.590800 -0.061846
C55   C     C_3   0.156000 0.787730 0.313487 1.214792
C56   C     C_3   0.343979 0.287740 0.686501 1.214765
C57   C     C_3   0.656009 0.287741 0.313490 1.214791
C58   C     C_2   0.192696 0.847909 0.977162 -0.105027
C59   C     C_2   0.807295 0.847941 0.022821 -0.105610
C60   C     C_2   0.692727 0.347653 0.977041 -0.104871
C61   C     C_2   0.307293 0.347892 0.022848 -0.105110
C62   C     C_2   0.260617 0.838686 0.026349 -0.087740
C63   C     C_2   0.739376 0.838696 0.973641 -0.087826
C64   C     C_2   0.760673 0.338601 0.026239 -0.087876
C65   C     C_R   0.116293 0.101949 0.409199 -0.062136
C66   C     C_2   0.239373 0.338666 0.973677 -0.087783
C67   C     C_2   0.863397 0.262413 0.170995 -0.206617
C68   C     C_2   0.136671 0.262357 0.829183 -0.206119
C69   C     C_2   0.363315 0.762359 0.170812 -0.205870
C70   C     C_2   0.636674 0.762360 0.829182 -0.206046
C71   C     C_2   0.795451 0.265035 0.078857 -0.147561
C72   C     C_2   0.204720 0.265072 0.920985 -0.146880
C73   C     C_2   0.295265 0.765083 0.079023 -0.146878
C74   C     C_2   0.704739 0.765100 0.920932 -0.146610
C75   C     C_R   0.162131 0.855826 0.588091 0.733803
C76   C     C_R   0.383707 0.601951 0.590801 -0.061828
C77   C     C_R   0.837870 0.855830 0.411912 0.733795
C78   C     C_R   0.662136 0.355829 0.588086 0.733825
C79   C     C_R   0.337867 0.355831 0.411912 0.733757
C80   C     C_R   0.076850 0.896013 0.804002 -0.071651
C81   C     C_R   0.923147 0.896023 0.195993 -0.071620
C82   C     C_R   0.576855 0.395939 0.803984 -0.071807
C83   C     C_R   0.423146 0.396010 0.195996 -0.071672
C84   C     C_R   0.852700 0.879590 0.133922 0.056751
C85   C     C_R   0.147295 0.879577 0.866072 0.056751
C86   C     C_R   0.352701 0.379570 0.133933 0.056840
C87   C     C_R   0.616292 0.601953 0.409199 -0.061859
C88   C     C_R   0.647298 0.379447 0.866013 0.057359
C89   C     C_R   0.136427 0.812971 0.493966 -0.132630
C90   C     C_R   0.863572 0.812975 0.506039 -0.132631
C91   C     C_R   0.636429 0.312974 0.493961 -0.132593
C92   C     C_R   0.363568 0.312977 0.506038 -0.132616
C93   C     C_R   0.811542 0.100680 0.408221 -0.032677
C94   C     C_R   0.188458 0.100677 0.591777 -0.032648
C95   C     C_R   0.311541 0.600678 0.408222 -0.032765
C96   C     C_R   0.688457 0.600680 0.591778 -0.032783
C97   C     C_R   0.945258 0.144913 0.252424 0.028417
C98   C     C_R   0.815350 0.117886 0.497959 0.060951
C99   C     C_R   0.054775 0.144878 0.747673 0.027664
C100  C     C_R   0.445219 0.644878 0.252318 0.027616
C101  C     C_R   0.554781 0.644874 0.747687 0.027501
C102  C     C_R   0.145375 0.144146 0.746159 -0.091252
C103  C     C_R   0.854622 0.144153 0.253847 -0.091676
C104  C     C_R   0.645377 0.644143 0.746162 -0.091362
C105  C     C_R   0.354620 0.644145 0.253835 -0.091391
C106  C     C_2   0.757382 0.192216 0.015839 1.043651
C107  C     C_2   0.243022 0.192273 0.983764 1.043027
C108  C     C_2   0.256962 0.692291 0.016240 1.043045
F1    F     F_    0.728503 0.767454 0.630408 -0.629474
F2    F     F_    0.091387 0.792698 0.210110 -0.714471
F3    F     F_    0.408588 0.292708 0.789881 -0.714544
F4    F     F_    0.591398 0.292713 0.210112 -0.714540
F5    F     F_    0.218244 0.837638 0.692300 -0.720306
F6    F     F_    0.781759 0.837643 0.307704 -0.720299
F7    F     F_    0.718272 0.337653 0.692281 -0.720293
F8    F     F_    0.281753 0.337647 0.307705 -0.720336
F9    F     F_    0.271478 0.767441 0.369569 -0.629448
F10   F     F_    0.228498 0.267449 0.630404 -0.629442
F11   F     F_    0.771489 0.267447 0.369581 -0.629542
F12   F     F_    0.815210 0.859340 0.638548 -0.647039
F13   F     F_    0.184772 0.859330 0.361434 -0.647022
F14   F     F_    0.315203 0.359339 0.638544 -0.647045
F15   F     F_    0.684783 0.359338 0.361444 -0.647042
F16   F     F_    0.908594 0.792706 0.789883 -0.714470
H1    H     H_    0.780055 0.901010 0.170001 0.164280
H2    H     H_    0.184004 0.707606 0.235439 0.030605
H3    H     H_    0.315975 0.207616 0.764549 0.030565
H4    H     H_    0.684014 0.207619 0.235442 0.030211
H5    H     H_    0.286573 0.875462 0.005179 0.161687
H6    H     H_    0.713430 0.875419 0.994879 0.162038
H7    H     H_    0.786563 0.375511 0.005084 0.162449
H8    H     H_    0.213429 0.375421 0.994885 0.161893
H9    H     H_    0.168142 0.815221 0.004573 0.191609
H10   H     H_    0.831847 0.815300 0.995371 0.191758
H11   H     H_    0.668213 0.314772 0.004369 0.191232
H12   H     H_    0.219945 0.900994 0.830004 0.164264
H13   H     H_    0.331842 0.315212 0.995421 0.191597
H14   H     H_    0.052974 0.840422 0.319523 0.184225
H15   H     H_    0.947021 0.840423 0.680482 0.184227
H16   H     H_    0.552975 0.340425 0.319519 0.184223
H17   H     H_    0.447012 0.340427 0.680480 0.184211
H18   H     H_    0.047355 0.898437 0.834339 0.172439
H19   H     H_    0.952640 0.898451 0.165653 0.172455
H20   H     H_    0.547373 0.398324 0.834342 0.172386
H21   H     H_    0.452637 0.398430 0.165654 0.172432
H22   H     H_    0.764280 0.093845 0.324241 0.092417
H23   H     H_    0.280057 0.400997 0.170013 0.164275
H24   H     H_    0.235719 0.093842 0.675758 0.092468
H25   H     H_    0.264280 0.593842 0.324243 0.092515
H26   H     H_    0.735719 0.593845 0.675758 0.092566
H27   H     H_    0.982438 0.163711 0.241533 0.123570
H28   H     H_    0.017618 0.163647 0.758629 0.124174
H29   H     H_    0.482375 0.663646 0.241361 0.124273
H30   H     H_    0.517624 0.663643 0.758641 0.124226
H31   H     H_    0.191351 0.160507 0.755245 0.131848
H32   H     H_    0.808628 0.160506 0.244714 0.131792
H33   H     H_    0.691347 0.660507 0.755235 0.131940
H34   H     H_    0.719932 0.400909 0.829923 0.164360
H35   H     H_    0.308644 0.660507 0.244750 0.131905
H36   H     H_    0.794343 0.692038 0.358427 0.171945
H37   H     H_    0.205664 0.692032 0.641586 0.171956
H38   H     H_    0.294342 0.192039 0.358427 0.171958
H39   H     H_    0.705659 0.192033 0.641575 0.171921
H40   H     H_    0.761962 0.087916 0.961562 0.340029
H41   H     H_    0.238909 0.087909 0.038412 0.340019
H42   H     H_    0.261067 0.587946 0.961546 0.340019
H43   H     H_    0.739072 0.587980 0.038502 0.340007
H44   H     H_    0.919791 0.447695 0.248917 0.343596
H45   H     H_    0.218698 0.099652 0.360251 0.158977
H46   H     H_    0.079987 0.447544 0.751264 0.343590
H47   H     H_    0.419918 0.947526 0.249028 0.343564
H48   H     H_    0.579886 0.947527 0.751351 0.343654
H49   H     H_    0.921815 0.141630 0.834171 0.346444
H50   H     H_    0.078183 0.141633 0.165825 0.346450
H51   H     H_    0.421820 0.641628 0.834175 0.346435
H52   H     H_    0.578181 0.641634 0.165825 0.346437
H53   H     H_    0.781306 0.099646 0.639751 0.158923
H54   H     H_    0.718695 0.599656 0.360248 0.158933
H55   H     H_    0.281311 0.599646 0.639761 0.158944
H56   H     H_    0.815978 0.707618 0.764551 0.030714
N1    N     N_R   0.888400 0.921830 0.294620 -0.070114
N2    N     N_R   0.874350 0.922400 0.443380 -0.124687
N3    N     N_R   0.625650 0.422400 0.556620 -0.124680
N4    N     N_R   0.374350 0.422400 0.443380 -0.124680
N5    N     N_R   0.054230 0.922730 0.705400 -0.062301
N6    N     N_R   0.945770 0.922730 0.294600 -0.062312
N7    N     N_R   0.554230 0.422730 0.705400 -0.062266
N8    N     N_R   0.445770 0.422730 0.294600 -0.062294
N9    N     N_R   0.873790 0.077030 0.443380 -0.062320
N10   N     N_R   0.126210 0.077030 0.556620 -0.062325
N11   N     N_R   0.373790 0.577030 0.443380 -0.062358
N12   N     N_R   0.111600 0.921830 0.705380 -0.070109
N13   N     N_R   0.626210 0.577030 0.556620 -0.062357
N14   N     N_R   0.945200 0.076700 0.294600 -0.056079
N15   N     N_R   0.054800 0.076700 0.705400 -0.056105
N16   N     N_R   0.445200 0.576700 0.294600 -0.056112
N17   N     N_R   0.554800 0.576700 0.705400 -0.056103
N18   N     N_R   0.111030 0.077600 0.705380 -0.060805
N19   N     N_R   0.888970 0.077600 0.294620 -0.060791
N20   N     N_R   0.611030 0.577600 0.705380 -0.060792
N21   N     N_R   0.388970 0.577600 0.294620 -0.060784
N22   N     N_R   0.919490 0.077280 0.556590 -0.071546
N23   N     N_R   0.388400 0.421830 0.294620 -0.070101
N24   N     N_R   0.080510 0.077280 0.443410 -0.071539
N25   N     N_R   0.419490 0.577280 0.556590 -0.071556
N26   N     N_R   0.580510 0.577280 0.443410 -0.071574
N27   N     N_R   0.611600 0.421830 0.705380 -0.070132
N28   N     N_R   0.079940 0.922160 0.443410 -0.078002
N29   N     N_R   0.920060 0.922160 0.556590 -0.078007
N30   N     N_R   0.579940 0.422160 0.443410 -0.077998
N31   N     N_R   0.420060 0.422160 0.556590 -0.078003
N32   N     N_R   0.125650 0.922400 0.556620 -0.124687
Ni1   Ni    Ni4+2 0.882160 0.999430 0.370180 0.237504
Ni2   Ni    Ni4+2 0.117840 0.999430 0.629820 0.237541
Ni3   Ni    Ni4+2 0.382160 0.499430 0.370180 0.237519
Ni4   Ni    Ni4+2 0.617840 0.499430 0.629820 0.237563
Ni5   Ni    Ni4+2 0.012460 0.999430 0.370180 0.278085
Ni6   Ni    Ni4+2 0.987540 0.999430 0.629820 0.278041
Ni7   Ni    Ni4+2 0.512460 0.499430 0.370180 0.278021
Ni8   Ni    Ni4+2 0.487540 0.499430 0.629820 0.278046
O1    O     O_2   0.695536 0.183469 0.972643 -0.640010
O2    O     O_R   0.882490 0.406817 0.202618 -0.787712
O3    O     O_2   0.027459 0.321807 0.699540 -0.602449
O4    O     O_R   0.117407 0.406693 0.797124 -0.787216
O5    O     O_2   0.472538 0.821829 0.300262 -0.602581
O6    O     O_R   0.382509 0.906670 0.203157 -0.787048
O7    O     O_2   0.527433 0.821755 0.699535 -0.602568
O8    O     O_R   0.617329 0.906698 0.797208 -0.787179
O9    O     O_2   0.943323 0.035987 0.757955 -0.606758
O10   O     O_R   0.900280 0.153626 0.754911 -0.773076
O11   O     O_2   0.056666 0.035997 0.242038 -0.606663
O12   O     O_R   0.792772 0.134249 0.005075 -0.781572
O13   O     O_R   0.099722 0.153626 0.245086 -0.773335
O14   O     O_2   0.443323 0.535984 0.757954 -0.606728
O15   O     O_R   0.400284 0.653625 0.754916 -0.773082
O16   O     O_2   0.556681 0.535990 0.242050 -0.606748
O17   O     O_R   0.599716 0.653629 0.245083 -0.773048
O18   O     O_2   0.304742 0.183578 0.026146 -0.640118
O19   O     O_R   0.207981 0.134237 0.995165 -0.781389
O20   O     O_2   0.195252 0.683584 0.973911 -0.640121
O21   O     O_R   0.291993 0.634272 0.004788 -0.781349
O22   O     O_2   0.804747 0.683569 0.025742 -0.640112
O23   O     O_R   0.708132 0.634317 0.995332 -0.781303
O24   O     O_2   0.972310 0.321969 0.302135 -0.602357

loop_
_geom_bond_atom_site_label_1
_geom_bond_atom_site_label_2
_ccdc_geom_bond_type
C100  H29   S    
C58   C62   D    
C40   C47   S    
C83   C86   A    
C55   F13   S    
N25   Ni8   S    
C6    C69   S    
C78   F7    S    
C104  H33   S    
C20   C56   S    
C2    C65   A    
C61   H13   S    
C24   C89   S    
N16   Ni7   S    
C22   C57   S    
C60   C88   S    
C53   F12   S    
C48   C57   S    
C32   H23   S    
C19   C44   A    
C1    C84   A    
N31   Ni8   S    
C10   O15   S    
N13   Ni4   S    
C43   C88   A    
N23   Ni3   S    
C17   C104  A    
C1    H1    S    
C38   C42   A    
C102  N18   A    
C20   C40   A    
C101  N17   A    
C63   H6    S    
C22   C41   A    
C48   H4    S    
C20   C25   A    
C19   C55   S    
C102  H31   S    
C6    O5    D    
C99   N15   A    
N3    Ni4   S    
C4    O24   D    
C79   N4    A    
C78   N3    A    
N11   N25   A    
C64   C71   S    
C3    C74   S    
C17   C101  A    
N21   Ni3   S    
C18   C53   S    
C51   C91   A    
C83   H21   S    
C82   C88   A    
C8    O10   S    
C61   C66   D    
C50   C90   A    
C47   F10   S    
C66   C72   S    
C108  O20   D    
C28   C35   A    
C11   C87   S    
C46   C55   S    
C70   C74   D    
C52   N31   A    
C14   C67   S    
C49   N28   A    
C12   C95   A    
C69   C73   D    
C95   H25   S    
C23   C27   A    
C48   F11   S    
N17   Ni8   S    
C56   F3    S    
C57   F15   S    
C45   H56   S    
C95   N11   A    
N15   N18   A    
N11   Ni3   S    
C51   H16   S    
C43   H34   S    
H52   O17   S    
C64   H7    S    
C45   C53   S    
C17   C70   S    
C58   H9    S    
C43   N27   A    
N19   Ni1   S    
C79   F8    S    
C35   H55   S    
C104  N20   A    
C62   H5    S    
C10   C76   S    
C30   H39   S    
C7    C70   S    
C5    C68   S    
C52   H17   S    
N12   Ni2   S    
C37   C98   S    
N6    Ni5   S    
H43   O23   S    
C44   C46   S    
C28   H37   S    
N14   Ni5   S    
C66   H8    S    
N7    Ni8   S    
C100  N16   A    
C27   C34   A    
C25   C29   A    
C77   C90   A    
C107  O18   D    
C21   C85   A    
C75   N32   A    
H41   O19   S    
C10   O14   D    
N5    Ni6   S    
C13   C96   A    
C9    O13   S    
C18   C23   A    
C2    C94   A    
C59   C84   S    
C50   N29   A    
C82   H20   S    
H49   O10   S    
C8    C54   S    
C1    N1    A    
C50   H15   S    
C16   C100  A    
C21   N12   A    
C3    O23   S    
C31   H45   S    
C94   H24   S    
C26   C91   S    
C54   N22   A    
C14   C97   A    
C107  O19   S    
N2    N29   A    
C33   C37   A    
N30   Ni7   S    
C46   F9    S    
C68   C72   D    
N3    N30   A    
C42   C45   S    
C56   F14   S    
C97   N14   A    
C108  O21   S    
N17   N20   A    
C35   C39   A    
C94   N10   A    
C87   N26   A    
C80   C85   A    
N2    Ni1   S    
C8    O9    D    
C9    O11   D    
C105  N21   A    
N14   N19   A    
C72   C107  S    
C36   C40   A    
C80   N5    A    
C96   H26   S    
C13   C87   A    
C77   N2    A    
C32   C86   A    
C23   C90   S    
C93   H22   S    
C62   C73   S    
C103  N19   A    
N10   Ni2   S    
C60   H11   S    
C13   C38   S    
H47   O6    S    
N9    Ni1   S    
C16   C105  A    
C75   F5    S    
C73   C108  S    
C96   N13   A    
C5    O3    D    
C47   C56   S    
N32   Ni2   S    
C26   C30   A    
C80   H18   S    
C12   C76   A    
C55   F2    S    
N9    N22   A    
H46   O4    S    
C83   N8    A    
C52   C92   A    
N29   Ni6   S    
C33   H53   S    
C77   F6    S    
N18   Ni2   S    
H50   O13   S    
C81   N6    A    
C81   C84   A    
H44   O2    S    
C76   N25   A    
N5    N12   A    
C79   C92   A    
N8    Ni7   S    
C2    C36   S    
C11   O16   D    
C25   C92   S    
N13   N26   A    
C21   H12   S    
C30   C33   A    
C34   C38   A    
C29   H38   S    
C46   H2    S    
C16   C69   S    
C24   C28   A    
C49   C89   A    
N4    Ni3   S    
C53   F16   S    
C4    C67   S    
N1    N6    A    
C47   H3    S    
C39   C44   A    
C63   C74   S    
C93   N9    A    
C78   C91   A    
C11   O17   S    
C99   H28   S    
N24   Ni5   S    
N8    N23   A    
C59   C63   D    
C58   C85   S    
C60   C64   D    
C82   N7    A    
H40   O12   S    
N22   Ni6   S    
C12   C39   S    
C18   C42   A    
C19   C24   A    
C27   H36   S    
N4    N31   A    
C29   C31   A    
H51   O15   S    
C15   C99   A    
H48   O8    S    
C51   N30   A    
N10   N24   A    
C14   C103  A    
C105  H35   S    
C65   N24   A    
C7    O7    D    
C101  H30   S    
C32   N23   A    
C4    O2    S    
C15   C68   S    
C6    O6    S    
N28   N32   A    
N27   Ni4   S    
N20   Ni4   S    
C41   C48   S    
C106  O12   S    
C67   C71   D    
N15   Ni6   S    
C15   C102  A    
C37   C41   A    
C9    C65   S    
C45   F1    S    
C34   H54   S    
C61   C86   S    
C75   C89   A    
C106  O1    D    
C103  H32   S    
C81   H19   S    
C5    O4    S    
C57   F4    S    
C22   C26   A    
C71   C106  S    
N7    N27   A    
H42   O21   S    
C31   C36   A    
C54   C98   A    
N1    Ni1   S    
C7    O8    S    
N16   N21   A    
C49   H14   S    
C93   C98   A    
C3    O22   D    
C97   H27   S    
N26   Ni7   S    
N28   Ni5   S    
C59   H10   S    
