data_mof_unit_56989.cif
_audit_creation_date              2012-12-11T17:08:37-0500
_audit_creation_method            fapswitch 2.2
_symmetry_space_group_name_H-M    P1
_symmetry_Int_Tables_number       1
_space_group_crystal_system       triclinic
_cell_length_a                    6.987037
_cell_length_b                    14.502209
_cell_length_c                    16.099683
_cell_angle_alpha                 90.024924
_cell_angle_beta                  90.070616
_cell_angle_gamma                 89.973191
_cell_volume                      1631.33858858

loop_
_atom_site_label
_atom_site_type_symbol
_atom_type_description
_atom_site_fract_x
_atom_site_fract_y
_atom_site_fract_z
_atom_type_partial_charge
O1    O     O_R   0.505700 0.583890 0.413310 -0.536114
O2    O     O_R   0.175960 0.594920 0.586080 -0.543276
O3    O     O_R   0.005660 0.416110 0.586690 -0.536374
C1    C     C_R   0.344759 0.616886 0.614756 0.691511
O4    O     O_R   0.175980 0.594920 0.413930 -0.544072
O5    O     O_R   0.005680 0.416110 0.413310 -0.538495
C2    C     C_R   0.344674 0.617012 0.385355 0.694764
O6    O     O_R   0.505680 0.583890 0.586690 -0.536974
O7    O     O_3   0.339200 0.441330 0.500000 -0.370238
V1    V     V_3+5 0.064350 0.510880 0.500000 1.382169
O8    O     O_R   0.675960 0.405080 0.413920 -0.538476
C3    C     C_R   0.844932 0.382838 0.385460 0.697121
O9    O     O_R   0.675940 0.405080 0.586070 -0.542535
C4    C     C_R   0.844720 0.383135 0.614782 0.693316
V2    V     V_3+5 0.564340 0.489120 0.500000 1.387949
O10   O     O_3   0.839360 0.558670 0.500000 -0.372505
C5    C     C_R   0.009401 0.253006 0.690114 0.102567
C6    C     C_R   0.852799 0.312581 0.681402 -0.111263
C7    C     C_R   0.700093 0.301447 0.737561 -0.179821
H1    H     H_    0.576576 0.346006 0.733500 0.132204
C8    C     C_R   0.711552 0.237476 0.803341 -0.180295
H2    H     H_    0.595454 0.233878 0.847537 0.131041
C9    C     C_R   0.876712 0.183218 0.815296 -0.109968
C10   C     C_R   0.021147 0.190029 0.755385 0.099103
C11   C     C_3   0.229762 0.206948 0.766671 -0.415892
C12   C     C_3   0.217033 0.275223 0.695325 -0.397879
H3    H     H_    0.317050 0.145009 0.751800 0.172189
H4    H     H_    0.261791 0.240071 0.827386 0.170828
H5    H     H_    0.296451 0.252611 0.639096 0.173454
H6    H     H_    0.242358 0.347854 0.714551 0.167026
C13   C     C_R   0.724847 0.246502 0.190294 0.103686
C14   C     C_R   0.881949 0.187269 0.181526 -0.109447
C15   C     C_R   0.034708 0.198534 0.237775 -0.179695
H7    H     H_    0.158422 0.154111 0.233736 0.132305
C16   C     C_R   0.023069 0.262488 0.303585 -0.180629
H8    H     H_    0.139342 0.266273 0.347813 0.131132
C17   C     C_R   0.857634 0.316549 0.315485 -0.110419
C18   C     C_R   0.712916 0.309478 0.255590 0.101330
C19   C     C_3   0.504598 0.291994 0.266968 -0.416411
C20   C     C_3   0.517535 0.223706 0.195613 -0.398694
H9    H     H_    0.416493 0.353690 0.252144 0.173360
H10   H     H_    0.473386 0.258826 0.327687 0.170437
H11   H     H_    0.437378 0.246051 0.139430 0.174053
H12   H     H_    0.493208 0.151015 0.214847 0.166899
C21   C     C_R   0.507709 0.683222 0.740848 0.100297
C22   C     C_R   0.352806 0.682360 0.685469 -0.111891
C23   C     C_R   0.200796 0.743545 0.701804 -0.180980
H13   H     H_    0.077789 0.745253 0.661127 0.134134
C24   C     C_R   0.211968 0.807733 0.767371 -0.178648
H14   H     H_    0.096597 0.856642 0.775358 0.128753
C25   C     C_R   0.375822 0.812931 0.818416 -0.111753
C26   C     C_R   0.519202 0.746992 0.805491 0.102725
C27   C     C_3   0.728658 0.760204 0.793079 -0.410235
C28   C     C_3   0.716257 0.690351 0.722930 -0.399631
H15   H     H_    0.813816 0.735416 0.846998 0.175847
H16   H     H_    0.763158 0.831034 0.771435 0.166331
H17   H     H_    0.793572 0.625027 0.736444 0.168305
H18   H     H_    0.744292 0.720468 0.660634 0.169951
C29   C     C_R   0.517304 0.689931 0.265366 0.060658
C30   C     C_R   0.353542 0.682956 0.315022 -0.097416
C31   C     C_R   0.199948 0.742298 0.296746 -0.191672
H19   H     H_    0.075109 0.742420 0.336030 0.142368
C32   C     C_R   0.212239 0.806745 0.231501 -0.198721
H20   H     H_    0.096895 0.854416 0.221027 0.147004
C33   C     C_R   0.378420 0.815073 0.183382 -0.098555
C34   C     C_R   0.531513 0.756977 0.203067 0.088041
C35   C     C_3   0.727980 0.783594 0.231073 -0.024970
C36   C     C_3   0.716044 0.706578 0.294718 -0.395972
H21   H     H_    0.835717 0.770978 0.181745 0.142934
H22   H     H_    0.722232 0.729667 0.360626 0.178935
H23   H     H_    0.810708 0.647117 0.280066 0.147463
O11   O     O_R   0.229000 0.916070 0.913330 -0.538624
O12   O     O_R   0.558770 0.905070 0.086080 -0.539703
O13   O     O_R   0.729000 0.083900 0.086690 -0.538222
C37   C     C_R   0.390208 0.883987 0.115477 0.694788
O14   O     O_R   0.558720 0.905070 0.913930 -0.538768
O15   O     O_R   0.728960 0.083900 0.913310 -0.539168
C38   C     C_R   0.389667 0.883201 0.885143 0.697326
O16   O     O_R   0.229050 0.916070 0.086710 -0.540835
O17   O     O_3   0.395460 0.058650 0.000020 -0.371210
V3    V     V_3+5 0.670340 0.989120 0.000000 1.388479
O18   O     O_R   0.058670 0.094960 0.913900 -0.539236
C39   C     C_R   0.889575 0.117103 0.885391 0.693685
O19   O     O_R   0.058720 0.094960 0.086050 -0.542668
C40   C     C_R   0.890055 0.116802 0.114838 0.687263
V4    V     V_3+5 0.170330 0.010930 0.999970 1.385863
O20   O     O_3   0.895340 0.941350 0.999980 -0.369230
C41   C     C_3   0.736428 0.879948 0.271521 -0.767370
H24   H     H_    0.860471 0.884839 0.314349 0.196240
H25   H     H_    0.751585 0.933750 0.223026 0.211158
H26   H     H_    0.605562 0.894368 0.308544 0.217956

loop_
_geom_bond_atom_site_label_1
_geom_bond_atom_site_label_2
_ccdc_geom_bond_type
C32   C33   A    
C4    C6    S    
C7    H1    S    
C1    O6    A    
C23   C24   A    
C1    C22   S    
C21   C22   A    
C11   H4    S    
C35   C41   S    
C9    C39   S    
C5    C12   S    
C7    C8    A    
O14   C38   A    
C29   C34   A    
O5    C3    A    
C18   C19   S    
O15   C39   A    
V2    O10   S    
C13   C20   S    
C6    C7    A    
C3    C17   S    
C31   C32   A    
O11   C38   A    
O8    V2    S    
C20   H11   S    
C23   H13   S    
C24   C25   A    
O17   V4    S    
C9    C10   A    
O1    V2    S    
O7    V1    S    
C34   C35   S    
C29   C30   A    
O9    C4    A    
O12   C37   A    
O12   V3    S    
C5    C6    A    
C19   H10   S    
C27   H15   S    
C5    C10   A    
C35   C36   S    
C10   C11   S    
C19   H9    S    
C19   C20   S    
O4    C2    A    
V4    O20   S    
C21   C26   A    
C11   C12   S    
O18   V4    S    
C25   C26   A    
C30   C31   A    
C35   H21   S    
C16   H8    S    
O2    C1    A    
C17   C18   A    
C29   C36   S    
C13   C14   A    
C41   H26   S    
O15   V3    S    
C15   H7    S    
O19   C40   A    
V3    O20   S    
O3    C4    A    
C41   H25   S    
C21   C28   S    
C12   H6    S    
O6    V2    S    
O9    V2    S    
C24   H14   S    
O13   V3    S    
O2    V1    S    
C2    C30   S    
C26   C27   S    
C28   H18   S    
C27   H16   S    
C22   C23   A    
C16   C17   A    
O1    C2    A    
O19   V4    S    
O17   V3    S    
O14   V3    S    
O5    V1    S    
O11   V4    S    
O8    C3    A    
C27   C28   S    
C11   H3    S    
C33   C37   S    
C13   C18   A    
C14   C15   A    
C8    C9    A    
O7    V2    S    
C25   C38   S    
O4    V1    S    
O3    V1    S    
V1    O10   S    
C36   H23   S    
C14   C40   S    
C15   C16   A    
C33   C34   A    
O13   C40   A    
C31   H19   S    
C32   H20   S    
C20   H12   S    
C41   H24   S    
C12   H5    S    
C36   H22   S    
O18   C39   A    
C8    H2    S    
C37   O16   A    
O16   V4    S    
C28   H17   S    
