data_mof_unit_42421.cif
_audit_creation_date              2012-10-26T20:19:04-0400
_audit_creation_method            fapswitch 2.2
_symmetry_space_group_name_H-M    P1
_symmetry_Int_Tables_number       1
_space_group_crystal_system       triclinic
_cell_length_a                    15.07815
_cell_length_b                    13.028728
_cell_length_c                    11.667442
_cell_angle_alpha                 99.68388
_cell_angle_beta                  94.092964
_cell_angle_gamma                 90.178161
_cell_volume                      2253.3699339

loop_
_atom_site_label
_atom_site_type_symbol
_atom_type_description
_atom_site_fract_x
_atom_site_fract_y
_atom_site_fract_z
_atom_type_partial_charge
C1    C     C_R   0.497027 0.299504 0.478976 0.525711
C2    C     C_R   0.446165 0.866001 0.613511 -0.163687
C3    C     C_R   0.458039 0.134613 0.547194 0.010889
C4    C     C_R   0.543751 0.865780 0.455398 0.004241
C5    C     C_R   0.472042 0.026707 0.542137 0.048636
C6    C     C_R   0.527629 0.972960 0.458362 0.005462
C7    C     C_R   0.414007 0.405409 0.021056 -0.149118
C8    C     C_R   0.584560 0.596083 0.979298 -0.151431
C9    C     C_R   0.422147 0.412321 0.144962 0.424115
C10   C     C_R   0.577690 0.587217 0.855933 0.423464
C11   C     C_R   0.537071 0.540552 0.157071 0.001950
C12   C     C_R   0.502807 0.700398 0.521059 0.591240
C13   C     C_R   0.462985 0.459373 0.842970 0.026539
C14   C     C_R   0.531094 0.534134 0.034447 -0.051943
C15   C     C_R   0.469160 0.465479 0.965793 -0.038364
C16   C     C_R   0.328563 0.498828 0.499955 0.533804
C17   C     C_R   0.671438 0.499163 0.499702 0.571210
C18   C     C_R   0.808775 0.512156 0.398428 -0.085275
C19   C     C_R   0.191227 0.479975 0.599515 -0.116773
C20   C     C_R   0.768192 0.497623 0.498840 -0.017026
C21   C     C_R   0.231793 0.495130 0.499319 -0.026508
C22   C     C_R   0.819832 0.480685 0.597870 -0.146954
C23   C     C_R   0.055428 0.455836 0.699056 0.024073
C24   C     C_R   0.180054 0.506320 0.398153 -0.131552
C25   C     C_R   0.912025 0.479271 0.598052 0.000522
C26   C     C_R   0.087846 0.506450 0.397502 -0.003308
C27   C     C_R   0.953412 0.494862 0.497542 0.034787
C28   C     C_R   0.046491 0.491740 0.498326 0.035814
C29   C     C_R   0.901656 0.513578 0.396610 0.028684
C30   C     C_R   0.098328 0.474481 0.599787 0.029542
C31   C     C_R   0.962810 0.460781 0.697300 -0.155198
C32   C     C_R   0.037048 0.523644 0.297755 -0.156557
C33   C     C_2   0.102506 0.428139 0.805692 0.193385
C34   C     C_R   0.944561 0.530303 0.296584 0.025682
C35   C     C_2   0.897735 0.557411 0.189501 0.195536
C36   C     C_2   0.606217 0.809277 0.374196 0.229270
C37   C     C_2   0.400029 0.194230 0.632189 0.220010
C38   C     C_3   0.716771 0.658672 0.835797 0.002681
C39   C     C_3   0.742871 0.768164 0.899709 -0.263100
C40   C     C_3   0.842143 0.776092 0.936705 -0.467519
C41   C     C_3   0.320108 0.271374 0.140108 -0.013452
C42   C     C_3   0.226934 0.304872 0.100604 -0.277402
C43   C     C_3   0.176758 0.216239 0.019556 -0.444705
C44   C     C_R   0.500614 0.813010 0.532397 0.023669
C45   C     C_R   0.499095 0.186696 0.467890 -0.019580
C46   C     C_R   0.566017 0.027866 0.379974 -0.142698
C47   C     C_R   0.431237 0.970958 0.617788 -0.115999
C48   C     C_R   0.550792 0.132780 0.383886 -0.140827
Cu1   Cu    Cu3+1 0.506660 0.507730 0.615930 1.014907
Cu2   Cu    Cu3+1 0.493340 0.492270 0.384070 1.020140
H1    H     H_    0.766788 0.520797 0.321958 0.194716
H2    H     H_    0.583188 0.173248 0.324023 0.135773
H3    H     H_    0.609258 0.991477 0.315600 0.108066
H4    H     H_    0.385443 0.006301 0.679249 0.173775
H5    H     H_    0.414849 0.407059 0.789431 0.163633
H6    H     H_    0.584666 0.593645 0.210629 0.159556
H7    H     H_    0.074475 0.450364 0.889324 0.088354
H8    H     H_    0.924735 0.532271 0.105688 0.083945
H9    H     H_    0.604228 0.820113 0.283930 0.085298
H10   H     H_    0.352035 0.248009 0.602989 0.116424
H11   H     H_    0.753395 0.644046 0.755680 0.166915
H12   H     H_    0.233103 0.474330 0.677073 0.183375
H13   H     H_    0.739223 0.598527 0.888844 0.110700
H14   H     H_    0.726436 0.825510 0.841103 0.186439
H15   H     H_    0.704855 0.788485 0.978190 0.164930
H16   H     H_    0.859808 0.720791 0.997206 0.183861
H17   H     H_    0.859231 0.856352 0.982086 0.157344
H18   H     H_    0.881674 0.758330 0.859178 0.148578
H19   H     H_    0.311739 0.213289 0.198319 0.154155
H20   H     H_    0.356873 0.229480 0.067396 0.129492
H21   H     H_    0.188770 0.329226 0.178471 0.163600
H22   H     H_    0.231207 0.372682 0.054893 0.180234
H23   H     H_    0.364932 0.355425 0.966492 0.131796
H24   H     H_    0.212658 0.192572 0.939620 0.192824
H25   H     H_    0.109385 0.242533 0.993733 0.161920
H26   H     H_    0.169766 0.148187 0.064371 0.139724
H27   H     H_    0.630325 0.651813 0.032152 0.111483
H28   H     H_    0.788159 0.466720 0.674512 0.119528
H29   H     H_    0.211603 0.518005 0.320544 0.140295
H30   H     H_    0.929728 0.447534 0.773275 0.090033
H31   H     H_    0.070111 0.535688 0.221318 0.089735
H32   H     H_    0.411713 0.824815 0.670939 0.131400
N1    N     N_R   0.516670 0.519360 0.790130 -0.226933
N2    N     N_R   0.483330 0.480640 0.209870 -0.221933
O1    O     O_R   0.504720 0.354460 0.582000 -0.508404
O2    O     O_2   0.832919 0.613449 0.193826 -0.526173
O3    O     O_2   0.661031 0.750278 0.408260 -0.485320
O4    O     O_2   0.409350 0.189031 0.735864 -0.534661
O5    O     O_3   0.624733 0.653963 0.800525 -0.525133
O6    O     O_3   0.368197 0.357070 0.206655 -0.530078
O7    O     O_R   0.495280 0.645540 0.418000 -0.504879
O8    O     O_R   0.493480 0.341410 0.386200 -0.469765
O9    O     O_R   0.506520 0.658590 0.613800 -0.456010
O10   O     O_R   0.375880 0.506510 0.597910 -0.535820
O11   O     O_R   0.624120 0.493490 0.402090 -0.507659
O12   O     O_R   0.364640 0.493450 0.402110 -0.460588
O13   O     O_R   0.635360 0.506550 0.597890 -0.478216
O14   O     O_2   0.168960 0.374772 0.800986 -0.543321

loop_
_geom_bond_atom_site_label_1
_geom_bond_atom_site_label_2
_ccdc_geom_bond_type
C25   C31   A    
C4    C36   S    
C26   C32   A    
C16   C21   S    
C27   C29   A    
C41   C42   S    
C12   O7    A    
C36   H9    S    
Cu2   O12   S    
Cu2   N2    S    
C31   H30   S    
C7    H23   S    
C39   H14   S    
C5    C47   A    
C38   O5    S    
C35   H8    S    
C19   C21   A    
C24   C26   A    
C34   C35   S    
C5    C6    A    
C11   C14   A    
Cu2   O11   S    
C19   H12   S    
C10   N1    A    
C17   C20   S    
C22   C25   A    
C33   O14   D    
C37   O4    D    
C10   O5    S    
C2    C44   A    
C23   C33   S    
C40   H17   S    
C8    C14   A    
C17   O11   A    
Cu1   O10   S    
C38   H11   S    
C43   H24   S    
C7    C15   A    
C41   O6    S    
C40   H16   S    
C43   H25   S    
C39   H15   S    
C18   H1    S    
C36   O3    D    
C1    O1    A    
C46   C48   A    
C16   O12   A    
C23   C30   A    
Cu1   O1    S    
C22   H28   S    
C4    C6    A    
C39   C40   S    
C4    C44   A    
C29   C34   A    
C3    C45   A    
C32   C34   A    
C32   H31   S    
C24   H29   S    
C42   H22   S    
C18   C29   A    
C47   H4    S    
Cu2   O8    S    
C20   C22   A    
C1    O8    A    
C13   C15   A    
C8    H27   S    
C11   N2    A    
C12   O9    A    
C2    H32   S    
C42   C43   S    
C41   H19   S    
C38   H13   S    
C45   C48   A    
C43   H26   S    
C7    C9    A    
C33   H7    S    
C6    C46   A    
C16   O10   A    
C3    C5    A    
C9    O6    S    
C2    C47   A    
C25   C27   A    
C13   N1    A    
C26   C28   A    
Cu1   N1    S    
C28   C30   A    
C12   C44   S    
C1    C45   S    
C38   C39   S    
C46   H3    S    
C42   H21   S    
C35   O2    D    
C18   C20   A    
C37   H10   S    
C9    N2    A    
Cu1   O13   S    
Cu2   O7    S    
C48   H2    S    
C3    C37   S    
C8    C10   A    
Cu1   Cu2   S    
C40   H18   S    
C21   C24   A    
C27   C28   A    
C14   C15   A    
Cu1   O9    S    
C19   C30   A    
C17   O13   A    
C11   H6    S    
C23   C31   A    
C41   H20   S    
C13   H5    S    
