data_mof_unit_47807.cif
_audit_creation_date              2012-12-10T17:59:47-0500
_audit_creation_method            fapswitch 2.2
_symmetry_space_group_name_H-M    P1
_symmetry_Int_Tables_number       1
_space_group_crystal_system       triclinic
_cell_length_a                    10.825686
_cell_length_b                    9.560574
_cell_length_c                    15.892452
_cell_angle_alpha                 90.013204
_cell_angle_beta                  90.979093
_cell_angle_gamma                 89.991747
_cell_volume                      1644.62494495

loop_
_atom_site_label
_atom_site_type_symbol
_atom_type_description
_atom_site_fract_x
_atom_site_fract_y
_atom_site_fract_z
_atom_type_partial_charge
C1    C     C_R   0.262199 0.500006 0.500015 0.827767
C2    C     C_3   0.623512 0.566226 0.950823 -0.614133
C3    C     C_3   0.625506 0.567122 0.049313 0.697779
C4    C     C_1   0.500627 0.500077 0.824735 0.037081
C5    C     C_1   0.501088 0.500730 0.175288 0.102264
C6    C     C_1   0.500402 0.500102 0.250750 -0.060618
C7    C     C_R   0.063908 0.372895 0.500356 -0.141994
C8    C     C_R   0.063867 0.627110 0.500172 -0.139043
C9    C     C_R   0.936149 0.372884 0.500384 -0.168183
C10   C     C_R   0.936108 0.627107 0.500200 -0.164739
C11   C     C_R   0.871726 0.499992 0.500240 -0.022037
C12   C     C_R   0.128293 0.500006 0.500150 -0.033035
C13   C     C_R   0.422667 0.074188 0.446923 0.427322
C14   C     C_R   0.422665 0.925796 0.446924 0.430621
C15   C     C_R   0.499938 0.499994 0.340301 0.868145
C16   C     C_R   0.577003 0.925775 0.552813 -0.111038
C17   C     C_R   0.576999 0.074241 0.552816 -0.111041
C18   C     C_R   0.737808 0.499994 0.500145 0.779474
C19   C     C_R   0.500085 0.500018 0.659717 0.796264
C20   C     C_3   0.389659 0.587570 0.049153 -0.490360
C21   C     C_3   0.487433 0.350324 0.049145 -0.481066
C22   C     C_3   0.500093 0.346866 0.951809 0.296849
C23   C     C_3   0.393900 0.593576 0.951406 0.335324
C24   C     C_1   0.500291 0.500074 0.749274 -0.162811
C25   C     C_3   0.502105 0.502123 0.083051 0.046127
C26   C     C_3   0.501136 0.499786 0.916888 0.061080
Cu1   Cu    Cu3+1 0.500020 0.640660 0.500000 1.012609
Cu2   Cu    Cu3+1 0.500020 0.359340 0.500000 1.008195
H1    H     H_    0.638898 0.870119 0.595183 0.150555
H2    H     H_    0.638886 0.129910 0.595191 0.150420
H3    H     H_    0.302223 0.542652 0.072489 0.197762
H4    H     H_    0.396312 0.307382 0.067644 0.206555
H5    H     H_    0.558401 0.280480 0.078224 0.209186
H6    H     H_    0.392298 0.695748 0.075003 0.215875
H7    H     H_    0.592267 0.300469 0.937319 0.106189
H8    H     H_    0.423159 0.702839 0.937927 0.128589
H9    H     H_    0.633425 0.674217 0.925637 0.205668
H10   H     H_    0.704160 0.507629 0.926279 0.209356
H11   H     H_    0.111916 0.273493 0.500541 0.185676
H12   H     H_    0.111841 0.726516 0.500207 0.185637
H13   H     H_    0.888142 0.273479 0.500525 0.160838
H14   H     H_    0.888070 0.726510 0.500192 0.161166
N1    N     N_R   0.500030 0.852070 0.500020 -0.212499
N2    N     N_R   0.500030 0.147930 0.500020 -0.212279
O1    O     O_R   0.319660 0.618740 0.500000 -0.554142
O2    O     O_R   0.319660 0.381260 0.500000 -0.553828
O3    O     O_R   0.500020 0.618840 0.379440 -0.522203
O4    O     O_R   0.500020 0.381160 0.379440 -0.531179
O5    O     O_R   0.680370 0.618830 0.500010 -0.589083
O6    O     O_R   0.680370 0.381170 0.500010 -0.590252
O7    O     O_R   0.500010 0.618730 0.620560 -0.582763
O8    O     O_R   0.500010 0.381270 0.620560 -0.580869
O9    O     O_3   0.277752 0.585093 0.908048 -0.581876
C27   C     C_3   0.208295 0.462530 0.922548 0.142827
H15   H     H_    0.240088 0.398946 0.976845 0.177769
H16   H     H_    0.210999 0.396262 0.865205 0.197141
C28   C     C_3   0.074427 0.502841 0.937300 -0.760657
H17   H     H_    0.036886 0.561788 0.882336 0.247756
H18   H     H_    0.017893 0.407233 0.946256 0.225190
H19   H     H_    0.068286 0.569108 0.994490 0.278622
O10   O     O_3   0.404604 0.266868 0.913166 -0.600302
C29   C     C_3   0.433999 0.122874 0.913801 0.044902
H20   H     H_    0.456049 0.085547 0.978712 0.176225
H21   H     H_    0.513786 0.101928 0.872355 0.151767
C30   C     C_3   0.323452 0.040730 0.880228 -0.748523
H22   H     H_    0.299628 0.075252 0.815220 0.245291
H23   H     H_    0.345654 0.927419 0.879207 0.213926
H24   H     H_    0.242669 0.057911 0.921134 0.253118
Cl1   Cl    Cl    0.646022 0.743336 0.086449 -0.582240
Cl2   Cl    Cl    0.757591 0.470632 0.087366 -0.588924
Cl3   Cl    Cl    0.320900 0.161917 0.377021 -0.535316
Cl4   Cl    Cl    0.320888 0.838051 0.377025 -0.527873

loop_
_geom_bond_atom_site_label_1
_geom_bond_atom_site_label_2
_ccdc_geom_bond_type
C4    C26   S    
C11   C18   S    
C29   H20   S    
C22   H7    S    
Cu1   N1    S    
C10   H14   S    
Cu2   O8    S    
C2    H10   S    
C9    H13   S    
O10   C29   S    
C16   N1    A    
C20   C23   S    
C15   O3    A    
C8    C12   A    
C30   H24   S    
C20   H6    S    
C7    C9    A    
Cu1   O1    S    
C19   C24   S    
C6    C15   S    
C17   N2    A    
C2    C26   S    
O9    C27   S    
C22   O10   S    
C17   H2    S    
C9    C11   A    
C2    H9    S    
Cu2   O2    S    
C28   H17   S    
C7    C12   A    
C1    C12   S    
Cu2   O6    S    
C15   O4    A    
C5    C25   S    
C3    Cl1   S    
Cu1   O7    S    
C23   O9    S    
C2    C3    S    
C22   C26   S    
C5    C6    T    
C4    C24   T    
C21   H4    S    
C27   H16   S    
C1    O2    A    
C28   H18   S    
C21   H5    S    
C10   C11   A    
C29   H21   S    
C13   C14   A    
C23   H8    S    
C16   C17   A    
C19   O7    A    
C3    C25   S    
C3    Cl2   S    
C8    H12   S    
C18   O6    A    
C20   H3    S    
C8    C10   A    
C30   H22   S    
C20   C25   S    
C1    O1    A    
Cu1   O3    S    
Cu1   Cu2   S    
C23   C26   S    
C21   C25   S    
C27   H15   S    
Cu2   O4    S    
C28   H19   S    
C7    H11   S    
C13   Cl3   S    
C29   C30   S    
C16   H1    S    
C21   C22   S    
C14   Cl4   S    
C19   O8    A    
Cu2   N2    S    
C13   N2    A    
Cu1   O5    S    
C18   O5    A    
C14   N1    A    
C30   H23   S    
C27   C28   S    
