data_mof_unit_62877.cif
_audit_creation_date              2013-03-05T16:52:06-0500
_audit_creation_method            fapswitch 2.2
_symmetry_space_group_name_H-M    P1
_symmetry_Int_Tables_number       1
_space_group_crystal_system       triclinic
_cell_length_a                    15.858245
_cell_length_b                    15.076042
_cell_length_c                    22.465191
_cell_angle_alpha                 89.869396
_cell_angle_beta                  90.013534
_cell_angle_gamma                 90.125456
_cell_volume                      5370.94117918

loop_
_atom_site_label
_atom_site_type_symbol
_atom_site_description
_atom_site_fract_x
_atom_site_fract_y
_atom_site_fract_z
_atom_type_partial_charge
O1    O     O_R   0.378020 0.573650 0.500020 -0.565400
O2    O     O_R   0.621980 0.426350 0.499980 -0.567571
O3    O     O_R   0.621980 0.573650 0.499980 -0.600195
O4    O     O_R   0.378020 0.426350 0.500020 -0.603980
C1    C     C_R   0.338937 0.499915 0.500176 0.897925
C2    C     C_R   0.661063 0.500087 0.499817 0.915497
O5    O     O_R   0.499980 0.573680 0.416160 -0.568244
O6    O     O_R   0.500020 0.426320 0.583840 -0.583289
O7    O     O_R   0.500020 0.573680 0.583840 -0.578821
O8    O     O_R   0.499980 0.426320 0.416160 -0.595134
C3    C     C_R   0.498861 0.500055 0.387810 1.006073
C4    C     C_R   0.499406 0.499820 0.612204 1.005432
Zn1   Zn    Zn3+2 0.500000 0.598370 0.500000 1.140688
Zn2   Zn    Zn3+2 0.500000 0.401630 0.500000 1.124698
C5    C     C_R   0.453333 0.343697 0.875722 0.649918
C6    C     C_R   0.343129 0.448831 0.124506 0.650508
N1    N     N_R   0.419997 0.418461 0.849984 -0.323148
N2    N     N_R   0.416600 0.419914 0.150268 -0.323333
C7    C     C_R   0.346487 0.448686 0.874797 0.663104
C8    C     C_R   0.451475 0.345541 0.125366 0.660912
C9    C     C_R   0.335147 0.442791 0.936891 -0.158898
C10   C     C_R   0.446787 0.333287 0.063283 -0.156859
C11   C     C_R   0.391560 0.388324 0.968862 -0.053977
C12   C     C_R   0.390985 0.388448 0.031313 -0.054590
C13   C     C_R   0.446523 0.331470 0.937750 -0.148007
C14   C     C_R   0.332637 0.441446 0.062419 -0.149243
C15   C     C_R   0.271350 0.489396 0.967845 0.227163
C16   C     C_R   0.496048 0.270182 0.032295 0.228575
C17   C     C_R   0.269440 0.487704 0.030497 0.233089
C18   C     C_R   0.495017 0.268520 0.969650 0.233437
O9    O     O_2   0.488865 0.280832 0.841526 -0.430579
O10   O     O_2   0.279913 0.479410 0.158662 -0.430658
O11   O     O_2   0.283658 0.478125 0.839618 -0.419614
O12   O     O_2   0.485881 0.282762 0.160510 -0.424904
C19   C     C_R   0.530492 0.433100 0.228583 0.397357
C20   C     C_R   0.421516 0.535128 0.768631 0.396412
C21   C     C_R   0.546398 0.446204 0.289197 0.278478
C22   C     C_R   0.434806 0.549702 0.707787 0.270761
C23   C     C_R   0.491199 0.498664 0.322835 -0.348953
C24   C     C_R   0.494105 0.497617 0.677293 -0.350506
C25   C     C_R   0.429165 0.549323 0.293529 0.249178
C26   C     C_R   0.548833 0.442599 0.709883 0.263392
C27   C     C_R   0.414463 0.535575 0.232325 0.245984
C28   C     C_R   0.533820 0.428092 0.770950 0.248233
C29   C     C_R   0.452495 0.461248 0.203975 -0.083152
C30   C     C_R   0.457015 0.459105 0.796314 -0.082047
C31   C     C_R   0.956288 0.581706 0.499762 0.195203
C32   C     C_R   0.043716 0.418336 0.499945 0.194814
C33   C     C_R   0.044238 0.581252 0.504760 0.199035
C34   C     C_R   0.955768 0.418789 0.494945 0.199463
C35   C     C_R   0.913098 0.500461 0.494989 -0.179461
C36   C     C_R   0.086903 0.499578 0.504740 -0.180485
C37   C     C_1   0.823974 0.500438 0.496406 0.183796
C38   C     C_1   0.176026 0.499588 0.503415 0.180216
C39   C     C_1   0.250750 0.499713 0.501812 -0.014115
C40   C     C_1   0.749253 0.500298 0.498097 -0.007335
C41   C     C_R   0.423095 0.952568 0.498129 0.206630
C42   C     C_R   0.576881 0.047420 0.501858 0.206847
C43   C     C_R   0.576946 0.952960 0.499998 0.202643
C44   C     C_R   0.423029 0.047031 0.499996 0.202622
C45   C     C_R   0.500054 0.905069 0.498020 -0.258477
C46   C     C_R   0.499923 0.094924 0.501974 -0.256983
C47   C     C_1   0.500026 0.807035 0.499276 0.371077
C48   C     C_1   0.499959 0.192962 0.500721 0.360077
N3    N     N_1   0.500000 0.270550 0.500000 -0.051880
N4    N     N_1   0.500000 0.729450 0.500000 -0.046240
N5    N     N_R   0.211224 0.543158 0.936762 0.270705
O13   O     O_R   0.234662 0.618652 0.913943 -0.196134
O14   O     O_R   0.131295 0.524218 0.940048 -0.225271
N6    N     N_R   0.551191 0.210781 0.063349 0.270522
O15   O     O_R   0.621665 0.240355 0.085409 -0.193386
O16   O     O_R   0.538287 0.125659 0.060547 -0.228616
N7    N     N_R   0.207211 0.539365 0.060856 0.272892
O17   O     O_R   0.140781 0.500722 0.082962 -0.212126
O18   O     O_R   0.211231 0.625528 0.059401 -0.209565
N8    N     N_R   0.548796 0.207263 0.939302 0.272718
O19   O     O_R   0.517145 0.135082 0.916779 -0.214901
O20   O     O_R   0.630200 0.217736 0.940988 -0.207477
Cl1   Cl    Cl    0.616617 0.403469 0.182582 -0.313456
Cl2   Cl    Cl    0.381932 0.624761 0.811016 -0.311891
Cl3   Cl    Cl    0.637907 0.400387 0.322162 -0.389105
Cl4   Cl    Cl    0.374592 0.631408 0.670509 -0.384864
Cl5   Cl    Cl    0.370302 0.629493 0.333148 -0.395569
Cl6   Cl    Cl    0.639787 0.399101 0.674871 -0.407496
N9    N     N_R   0.376332 0.605007 0.197397 0.275414
O21   O     O_R   0.410854 0.629411 0.147400 -0.298553
O22   O     O_R   0.307439 0.643948 0.214711 -0.174786
N10   N     N_R   0.601284 0.397114 0.808528 0.272232
O23   O     O_R   0.616632 0.436762 0.858796 -0.301799
O24   O     O_R   0.647111 0.329301 0.793404 -0.173154
N11   N     N_R   0.090327 0.663526 0.507250 0.258701
O25   O     O_R   0.148139 0.675803 0.547538 -0.260947
O26   O     O_R   0.074954 0.726311 0.468938 -0.207981
N12   N     N_R   0.909682 0.336514 0.492440 0.258342
O27   O     O_R   0.851844 0.324269 0.452167 -0.261177
O28   O     O_R   0.925084 0.273696 0.530722 -0.209488
N13   N     N_R   0.910737 0.664105 0.502122 0.254196
O29   O     O_R   0.852938 0.681953 0.462775 -0.271281
O30   O     O_R   0.926643 0.721437 0.543881 -0.220164
N14   N     N_R   0.089269 0.335938 0.497580 0.253846
O31   O     O_R   0.147012 0.318050 0.536959 -0.276617
O32   O     O_R   0.073408 0.278644 0.455790 -0.222728
N15   N     N_R   0.344382 0.094237 0.497581 0.248593
O33   O     O_R   0.328781 0.157841 0.535033 -0.291406
O34   O     O_R   0.288373 0.074444 0.457380 -0.224121
N16   N     N_R   0.655592 0.905753 0.502420 0.249075
O35   O     O_R   0.671202 0.842151 0.464969 -0.287585
O36   O     O_R   0.711597 0.925550 0.542623 -0.220365
N17   N     N_R   0.655574 0.095031 0.501332 0.253085
O37   O     O_R   0.713415 0.075625 0.462434 -0.210318
O38   O     O_R   0.669378 0.158668 0.539165 -0.275458
N18   N     N_R   0.344406 0.904948 0.498641 0.253780
O39   O     O_R   0.286559 0.924332 0.537539 -0.208753
O40   O     O_R   0.330628 0.841297 0.460813 -0.270724

loop_
_geom_bond_atom_site_label_1
_geom_bond_atom_site_label_2
_geom_bond_distance
_ccdc_geom_bond_type
C42   C46   1.416389 A    
C15   C17   1.407987 A    
C42   N17   1.438301 S    
N7    O18   1.300762 A    
N7    O17   1.300802 A    
O3    C2    1.271669 A    
N18   O40   1.301335 A    
N13   O29   1.301340 A    
C31   C33   1.399245 A    
N9    O21   1.301601 A    
O5    C3    1.281063 A    
O1    C1    1.271551 A    
C19   C21   1.399207 A    
N8    O20   1.300767 A    
N17   O38   1.301320 A    
C5    C13   1.409328 A    
C41   N18   1.438314 S    
C17   N7    1.432369 S    
N16   O35   1.301299 A    
C25   Cl5   1.770470 S    
C44   C46   1.416523 A    
C19   Cl1   1.771525 S    
C41   C45   1.416368 A    
C45   C47   1.478161 S    
O7    Zn1   1.919078 S    
C46   C48   1.478231 S    
C36   C38   1.413656 S    
C11   C12   1.403009 A    
C20   C30   1.420096 A    
N6    O15   1.300746 A    
C44   N15   1.438268 S    
O3    Zn1   1.970762 S    
C8    O12   1.347404 S    
C24   C26   1.406181 A    
C9    C15   1.416499 A    
C47   N4    1.169754 T    
C10   C16   1.416507 A    
C22   Cl4   1.769338 S    
C25   C27   1.410249 A    
C21   Cl3   1.770030 S    
O2    C2    1.271584 A    
C26   C28   1.408950 A    
C33   N11   1.439504 S    
N18   O39   1.301267 A    
N13   O30   1.301303 A    
C28   C30   1.425073 A    
Zn1   N4    1.976169 S    
N9    O22   1.301378 A    
C6    C14   1.409267 A    
C32   N14   1.439458 S    
C43   C45   1.416480 A    
C43   N16   1.438273 S    
N5    O13   1.300733 A    
C27   N9    1.440777 S    
C26   Cl6   1.770924 S    
N8    O19   1.300816 A    
C23   C25   1.408979 A    
C20   Cl2   1.771060 S    
C2    C40   1.399070 S    
N11   O25   1.301367 A    
C34   N12   1.439499 S    
C41   C44   1.424842 A    
C31   C35   1.406333 A    
C42   C43   1.424804 A    
N5    O14   1.300767 A    
C4    C24   1.464966 S    
C3    C23   1.464882 S    
N11   O26   1.301301 A    
C18   N8    1.432352 S    
C32   C36   1.406306 A    
O6    C4    1.279554 A    
C33   C36   1.406270 A    
N14   O32   1.301303 A    
C34   C35   1.406279 A    
N15   O34   1.301269 A    
N1    C30   1.472821 S    
N12   O28   1.301301 A    
C27   C29   1.425282 A    
N10   O24   1.301441 A    
C9    C11   1.410917 A    
C7    O11   1.346949 S    
C10   C12   1.410928 A    
O1    Zn1   1.969160 S    
C19   C29   1.420039 A    
N2    C29   1.472976 S    
C37   C40   1.185570 T    
C13   C18   1.416144 A    
C5    N1    1.372503 A    
C38   C39   1.185534 T    
O6    Zn2   1.920742 S    
C7    C9    1.409112 A    
C1    C39   1.398993 S    
C16   N6    1.433070 S    
C12   C14   1.410319 A    
C8    C10   1.409221 A    
O4    C1    1.271688 A    
C5    O9    1.346020 S    
C6    O10   1.345465 S    
C31   N13   1.439465 S    
C48   N3    1.169794 T    
C20   C22   1.399869 A    
C16   C18   1.407709 A    
C21   C23   1.403158 A    
N17   O37   1.301269 A    
C22   C24   1.405761 A    
N16   O36   1.301268 A    
C32   C34   1.399227 A    
N14   O31   1.301341 A    
N1    C7    1.371538 A    
Zn2   N3    1.976169 S    
N2    C8    1.371766 A    
C11   C13   1.410395 A    
O4    Zn2   1.970763 S    
N12   O27   1.301363 A    
O2    Zn2   1.969159 S    
O7    C4    1.281701 A    
C15   N5    1.433239 S    
O8    C3    1.280054 A    
O5    Zn1   1.920742 S    
N10   O23   1.301574 A    
C14   C17   1.416147 A    
C6    N2    1.372330 A    
N15   O33   1.301299 A    
N6    O16   1.300740 A    
C35   C37   1.413703 S    
C28   N10   1.440613 S    
O8    Zn2   1.919078 S    
