data_mof_unit_34111.cif
_audit_creation_date              2012-12-11T14:35:48-0500
_audit_creation_method            fapswitch 2.2
_symmetry_space_group_name_H-M    P1
_symmetry_Int_Tables_number       1
_space_group_crystal_system       monoclinic
_cell_length_a                    14.504961
_cell_length_b                    16.035602
_cell_length_c                    6.968813
_cell_angle_alpha                 90.0
_cell_angle_beta                  80.7368
_cell_angle_gamma                 90.0
_cell_volume                      1599.77863369

loop_
_atom_site_label
_atom_site_type_symbol
_atom_type_description
_atom_site_fract_x
_atom_site_fract_y
_atom_site_fract_z
_atom_type_partial_charge
O1    O     O_R   0.337460 0.413110 0.524760 -0.538867
O2    O     O_R   0.662540 0.913110 0.475240 -0.538867
O3    O     O_R   0.348690 0.587910 0.191230 -0.544927
O4    O     O_R   0.651310 0.087910 0.808770 -0.544927
O5    O     O_R   0.166530 0.586890 0.082470 -0.541334
O6    O     O_R   0.833470 0.086890 0.917530 -0.541334
C1    C     C_R   0.370466 0.616648 0.353407 0.759847
C2    C     C_R   0.629534 0.116648 0.646593 0.759847
O7    O     O_R   0.348700 0.413830 0.191250 -0.543249
O8    O     O_R   0.651300 0.913830 0.808750 -0.543249
O9    O     O_R   0.166530 0.411570 0.082490 -0.544325
O10   O     O_R   0.833470 0.911570 0.917510 -0.544325
C3    C     C_R   0.371116 0.385489 0.353214 0.760408
C4    C     C_R   0.628884 0.885489 0.646786 0.760408
O11   O     O_R   0.337460 0.588430 0.524740 -0.540596
O12   O     O_R   0.662540 0.088430 0.475260 -0.540596
O13   O     O_3   0.192230 0.499460 0.407330 -0.377387
O14   O     O_3   0.807770 0.999460 0.592670 -0.377387
V1    V     V_3+5 0.263080 0.500100 0.108540 1.399566
V2    V     V_3+5 0.736920 0.000100 0.891460 1.399566
O15   O     O_R   0.155290 0.412090 0.756570 -0.545273
O16   O     O_R   0.844710 0.912090 0.243430 -0.545273
C5    C     C_R   0.128909 0.386370 0.934601 0.720533
C6    C     C_R   0.871091 0.886370 0.065398 0.720533
O17   O     O_R   0.155290 0.586170 0.756550 -0.541130
O18   O     O_R   0.844710 0.086170 0.243450 -0.541130
C7    C     C_R   0.133318 0.615509 0.933021 0.695882
C8    C     C_R   0.866682 0.115509 0.066979 0.695882
V3    V     V_3+5 0.240910 0.499900 0.616030 1.397155
V4    V     V_3+5 0.759090 0.999900 0.383970 1.397155
O19   O     O_3   0.311760 0.500540 0.867100 -0.370005
O20   O     O_3   0.688240 0.000540 0.132900 -0.370005
C9    C     C_3   0.099899 0.756008 0.100280 -0.299266
C10   C     C_3   0.900101 0.256008 0.899720 -0.299265
H1    H     H_    0.102225 0.726878 0.242812 0.125989
H2    H     H_    0.897775 0.226878 0.757188 0.125989
H3    H     H_    0.173479 0.773503 0.044841 0.163828
H4    H     H_    0.826521 0.273503 0.955158 0.163828
C11   C     C_3   0.035722 0.835460 0.123172 0.504919
C12   C     C_3   0.964278 0.335460 0.876828 0.504919
H5    H     H_    0.876153 0.740411 0.276318 0.163472
H6    H     H_    0.123847 0.240411 0.723682 0.163472
C13   C     C_3   0.965072 0.658229 0.066387 -0.034435
C14   C     C_3   0.034928 0.158229 0.933613 -0.034435
C15   C     C_3   0.053784 0.732413 0.772294 -0.008663
C16   C     C_3   0.946216 0.232413 0.227706 -0.008664
C17   C     C_3   0.064754 0.688562 0.968068 0.012119
C18   C     C_3   0.935246 0.188562 0.031932 0.012119
H7    H     H_    0.029322 0.684789 0.675616 0.126257
H8    H     H_    0.970678 0.184789 0.324384 0.126257
C19   C     C_3   0.944393 0.816801 0.031837 0.013419
C20   C     C_3   0.055607 0.316802 0.968163 0.013419
C21   C     C_3   0.898582 0.734227 0.116933 -0.409334
C22   C     C_3   0.101418 0.234227 0.883067 -0.409334
C23   C     C_3   0.976030 0.800767 0.810120 -0.337824
C24   C     C_3   0.023970 0.300768 0.189880 -0.337824
H9    H     H_    0.998947 0.860288 0.736430 0.197449
H10   H     H_    0.001053 0.360288 0.263570 0.197449
H11   H     H_    0.914621 0.779460 0.745724 0.123023
H12   H     H_    0.085379 0.279460 0.254276 0.123023
H13   H     H_    0.936115 0.619455 0.957494 0.178795
H14   H     H_    0.063885 0.119455 0.042506 0.178795
H15   H     H_    0.833217 0.722705 0.056337 0.138535
H16   H     H_    0.166783 0.222705 0.943663 0.138535
H17   H     H_    0.563876 0.808980 0.352842 0.155022
H18   H     H_    0.436123 0.308980 0.647158 0.155022
H19   H     H_    0.433256 0.694787 0.647950 0.154450
H20   H     H_    0.566744 0.194787 0.352049 0.154450
C25   C     C_2   0.439323 0.684950 0.343193 -0.329519
C26   C     C_2   0.560677 0.184950 0.656807 -0.329518
C27   C     C_2   0.464072 0.717944 0.505373 -0.121080
C28   C     C_2   0.535928 0.217944 0.494627 -0.121079
H21   H     H_    0.528362 0.794219 0.799497 0.127799
H22   H     H_    0.471638 0.294219 0.200503 0.127799
C29   C     C_2   0.558968 0.818016 0.657405 -0.332462
C30   C     C_2   0.441031 0.318016 0.342595 -0.332462
C31   C     C_2   0.533317 0.785665 0.495433 -0.121111
C32   C     C_2   0.466683 0.285665 0.504567 -0.121111
H23   H     H_    0.470168 0.708617 0.201134 0.126782
H24   H     H_    0.529832 0.208617 0.798866 0.126782
Cl1   Cl    Cl    0.098670 0.922781 0.003524 -0.767050
Cl2   Cl    Cl    0.901330 0.422781 0.996476 -0.767050
C33   C     C_3   0.017129 0.860782 0.338426 -0.731738
H25   H     H_    0.972340 0.814366 0.425313 0.170351
H26   H     H_    0.084393 0.865613 0.393353 0.217626
H27   H     H_    0.985851 0.923754 0.361206 0.240478
C34   C     C_3   0.982871 0.360782 0.661574 -0.731737
H28   H     H_    0.027660 0.314366 0.574687 0.170351
H29   H     H_    0.915606 0.365613 0.606647 0.217625
H30   H     H_    0.014149 0.423754 0.638794 0.240478
C35   C     C_3   0.963437 0.602058 0.246712 -0.684311
H31   H     H_    0.992748 0.634297 0.363902 0.188059
H32   H     H_    0.890233 0.584335 0.304991 0.229882
H33   H     H_    0.002307 0.543251 0.208856 0.236866
C36   C     C_3   0.036563 0.102058 0.753288 -0.684311
H34   H     H_    0.007252 0.134297 0.636098 0.188059
H35   H     H_    0.109767 0.084335 0.695009 0.229882
H36   H     H_    0.997693 0.043251 0.791144 0.236866
C37   C     C_3   0.148234 0.766818 0.663063 -0.693145
H37   H     H_    0.157199 0.749911 0.507971 0.176458
H38   H     H_    0.154115 0.835371 0.673481 0.258211
H39   H     H_    0.209711 0.740038 0.717039 0.193848
C38   C     C_3   0.851765 0.266818 0.336937 -0.693145
H40   H     H_    0.842801 0.249911 0.492029 0.176457
H41   H     H_    0.845885 0.335371 0.326519 0.258211
H42   H     H_    0.790289 0.240038 0.282960 0.193848

loop_
_geom_bond_atom_site_label_1
_geom_bond_atom_site_label_2
_ccdc_geom_bond_type
C11   C19   S    
C34   H28   S    
C23   H11   S    
O13   V3    S    
C36   H34   S    
O4    C2    A    
V1    O19   S    
C36   H36   S    
O9    V1    S    
C9    C11   S    
H22   C30   S    
C10   C12   S    
C12   C34   S    
C30   C32   D    
O3    C1    A    
O12   V4    S    
O7    V1    S    
C25   C27   D    
O7    C3    A    
C28   C32   S    
O13   V1    S    
O5    C7    A    
C13   C21   S    
O6    C8    A    
C33   H25   S    
O8    V2    S    
O3    V1    S    
O14   V4    S    
H19   C27   S    
C6    C19   S    
C1    O11   A    
C2    O12   A    
H21   C29   S    
C20   C22   S    
O11   V3    S    
C15   C17   S    
O17   V3    S    
H18   C32   S    
C16   C18   S    
H17   C31   S    
C26   H24   S    
C12   Cl2   S    
C14   C18   S    
C11   Cl1   S    
O8    C4    A    
C35   H31   S    
C19   C23   S    
C14   H14   S    
C12   C20   S    
O15   V3    S    
C9    H3    S    
C24   H12   S    
C19   C21   S    
C35   H32   S    
C37   H37   S    
C3    C30   S    
C15   H7    S    
H20   C28   S    
O10   V2    S    
O1    V3    S    
C33   H27   S    
C38   H41   S    
C29   C31   D    
H5    C21   S    
C33   H26   S    
O18   V4    S    
C23   H9    S    
C15   C37   S    
C9    C17   S    
O16   C6    A    
C25   H23   S    
O1    C3    A    
C27   C31   S    
C13   H13   S    
V2    O20   S    
C7    C17   S    
O10   C6    A    
C8    C18   S    
O16   V4    S    
C37   H38   S    
C10   H4    S    
O18   C8    A    
C1    C25   S    
C36   H35   S    
O5    V1    S    
O17   C7    A    
O6    V2    S    
C16   C38   S    
C16   H8    S    
C2    C26   S    
O2    V4    S    
C4    C29   S    
O15   C5    A    
C11   C33   S    
V3    O19   S    
C14   C36   S    
H6    C22   S    
C35   H33   S    
V4    O20   S    
C21   H15   S    
C5    C20   S    
C22   H16   S    
O9    C5    A    
C9    H1    S    
C10   H2    S    
C24   H10   S    
C38   H42   S    
O14   V2    S    
O2    C4    A    
C13   C35   S    
O4    V2    S    
C14   C22   S    
C37   H39   S    
C10   C18   S    
C15   C23   S    
C34   H30   S    
C16   C24   S    
C38   H40   S    
C34   H29   S    
C26   C28   D    
C13   C17   S    
C20   C24   S    
