data_mof_unit_37098.cif
_audit_creation_date              2012-12-10T17:57:54-0500
_audit_creation_method            fapswitch 2.2
_symmetry_space_group_name_H-M    P1
_symmetry_Int_Tables_number       1
_space_group_crystal_system       triclinic
_cell_length_a                    10.841874
_cell_length_b                    9.516336
_cell_length_c                    15.090846
_cell_angle_alpha                 89.773067
_cell_angle_beta                  89.482272
_cell_angle_gamma                 91.046185
_cell_volume                      1556.66041084

loop_
_atom_site_label
_atom_site_type_symbol
_atom_type_description
_atom_site_fract_x
_atom_site_fract_y
_atom_site_fract_z
_atom_type_partial_charge
C1    C     C_R   0.262199 0.498224 0.498101 0.914038
C2    C     C_R   0.128212 0.493649 0.494182 -0.387995
C3    C     C_R   0.423166 0.073210 0.445630 0.006916
C4    C     C_R   0.576834 0.926790 0.554369 0.006916
C5    C     C_R   0.576750 0.075634 0.554429 0.035101
C6    C     C_R   0.423250 0.924366 0.445571 0.035101
C7    C     C_R   0.499560 0.500218 0.329094 0.935524
C8    C     C_R   0.500439 0.499782 0.670906 0.935524
C9    C     C_R   0.602644 0.560175 0.811680 0.310602
C10   C     C_R   0.397358 0.439823 0.188321 0.310605
C11   C     C_R   0.501821 0.499472 0.767268 -0.248079
C12   C     C_R   0.737801 0.501776 0.501899 0.914039
C13   C     C_R   0.498180 0.500526 0.232732 -0.248080
C14   C     C_R   0.401957 0.438880 0.813639 0.297537
C15   C     C_R   0.598047 0.561112 0.186361 0.297539
C16   C     C_R   0.402002 0.437490 0.906551 0.012943
C17   C     C_R   0.598005 0.562498 0.093449 0.012944
C18   C     C_R   0.501235 0.500388 0.953018 -0.075659
C19   C     C_R   0.498771 0.499601 0.046982 -0.075658
C20   C     C_R   0.602527 0.563923 0.905666 0.014514
C21   C     C_R   0.397479 0.436065 0.094333 0.014513
C22   C     C_R   0.304065 0.373833 0.953572 -0.230069
C23   C     C_R   0.300462 0.371209 0.046098 0.455769
C24   C     C_R   0.695946 0.626147 0.046428 -0.230069
C25   C     C_R   0.699551 0.628768 0.953903 0.455766
C26   C     C_R   0.061049 0.391071 0.543558 0.400301
C27   C     C_R   0.938951 0.608929 0.456442 0.400302
C28   C     C_R   0.934167 0.401030 0.552790 0.380657
C29   C     C_R   0.065833 0.598971 0.447210 0.380659
C30   C     C_R   0.871788 0.506351 0.505818 -0.387996
Cl1   Cl    Cl    0.729255 0.622514 0.745662 -0.555827
Cl2   Cl    Cl    0.270739 0.377501 0.254336 -0.555829
Cl3   Cl    Cl    0.274909 0.369121 0.753502 -0.526535
Cl4   Cl    Cl    0.725095 0.630871 0.246499 -0.526536
Cu1   Cu    Cu3+1 0.500000 0.640660 0.500000 1.032426
Cu2   Cu    Cu3+1 0.500000 0.359340 0.500000 1.032425
H1    H     H_    0.228696 0.323601 0.918757 0.206735
H2    H     H_    0.843496 0.775197 0.457743 0.342765
H3    H     H_    0.800499 0.350576 0.634065 0.338125
H4    H     H_    0.199501 0.649425 0.365935 0.338128
H5    H     H_    0.771317 0.676372 0.081244 0.206736
H6    H     H_    0.361593 0.128353 0.402115 0.165759
H7    H     H_    0.638407 0.871647 0.597885 0.165761
H8    H     H_    0.638140 0.132683 0.598101 0.154236
H9    H     H_    0.361860 0.867317 0.401899 0.154236
H10   H     H_    0.144228 0.264064 0.045618 0.338438
H11   H     H_    0.855802 0.735878 0.954383 0.338438
H12   H     H_    0.156504 0.224803 0.542257 0.342765
N1    N     N_R   0.500000 0.852070 0.500000 -0.181207
N2    N     N_R   0.500000 0.147930 0.500000 -0.181207
O1    O     O_R   0.319640 0.618740 0.499990 -0.584449
O2    O     O_3   0.796662 0.696789 0.910774 -0.629582
O3    O     O_3   0.118044 0.284394 0.588176 -0.584216
O4    O     O_3   0.881956 0.715606 0.411825 -0.584216
O5    O     O_3   0.874629 0.305967 0.608704 -0.640543
O6    O     O_3   0.125371 0.694034 0.391296 -0.640542
O7    O     O_R   0.680360 0.381260 0.500010 -0.584448
O8    O     O_R   0.680360 0.618740 0.500010 -0.566593
O9    O     O_R   0.319640 0.381260 0.499990 -0.566594
O10   O     O_R   0.499970 0.618800 0.370260 -0.567353
O11   O     O_R   0.500030 0.381200 0.629740 -0.567354
O12   O     O_R   0.500030 0.618800 0.629740 -0.564279
O13   O     O_R   0.499970 0.381200 0.370260 -0.564282
O14   O     O_3   0.203360 0.303171 0.089226 -0.629587

loop_
_geom_bond_atom_site_label_1
_geom_bond_atom_site_label_2
_ccdc_geom_bond_type
Cu1   N1    S    
C3    H6    S    
H11   O2    S    
C6    H9    S    
C27   C29   A    
Cu2   O13   S    
C9    C11   A    
C8    O11   A    
C15   Cl4   S    
C26   C28   A    
Cu1   Cu2   S    
H2    O4    S    
C13   C15   A    
C4    N1    A    
Cu2   O9    S    
C12   O8    A    
C3    C6    A    
C14   Cl3   S    
C28   C30   A    
C25   O2    S    
Cu2   N2    S    
C2    C26   A    
H4    O6    S    
C27   C30   A    
C24   H5    S    
C1    O1    A    
C7    O13   A    
C1    O9    A    
Cu1   O8    S    
C12   O7    A    
C1    C2    S    
C23   O14   S    
C29   O6    S    
C5    H8    S    
C28   O5    S    
Cu2   O7    S    
Cu1   O12   S    
C18   C20   A    
C8    C11   S    
C10   C21   A    
Cu1   O1    S    
H12   O3    S    
C11   C14   A    
C14   C16   A    
C5    N2    A    
C27   O4    S    
C17   C24   A    
C20   C25   A    
C9    Cl1   S    
C4    H7    S    
Cu2   O11   S    
C26   O3    S    
C10   Cl2   S    
C7    O10   A    
C7    C13   S    
C2    C29   A    
C24   C25   A    
C16   C18   A    
C18   C19   A    
H10   O14   S    
C15   C17   A    
C22   C23   A    
C4    C5    A    
C16   C22   A    
C9    C20   A    
C17   C19   A    
C22   H1    S    
C12   C30   S    
C21   C23   A    
C3    N2    A    
H3    O5    S    
C6    N1    A    
C8    O12   A    
Cu1   O10   S    
C19   C21   A    
C10   C13   A    
