data_mof_unit_55748.cif
_audit_creation_date              2012-12-10T18:23:09-0500
_audit_creation_method            fapswitch 2.2
_symmetry_space_group_name_H-M    P1
_symmetry_Int_Tables_number       1
_space_group_crystal_system       triclinic
_cell_length_a                    14.949916
_cell_length_b                    14.030049
_cell_length_c                    10.504106
_cell_angle_alpha                 90.183428
_cell_angle_beta                  89.024401
_cell_angle_gamma                 90.662673
_cell_volume                      2202.73912461

loop_
_atom_site_label
_atom_site_type_symbol
_atom_type_description
_atom_site_fract_x
_atom_site_fract_y
_atom_site_fract_z
_atom_type_partial_charge
C1    C     C_R   0.327024 0.499443 0.503464 0.906946
C2    C     C_R   0.962299 0.569053 0.284651 -0.165411
C3    C     C_R   0.548507 0.798625 0.409264 -0.041710
C4    C     C_R   0.451492 0.201375 0.590735 -0.041712
C5    C     C_R   0.451410 0.797830 0.590690 -0.054179
C6    C     C_R   0.548590 0.202170 0.409310 -0.054179
C7    C     C_R   0.450293 0.898451 0.592931 0.014710
C8    C     C_R   0.549707 0.101549 0.407068 0.014709
C9    C     C_R   0.549667 0.899242 0.407064 0.004191
C10   C     C_R   0.450333 0.100758 0.592936 0.004191
C11   C     C_R   0.499994 0.949412 0.500004 0.087825
C12   C     C_R   0.672976 0.500558 0.496539 0.906934
C13   C     C_R   0.500005 0.050588 0.499996 0.087826
C14   C     C_R   0.400908 0.949115 0.685409 -0.200669
C15   C     C_R   0.599091 0.050884 0.314591 -0.200669
C16   C     C_R   0.599066 0.950663 0.314582 -0.190921
C17   C     C_R   0.400934 0.049337 0.685417 -0.190923
C18   C     C_R   0.501565 0.499873 0.257108 0.882553
C19   C     C_R   0.498434 0.500126 0.742891 0.882556
C20   C     C_3   0.417469 0.517894 0.046170 -0.192904
C21   C     C_3   0.582528 0.482101 0.953828 -0.192880
C22   C     C_3   0.473357 0.586083 0.960680 -0.135606
C23   C     C_R   0.953262 0.500214 0.497726 0.054545
C24   C     C_3   0.526640 0.413912 0.039320 -0.135586
C25   C     C_3   0.442430 0.432200 0.960617 -0.164662
C26   C     C_3   0.557567 0.567795 0.039382 -0.164649
C27   C     C_3   0.498388 0.500377 0.877836 0.032105
C28   C     C_3   0.501609 0.499619 0.122163 0.032110
C29   C     C_R   0.816367 0.534192 0.385085 -0.058250
C30   C     C_R   0.183633 0.465810 0.614921 -0.058253
C31   C     C_R   0.768366 0.501987 0.493349 -0.133180
C32   C     C_R   0.231633 0.498016 0.506656 -0.133182
C33   C     C_R   0.810735 0.467815 0.600259 -0.263857
C34   C     C_R   0.046738 0.499788 0.502278 0.054545
C35   C     C_R   0.189265 0.532188 0.399746 -0.263854
C36   C     C_R   0.902925 0.466503 0.603385 0.129771
C37   C     C_R   0.097075 0.533499 0.396619 0.129769
C38   C     C_2   0.768793 0.562378 0.268333 0.848841
C39   C     C_2   0.231210 0.437624 0.731670 0.848819
C40   C     C_R   0.910240 0.534280 0.387717 0.043264
C41   C     C_R   0.089760 0.465722 0.612287 0.043264
C42   C     C_R   0.945163 0.431907 0.710979 -0.212273
C43   C     C_R   0.054836 0.568094 0.289023 -0.212269
C44   C     C_R   0.037701 0.430948 0.715352 -0.165412
H1    H     H_    0.396266 0.376216 0.924694 0.174605
H2    H     H_    0.093476 0.594773 0.208166 0.157954
H3    H     H_    0.067622 0.401905 0.799607 0.179635
H4    H     H_    0.932378 0.598096 0.200395 0.179626
H5    H     H_    0.586190 0.758876 0.338533 0.178160
H6    H     H_    0.413809 0.241124 0.661467 0.178162
H7    H     H_    0.413528 0.757409 0.661233 0.135498
H8    H     H_    0.586472 0.242590 0.338767 0.135499
H9    H     H_    0.362267 0.911257 0.757738 0.146178
H10   H     H_    0.637733 0.088743 0.242261 0.146179
H11   H     H_    0.637695 0.913391 0.242254 0.153881
H12   H     H_    0.603731 0.623778 0.075306 0.174605
H13   H     H_    0.362304 0.086609 0.757746 0.153879
H14   H     H_    0.752019 0.541137 0.080229 0.330651
H15   H     H_    0.248015 0.458874 0.919759 0.330649
H16   H     H_    0.350611 0.532543 0.089049 0.134458
H17   H     H_    0.649385 0.467453 0.910947 0.134455
H18   H     H_    0.451427 0.656135 0.924370 0.145070
H19   H     H_    0.548570 0.343860 0.075629 0.145067
H20   H     H_    0.771321 0.442562 0.681463 0.141071
H21   H     H_    0.228678 0.557442 0.318542 0.141074
H22   H     H_    0.906523 0.405227 0.791836 0.157953
N1    N     N_R   0.500000 0.750030 0.500000 -0.107294
N2    N     N_R   0.500000 0.249970 0.500000 -0.107294
O1    O     O_R   0.367850 0.580280 0.500030 -0.625838
O2    O     O_R   0.785006 0.513161 0.154498 -0.818271
O3    O     O_2   0.283060 0.370950 0.728603 -0.654998
O4    O     O_R   0.214996 0.486836 0.845508 -0.818259
O5    O     O_R   0.632150 0.419720 0.499970 -0.625834
O6    O     O_R   0.632150 0.580280 0.499970 -0.582134
O7    O     O_R   0.367850 0.419720 0.500030 -0.582126
O8    O     O_R   0.499970 0.580260 0.313950 -0.614060
O9    O     O_R   0.500030 0.419740 0.686050 -0.614055
O10   O     O_R   0.500030 0.580260 0.686050 -0.638701
O11   O     O_R   0.499970 0.419740 0.313950 -0.638699
O12   O     O_2   0.716954 0.629061 0.271393 -0.654994
Zn1   Zn    Zn3+2 0.500000 0.607200 0.500000 0.972981
Zn2   Zn    Zn3+2 0.500000 0.392800 0.500000 0.972985

loop_
_geom_bond_atom_site_label_1
_geom_bond_atom_site_label_2
_ccdc_geom_bond_type
C21   C26   S    
C38   O2    S    
C8    C13   A    
C12   O6    A    
C34   C37   A    
C36   C42   A    
C5    N1    A    
C3    H5    S    
C7    C11   A    
C35   C37   A    
C9    C16   A    
C20   C25   S    
C35   H21   S    
C10   C17   A    
C23   C40   A    
C33   C36   A    
C19   O9    A    
C7    C14   A    
C18   O11   A    
C29   C38   S    
C39   O4    S    
C31   C33   A    
C30   C41   A    
C20   H16   S    
C19   C27   S    
C21   H17   S    
C44   H3    S    
H15   O4    S    
C6    N2    A    
C21   C27   S    
C12   O5    A    
C14   C17   A    
C34   C41   A    
C42   C44   A    
C1    O7    A    
C32   C35   A    
C18   C28   S    
C24   C25   S    
C4    N2    A    
H14   O2    S    
C6    C8    A    
C8    C15   A    
C20   C28   S    
C2    H4    S    
C1    C32   S    
C1    O1    A    
C4    H6    S    
C37   C43   A    
C19   O10   A    
C15   H10   S    
C3    C9    A    
C22   H18   S    
C2    C43   A    
C23   C34   A    
C9    C11   A    
C20   C22   S    
N1    Zn1   S    
C24   H19   S    
C22   C27   S    
C12   C31   S    
C41   C44   A    
O6    Zn1   S    
C4    C10   A    
C25   H1    S    
O5    Zn2   S    
C5    C7    A    
C18   O8    A    
C3    N1    A    
C24   C28   S    
C10   C13   A    
C26   H12   S    
O8    Zn1   S    
O11   Zn2   S    
O7    Zn2   S    
C25   C27   S    
C26   C28   S    
N2    Zn2   S    
C16   H11   S    
C29   C31   A    
C30   C32   A    
C11   C13   A    
O10   Zn1   S    
C38   O12   D    
O9    Zn2   S    
C33   H20   S    
C29   C40   A    
C30   C39   S    
C43   H2    S    
O1    Zn1   S    
C2    C40   A    
C14   H9    S    
C23   C36   A    
C22   C26   S    
C21   C24   S    
C42   H22   S    
C39   O3    D    
C5    H7    S    
C6    H8    S    
C15   C16   A    
C17   H13   S    
