data_mof_unit_19726.cif
_audit_creation_date              2012-12-10T17:38:12-0500
_audit_creation_method            fapswitch 2.2
_symmetry_space_group_name_H-M    P1
_symmetry_Int_Tables_number       1
_space_group_crystal_system       triclinic
_cell_length_a                    12.001011
_cell_length_b                    12.820727
_cell_length_c                    19.181904
_cell_angle_alpha                 91.127167
_cell_angle_beta                  85.456413
_cell_angle_gamma                 92.816994
_cell_volume                      2938.16081262

loop_
_atom_site_label
_atom_site_type_symbol
_atom_type_description
_atom_site_fract_x
_atom_site_fract_y
_atom_site_fract_z
_atom_type_partial_charge
C1    C     C_R   0.522273 0.700146 0.497703 0.853799
C2    C     C_R   0.478540 0.299550 0.499870 0.880765
C3    C     C_R   0.467669 0.188274 0.494059 -0.075130
C4    C     C_R   0.539494 0.810844 0.495631 -0.085898
C5    C     C_R   0.634904 0.967394 0.536138 0.106032
C6    C     C_R   0.385001 0.032942 0.442824 0.087802
C7    C     C_R   0.625976 0.859226 0.530728 -0.243884
C8    C     C_R   0.383862 0.139856 0.456613 -0.258032
C9    C     C_R   0.467002 0.867904 0.460669 -0.285595
C10   C     C_R   0.551158 0.131809 0.519481 -0.252111
C11   C     C_R   0.468883 0.975315 0.469078 0.147610
C12   C     C_R   0.552767 0.025312 0.508011 0.118447
C13   C     C_R   0.954527 0.384328 0.447330 0.300951
C14   C     C_R   0.041747 0.601989 0.562676 0.281806
C15   C     C_R   0.837654 0.400074 0.448178 0.473750
C16   C     C_R   0.159721 0.599153 0.551595 0.507329
C17   C     C_R   0.857382 0.546962 0.524466 -0.107842
C18   C     C_R   0.141909 0.448150 0.479057 -0.098137
C19   C     C_R   0.974093 0.535896 0.523081 -0.161981
C20   C     C_R   0.023989 0.456180 0.482112 -0.136470
C21   C     C_R   0.499394 0.498291 0.634887 0.934531
C22   C     C_R   0.501085 0.505857 0.365281 0.917855
C23   C     C_R   0.401326 0.511426 0.754103 0.376201
C24   C     C_R   0.604172 0.512031 0.246737 0.418703
C25   C     C_R   0.393178 0.486790 0.824982 -0.028336
C26   C     C_R   0.602774 0.495272 0.174857 -0.040788
C27   C     C_R   0.486163 0.449994 0.854943 -0.154460
C28   C     C_R   0.499878 0.487909 0.144506 -0.199078
C29   C     C_R   0.583873 0.428095 0.813365 0.332094
C30   C     C_R   0.399098 0.504669 0.184568 0.392116
C31   C     C_R   0.587095 0.439661 0.740666 0.287999
C32   C     C_R   0.400718 0.523403 0.256623 0.326595
C33   C     C_R   0.496808 0.484772 0.710907 -0.366557
C34   C     C_R   0.502258 0.515246 0.288843 -0.423925
C35   C     C_R   0.497383 0.475424 0.069574 0.384588
C36   C     C_R   0.488341 0.455675 0.930482 0.402200
H1    H     H_    0.614745 0.171847 0.548553 0.177969
H2    H     H_    0.405761 0.827515 0.430085 0.159826
H3    H     H_    0.320417 0.185309 0.436034 0.163103
H4    H     H_    0.683998 0.812676 0.555715 0.156945
H5    H     H_    0.181794 0.386597 0.448441 0.208505
H6    H     H_    0.817636 0.608073 0.555605 0.197872
N1    N     N_R   0.527641 0.377653 0.966938 -0.127280
N2    N     N_R   0.460098 0.553632 0.032920 -0.190594
N3    N     N_R   0.531734 0.387321 0.035858 -0.177991
N4    N     N_R   0.455830 0.543960 0.964406 -0.195404
N5    N     N_R   0.207800 0.519350 0.512860 -0.168321
N6    N     N_R   0.792200 0.480650 0.487140 -0.158877
O1    O     O_R   0.421690 0.658830 0.503430 -0.593676
O2    O     O_R   0.578310 0.341170 0.496570 -0.564781
O3    O     O_R   0.609320 0.646410 0.495180 -0.640581
O4    O     O_R   0.390680 0.353590 0.504820 -0.640161
O5    O     O_R   0.406160 0.506220 0.605990 -0.550987
O6    O     O_R   0.593840 0.493780 0.394010 -0.555637
O7    O     O_R   0.593780 0.493810 0.597740 -0.580291
O8    O     O_R   0.406220 0.506190 0.402260 -0.580119
Zn1   Zn    Zn3+2 0.374720 0.508290 0.505510 0.992849
Zn2   Zn    Zn3+2 0.625280 0.491710 0.494490 0.988898
O9    O     O_3   0.317286 0.566412 0.728659 -0.577044
C37   C     C_3   0.344187 0.674805 0.736136 0.162671
H7    H     H_    0.384323 0.704497 0.685759 0.175061
H8    H     H_    0.402350 0.694906 0.777685 0.096497
C38   C     C_3   0.237737 0.732248 0.754995 -0.837721
H9    H     H_    0.194588 0.702499 0.804417 0.234308
H10   H     H_    0.258584 0.816977 0.761794 0.203035
H11   H     H_    0.180144 0.721098 0.713008 0.301169
O10   O     O_3   0.706147 0.519712 0.275665 -0.580094
C39   C     C_3   0.740317 0.626324 0.281063 0.146100
H12   H     H_    0.678346 0.670239 0.314953 0.121312
H13   H     H_    0.751523 0.662390 0.228433 0.134835
C40   C     C_3   0.851904 0.635781 0.313712 -0.829214
H14   H     H_    0.880876 0.719193 0.317070 0.203549
H15   H     H_    0.842672 0.603365 0.367178 0.256288
H16   H     H_    0.915547 0.592249 0.281332 0.251436
O11   O     O_3   0.999901 0.297740 0.414301 -0.623619
C41   C     C_3   0.990182 0.214422 0.461817 0.095799
H17   H     H_    0.902882 0.201930 0.485661 0.152631
H18   H     H_    0.047608 0.229516 0.504116 0.145230
C42   C     C_3   0.022402 0.114628 0.422968 -0.854901
H19   H     H_    0.021118 0.049467 0.460367 0.203259
H20   H     H_    0.962197 0.094447 0.383161 0.254004
H21   H     H_    0.107629 0.125634 0.396384 0.258859
O12   O     O_3   0.994111 0.673279 0.609752 -0.626152
C43   C     C_3   0.966392 0.623045 0.674118 0.108410
H22   H     H_    0.041280 0.589464 0.694238 0.166401
H23   H     H_    0.901030 0.559278 0.668734 0.171152
C44   C     C_3   0.920478 0.702505 0.727487 -0.852774
H24   H     H_    0.840193 0.730390 0.711593 0.251759
H25   H     H_    0.905865 0.666322 0.779694 0.199305
H26   H     H_    0.981073 0.770286 0.731244 0.263730
N7    N     N_3   0.291708 0.503275 0.867788 -0.429293
H27   H     H_    0.278618 0.583165 0.870452 0.204084
H28   H     H_    0.225075 0.465254 0.844137 0.213490
N8    N     N_3   0.707158 0.486923 0.133602 -0.414330
H29   H     H_    0.712398 0.543197 0.094609 0.176748
H30   H     H_    0.708574 0.412929 0.109818 0.207152
O13   O     O_3   0.676282 0.394585 0.843887 -0.590084
C45   C     C_3   0.752422 0.480772 0.851703 0.127243
H31   H     H_    0.711632 0.546137 0.881393 0.121377
H32   H     H_    0.787873 0.509021 0.799773 0.171756
C46   C     C_3   0.848338 0.447304 0.892060 -0.823334
H33   H     H_    0.891774 0.382903 0.863455 0.260379
H34   H     H_    0.909235 0.514340 0.898028 0.199298
H35   H     H_    0.815793 0.420173 0.944784 0.261662
O14   O     O_3   0.298302 0.487509 0.154376 -0.567383
C47   C     C_3   0.250000 0.583328 0.142644 0.143874
H36   H     H_    0.313470 0.648003 0.129612 0.110093
H37   H     H_    0.195848 0.605860 0.189495 0.174047
C48   C     C_3   0.175708 0.569280 0.082092 -0.805405
H38   H     H_    0.108618 0.508207 0.094616 0.260773
H39   H     H_    0.136526 0.643883 0.072660 0.196814
H40   H     H_    0.225916 0.545632 0.033782 0.275242
O15   O     O_3   0.683908 0.417943 0.700035 -0.590503
C49   C     C_3   0.685596 0.309339 0.687027 0.191866
H41   H     H_    0.610781 0.280737 0.660048 0.112545
H42   H     H_    0.688568 0.265942 0.736487 0.171403
C50   C     C_3   0.789938 0.286542 0.640039 -0.861786
H43   H     H_    0.865722 0.319311 0.663897 0.251222
H44   H     H_    0.796745 0.200997 0.632987 0.211870
H45   H     H_    0.785324 0.321964 0.588139 0.259196
O16   O     O_3   0.301460 0.544394 0.295019 -0.551501
C51   C     C_3   0.301823 0.652894 0.310893 0.128122
H46   H     H_    0.317284 0.700442 0.262799 0.084022
H47   H     H_    0.367293 0.676267 0.346808 0.134615
C52   C     C_3   0.188770 0.679612 0.346513 -0.827843
H48   H     H_    0.172107 0.635801 0.395761 0.253784
H49   H     H_    0.188472 0.764548 0.359021 0.200202
H50   H     H_    0.121322 0.659092 0.311560 0.247374
N9    N     N_3   0.723538 0.018050 0.572378 -0.488370
H51   H     H_    0.770401 0.963004 0.595068 0.187803
H52   H     H_    0.777855 0.056373 0.534861 0.179542
N10   N     N_3   0.299841 0.982633 0.403928 -0.500092
H53   H     H_    0.298426 0.021063 0.356456 0.192820
H54   H     H_    0.222888 0.991024 0.432419 0.180902
O17   O     O_3   0.226648 0.674921 0.582363 -0.569684
C53   C     C_3   0.213810 0.772476 0.550838 0.130550
H55   H     H_    0.125200 0.792629 0.548781 0.164583
H56   H     H_    0.251515 0.771503 0.496230 0.141963
C54   C     C_3   0.270127 0.859953 0.592064 -0.827164
H57   H     H_    0.357368 0.841643 0.600490 0.261151
H58   H     H_    0.270668 0.934110 0.563224 0.217860
H59   H     H_    0.222629 0.871565 0.643303 0.243069
O18   O     O_3   0.765310 0.326714 0.419049 -0.593335
C55   C     C_3   0.793482 0.310653 0.346819 0.168783
H60   H     H_    0.858416 0.252211 0.338334 0.181461
H61   H     H_    0.823697 0.384104 0.320049 0.187388
C56   C     C_3   0.690851 0.265254 0.313015 -0.771870
H62   H     H_    0.620090 0.317351 0.322411 0.270520
H63   H     H_    0.710400 0.255837 0.255744 0.207637
H64   H     H_    0.665160 0.187735 0.335503 0.236190

loop_
_geom_bond_atom_site_label_1
_geom_bond_atom_site_label_2
_ccdc_geom_bond_type
C26   N8    S    
C43   H23   S    
C21   O5    A    
C44   H24   S    
C38   H10   S    
C46   H33   S    
C27   C29   A    
C19   C20   A    
C17   N6    A    
C56   H62   S    
C18   N5    A    
C42   H21   S    
C49   H41   S    
O17   C53   S    
C22   O6    A    
C23   O9    S    
C10   H1    S    
C15   N6    A    
C56   H63   S    
C24   C26   A    
O15   C49   S    
C50   H44   S    
C54   H59   S    
C21   C33   S    
C47   H36   S    
O18   C55   S    
O1    Zn1   S    
O8    Zn1   S    
C37   H8    S    
C17   H6    S    
C2    O2    A    
C24   O10   S    
C44   H26   S    
C13   O11   S    
C28   C35   S    
C39   H12   S    
C23   C33   A    
C52   H50   S    
C7    H4    S    
C31   C33   A    
C36   N4    A    
C8    H3    S    
C5    N9    S    
C38   H11   S    
O9    C37   S    
C46   H34   S    
C14   O12   S    
C55   C56   S    
C10   C12   A    
C16   N5    A    
N2    N4    A    
O13   C45   S    
C22   C34   S    
C25   N7    S    
O10   C39   S    
O2    Zn2   S    
C56   H64   S    
C41   H17   S    
C5    C12   A    
C55   H61   S    
C3    C8    A    
C50   H45   S    
N7    H27   S    
C5    C7    A    
O5    Zn1   S    
N10   H53   S    
C22   O8    A    
C4    C7    A    
C38   H9    S    
C24   C34   A    
C48   H40   S    
C37   H7    S    
C53   C54   S    
O11   C41   S    
N7    H28   S    
C1    O3    A    
C49   H42   S    
O12   C43   S    
C11   C12   A    
O3    Zn2   S    
C43   H22   S    
N8    H30   S    
C35   N2    A    
C9    C11   A    
O16   C51   S    
C2    O4    A    
N10   H54   S    
C15   O18   S    
C6    N10   S    
C46   H35   S    
C45   H32   S    
C13   C15   A    
C30   O14   S    
C52   H48   S    
C14   C16   A    
C18   H5    S    
C51   H47   S    
C35   N3    A    
C6    C11   A    
C53   H56   S    
C21   O7    A    
N9    H51   S    
O6    Zn2   S    
C13   C20   A    
C26   C28   A    
C14   C19   A    
C41   H18   S    
C53   H55   S    
C40   H16   S    
C6    C8    A    
C54   H57   S    
N6    Zn2   S    
C43   C44   S    
C27   C36   S    
C25   C27   A    
C45   C46   S    
O14   C47   S    
C42   H20   S    
C29   O13   S    
C55   H60   S    
C1    C4    S    
C51   C52   S    
C28   C30   A    
C2    C3    S    
C51   H46   S    
C40   H14   S    
C29   C31   A    
C3    C10   A    
C48   H38   S    
C30   C32   A    
C54   H58   S    
C47   H37   S    
C39   C40   S    
C48   H39   S    
C9    H2    S    
C17   C19   A    
C18   C20   A    
C23   C25   A    
N8    H29   S    
C49   C50   S    
C37   C38   S    
O4    Zn1   S    
C42   H19   S    
C41   C42   S    
C39   H13   S    
C45   H31   S    
O7    Zn2   S    
C40   H15   S    
N5    Zn1   S    
C52   H49   S    
C44   H25   S    
C32   O16   S    
C36   N1    A    
C4    C9    A    
C50   H43   S    
C16   O17   S    
C1    O1    A    
N1    N3    A    
C31   O15   S    
C32   C34   A    
N9    H52   S    
C47   C48   S    
