data_mof_unit_67171.cif
_audit_creation_date              2013-03-05T15:58:59-0500
_audit_creation_method            fapswitch 2.2
_symmetry_space_group_name_H-M    P1
_symmetry_Int_Tables_number       1
_space_group_crystal_system       triclinic
_cell_length_a                    8.375894
_cell_length_b                    12.933911
_cell_length_c                    15.049155
_cell_angle_alpha                 97.622188
_cell_angle_beta                  98.079081
_cell_angle_gamma                 98.973433
_cell_volume                      1574.34608038

loop_
_atom_site_label
_atom_site_type_symbol
_atom_site_description
_atom_site_fract_x
_atom_site_fract_y
_atom_site_fract_z
_atom_type_partial_charge
P1    P     P_3+3 0.998730 0.403530 0.291970 0.493505
O1    O     O_2   0.827880 0.435260 0.277750 -0.400089
O2    O     O_3   0.100280 0.438960 0.391170 -0.311889
O3    O     O_3   0.625580 0.634130 0.333250 -0.394178
O4    O     O_2   0.727854 0.561184 0.181284 -0.399237
O5    O     O_3   0.969697 0.265256 0.286978 -0.602860
O6    O     O_3   0.607873 0.732900 0.178808 -0.578536
H1    H     H_    0.681904 0.831615 0.302372 0.124555
C1    C     C_3   0.540108 0.906359 0.206468 -0.874559
H2    H     H_    0.652188 0.948555 0.188051 0.255723
H3    H     H_    0.447152 0.884636 0.143908 0.273006
P2    P     P_3+3 0.687380 0.751030 0.571310 0.545790
P3    P     P_3+3 0.107921 0.827500 0.381968 0.473940
O7    O     O_2   0.857130 0.766340 0.543890 -0.317223
O8    O     O_3   0.056550 0.691050 0.379010 -0.359181
O9    O     O_2   0.019076 0.875002 0.455589 -0.396898
O10   O     O_3   0.742985 0.789858 0.688828 -0.533034
O11   O     O_3   0.014067 0.877704 0.289132 -0.618734
C2    C     C_3   0.024848 0.822250 0.204303 1.169142
H4    H     H_    0.932481 0.747576 0.191610 0.044528
C3    C     C_3   0.980529 0.892091 0.133042 -1.108982
H5    H     H_    0.848057 0.893730 0.124103 0.232113
H6    H     H_    0.052328 0.973479 0.154308 0.265495
C4    C     C_3   0.239463 0.818829 0.747909 0.892924
C5    C     C_3   0.227581 0.905677 0.828031 -1.031699
H7    H     H_    0.331575 0.973359 0.841222 0.240960
H8    H     H_    0.114397 0.939178 0.812578 0.270184
H9    H     H_    0.219549 0.873527 0.892049 0.252005
Ba1   Ba    Ba6+2 0.843750 0.550210 0.455600 1.598503
C6    C     C_3   0.815929 0.209245 0.240473 1.139428
H10   H     H_    0.722133 0.260068 0.234493 0.026241
C7    C     C_3   0.829326 0.161104 0.143306 -1.209334
H11   H     H_    0.716586 0.163901 0.095687 0.241665
H12   H     H_    0.843664 0.077408 0.138492 0.276350
H13   H     H_    0.936612 0.204563 0.120027 0.259950
C8    C     C_3   0.781258 0.705572 0.731970 0.346159
H14   H     H_    0.889050 0.679183 0.708184 0.101329
H15   H     H_    0.676557 0.638160 0.718267 0.100979
C9    C     C_3   0.817699 0.746749 0.833934 0.125326
H16   H     H_    0.899537 0.825004 0.846955 0.137284
H17   H     H_    0.700048 0.760600 0.855227 0.138570
P4    P     P_3+3 0.190990 0.596560 0.708040 0.530158
O12   O     O_2   0.361830 0.564780 0.722310 -0.331190
O13   O     O_3   0.089430 0.561130 0.608830 -0.423491
O14   O     O_3   0.564130 0.365960 0.666760 -0.321035
O15   O     O_3   0.179704 0.720976 0.772552 -0.590315
P5    P     P_3+3 0.088355 0.171281 0.619558 0.435573
O16   O     O_3   0.601940 0.368240 0.453770 -0.401279
O17   O     O_3   0.133170 0.309040 0.621000 -0.373909
O18   O     O_2   0.207195 0.125257 0.562000 -0.398941
O19   O     O_3   0.152067 0.144179 0.728554 -0.544892
Ba2   Ba    Ba6+2 0.346090 0.449880 0.544410 1.604084
P6    P     P_3+3 0.584595 0.608624 0.214794 0.416501
C10   C     C_3   0.574749 0.808540 0.246845 0.363979
H18   H     H_    0.465734 0.777544 0.276053 0.123888
H19   H     H_    0.495343 0.960955 0.256641 0.273250
O20   O     O_3   0.587780 0.631850 0.546230 -0.379124
C11   C     C_3   0.394451 0.272792 0.265719 0.416611
H20   H     H_    0.288144 0.293952 0.295779 0.125251
H21   H     H_    0.491314 0.344208 0.273543 0.087297
C12   C     C_3   0.337664 0.231083 0.164858 -1.028742
H22   H     H_    0.238480 0.160870 0.155800 0.274913
H23   H     H_    0.290404 0.292579 0.129471 0.228026
H24   H     H_    0.441364 0.207824 0.133178 0.259667
P7    P     P_3+3 0.503450 0.232094 0.424247 0.476577
O21   O     O_2   0.332590 0.233690 0.456160 -0.346711
O22   O     O_3   0.456612 0.192986 0.306428 -0.546655
H25   H     H_    0.008622 0.863438 0.065441 0.246912
C13   C     C_3   0.129968 0.226919 0.793441 0.493620
H26   H     H_    0.215655 0.300814 0.790873 0.142266
H27   H     H_    0.001967 0.241320 0.782328 0.013339
C14   C     C_3   0.167216 0.196537 0.887533 -0.993356
H28   H     H_    0.296321 0.184740 0.901441 0.290053
H29   H     H_    0.148277 0.259891 0.940142 0.230383
H30   H     H_    0.084971 0.121931 0.891897 0.261932
P8    P     P_3+3 0.614195 0.374772 0.783759 0.455601
C15   C     C_3   0.624654 0.173903 0.762781 0.441143
H31   H     H_    0.716911 0.207577 0.722986 0.047376
O23   O     O_2   0.501996 0.444662 0.825448 -0.416863
O24   O     O_3   0.544242 0.248340 0.807543 -0.524323
H32   H     H_    0.531524 0.115178 0.714005 0.105600
H33   H     H_    0.802682 0.173870 0.882062 0.252883
C16   C     C_3   0.709108 0.116508 0.832445 -0.993749
H34   H     H_    0.770080 0.056131 0.797784 0.261735
H35   H     H_    0.618241 0.077079 0.869843 0.284988
C17   C     C_R   0.835447 0.426280 0.828461 0.175137
C18   C     C_R   0.909374 0.420764 0.917682 0.004428
C19   C     C_R   0.047148 0.433084 0.105265 -0.021820
C20   C     C_R   0.881782 0.390676 0.072425 -0.142702
C21   C     C_R   0.815528 0.382360 0.980917 -0.200854
C22   C     C_R   0.114341 0.448274 0.200492 0.168706
H36   H     H_    0.799343 0.365039 0.117090 0.153745
H37   H     H_    0.686269 0.350756 0.961925 0.185512
C23   C     C_R   0.279315 0.494853 0.228140 -0.500339
C24   C     C_R   0.095358 0.516870 0.793175 0.334558
C25   C     C_R   0.170756 0.516741 0.886849 -0.172148
C26   C     C_R   0.077373 0.464877 0.947354 -0.056192
C27   C     C_R   0.329937 0.572917 0.926913 0.720936
C28   C     C_R   0.405551 0.552146 0.010627 -0.360118
C29   C     C_R   0.314373 0.509790 0.071899 -0.089310
C30   C     C_R   0.147076 0.466873 0.041111 0.023831
C31   C     C_R   0.380387 0.525212 0.166073 0.235442
C32   C     C_R   0.927303 0.477247 0.770945 -0.360067
H38   H     H_    0.533348 0.584595 0.032535 0.184811
H39   H     H_    0.329845 0.509234 0.299825 0.171603
H40   H     H_    0.861044 0.497642 0.711700 0.140542
C33   C     C_R   0.774934 0.173275 0.524118 -0.449511
C34   C     C_R   0.425436 0.808239 0.459064 -0.507709
C35   C     C_R   0.390731 0.983321 0.428803 -0.240201
C36   C     C_R   0.328106 0.876123 0.422254 0.257657
C37   C     C_R   0.581183 0.847584 0.511036 0.310472
C38   C     C_R   0.644617 0.958881 0.519995 -0.077547
C39   C     C_R   0.549134 0.026298 0.475611 -0.041233
C40   C     C_R   0.613748 0.135648 0.480976 0.220506
C41   C     C_R   0.870422 0.110650 0.568630 0.102096
C42   C     C_R   0.800276 0.005068 0.571153 -0.208482
H41   H     H_    0.312215 0.032567 0.398692 0.190178
H42   H     H_    0.865221 0.959488 0.613332 0.185136
H43   H     H_    0.374220 0.724970 0.452836 0.177997
O25   O     O_3   0.754632 0.128885 0.288947 -0.658682
C43   C     C_3   0.879810 0.078646 0.327942 -0.098224
H44   H     H_    0.957000 0.129841 0.388302 0.182571
H45   H     H_    0.960814 0.057007 0.279205 0.162600
H46   H     H_    0.822511 0.006288 0.351253 0.163405
O26   O     O_3   0.897021 0.677396 0.882117 -0.623005
C44   C     C_3   0.816449 0.654199 0.955061 -0.232552
H47   H     H_    0.698860 0.600188 0.928388 0.201338
H48   H     H_    0.797441 0.726764 0.997368 0.140046
H49   H     H_    0.891402 0.613275 0.000244 0.173908
O27   O     O_3   0.409051 0.654220 0.889106 -0.596845
C45   C     C_3   0.437160 0.749788 0.951891 -0.327974
H50   H     H_    0.535813 0.751338 0.009392 0.171165
H51   H     H_    0.323984 0.764265 0.978054 0.159582
H52   H     H_    0.479542 0.817319 0.918639 0.203319
C46   C     C_2   0.844799 0.281510 0.522670 1.143015
O28   O     O_2   0.913520 0.305061 0.460449 -0.569074
O29   O     O_R   0.827976 0.357554 0.592140 -0.812799
H53   H     H_    0.856241 0.430115 0.576155 0.345106
O30   O     O_3   0.185772 0.805092 0.201093 -0.645569
C47   C     C_3   0.181000 0.716681 0.135157 -0.457644
H54   H     H_    0.123920 0.726195 0.066722 0.174214
H55   H     H_    0.116976 0.644667 0.155769 0.176721
H56   H     H_    0.306841 0.708246 0.128691 0.226614
C48   C     C_2   0.409828 0.818168 0.730777 0.906116
O31   O     O_2   0.528302 0.877046 0.777606 -0.685536
O32   O     O_R   0.427937 0.753153 0.654208 -0.760495
H57   H     H_    0.325586 0.727939 0.607131 0.295284
O33   O     O_3   0.138311 0.834141 0.669114 -0.648676
C49   C     C_3   0.207801 0.925817 0.636595 -0.131845
H58   H     H_    0.280339 0.990028 0.689584 0.146362
H59   H     H_    0.109803 0.958246 0.602208 0.232774
H60   H     H_    0.288545 0.905188 0.588267 0.111470

loop_
_geom_bond_atom_site_label_1
_geom_bond_atom_site_label_2
_geom_bond_distance
_ccdc_geom_bond_type
C23   H39   1.082317 S    
C44   H47   1.104100 S    
C9    O26   1.412408 S    
P2    Ba1   3.463603 S    
C12   H24   1.109993 S    
P7    C40   1.886462 S    
C24   C25   1.461799 A    
P8    O23   1.540844 D    
C45   H52   1.099312 S    
C19   C30   1.431307 A    
C35   H41   1.080272 S    
C46   O28   1.213826 D    
P5    O17   1.759228 S    
C15   H31   1.113438 S    
C5    H9    1.105157 S    
P5    C41   1.880204 S    
P3    O11   1.755760 S    
O14   P8    1.735897 S    
O4    P6    1.545406 D    
C8    H14   1.101970 S    
C2    C3    1.534130 S    
C47   H55   1.104058 S    
O11   C2    1.400719 S    
C49   H59   1.078451 S    
C6    H10   1.101957 S    
O3    P6    1.743903 S    
O12   Ba2   2.859675 S    
C15   C16   1.520658 S    
C11   H21   1.111672 S    
C41   C42   1.407559 A    
O2    Ba1   2.967710 S    
P1    O1    1.543523 D    
P4    O15   1.788791 S    
C13   H27   1.110081 S    
C43   H46   1.106146 S    
C33   C46   1.434837 S    
C2    H4    1.115475 S    
C42   H42   1.071738 S    
P7    O22   1.748778 S    
C25   C27   1.422921 A    
P2    O10   1.748365 S    
C47   H56   1.092807 S    
O10   C8    1.396781 S    
O16   P7    1.793036 S    
C1    H2    1.099728 S    
O3    Ba1   2.847952 S    
C35   C39   1.403163 A    
O13   Ba2   2.968576 S    
C11   C12   1.523471 S    
C28   H38   1.074517 S    
P1    C22   1.891836 S    
C3    H5    1.102648 S    
C34   H43   1.081915 S    
C13   H26   1.110706 S    
P4    O13   1.581976 S    
C14   H30   1.110023 S    
C17   C32   1.398581 A    
C29   C31   1.422827 A    
C38   C39   1.438056 A    
C24   C32   1.397509 A    
O8    Ba1   2.818740 S    
P5    O18   1.544616 D    
C8    C9    1.527175 S    
O32   H57   1.011922 S    
Ba1   O16   2.849972 S    
P1    O5    1.756927 S    
C7    H13   1.108764 S    
C47   H54   1.103603 S    
C48   O32   1.374697 S    
C4    O33   1.412594 S    
C49   H60   1.095722 S    
H1    C10   1.110116 S    
C9    H16   1.107200 S    
C17   C18   1.413094 A    
C48   O31   1.219265 D    
P5    O19   1.750157 S    
O14   Ba2   2.847288 S    
C5    H7    1.109889 S    
P4    C24   1.930461 S    
P1    O2    1.581821 S    
C7    H12   1.101690 S    
C13   C14   1.522666 S    
C33   C40   1.394962 A    
P3    C36   1.840404 S    
C16   H34   1.110832 S    
C19   C22   1.439854 A    
C15   H32   1.109288 S    
P6    C31   1.867902 S    
O30   C47   1.402642 S    
O17   Ba2   2.819331 S    
C25   C26   1.445481 A    
C27   O27   1.384168 S    
P1    Ba1   3.431544 S    
C1    H19   1.109082 S    
C4    C5    1.560398 S    
C20   H36   1.075504 S    
C1    H3    1.107725 S    
C33   C41   1.392800 A    
C43   H44   1.106076 S    
P2    O20   1.603284 S    
C14   H29   1.107772 S    
O5    C6    1.412268 S    
P2    O7    1.526364 D    
H33   C16   1.108793 S    
P3    O8    1.743172 S    
Ba1   O13   2.839216 S    
O26   C44   1.408165 S    
P3    O9    1.533795 D    
P4    O12   1.543756 D    
O6    P6    1.754366 S    
O7    Ba1   2.909876 S    
C45   H50   1.105102 S    
P8    C17   1.864461 S    
C38   C42   1.415033 A    
Ba2   O21   2.910199 S    
O25   C43   1.416559 S    
C21   H37   1.079309 S    
C39   C40   1.420688 A    
C15   O24   1.411414 S    
C46   O29   1.375518 S    
C10   H18   1.110431 S    
C44   H48   1.108232 S    
C37   C38   1.436120 A    
C16   H35   1.109745 S    
C12   H23   1.106479 S    
P8    O24   1.749522 S    
Ba1   O20   2.952619 S    
C14   H28   1.110309 S    
C45   H51   1.108791 S    
O2    Ba2   2.839978 S    
C34   C37   1.404643 A    
C5    H8    1.110612 S    
O29   H53   1.000642 S    
C44   H49   1.102635 S    
C28   C29   1.391047 A    
C4    O15   1.403188 S    
C7    H11   1.110807 S    
C3    H6    1.109604 S    
O27   C45   1.418768 S    
C11   H20   1.108510 S    
C3    H25   1.105510 S    
C35   C36   1.389090 A    
C22   C23   1.399166 A    
C6    C7    1.537835 S    
C6    O25   1.419864 S    
C4    C48   1.486394 S    
C8    H15   1.111188 S    
C29   C30   1.411729 A    
C34   C36   1.402750 A    
C32   H40   1.068406 S    
O33   C49   1.415246 S    
P7    O21   1.574454 D    
C12   H22   1.110588 S    
C43   H45   1.105109 S    
Ba2   O20   2.849419 S    
C11   O22   1.399139 S    
O16   Ba2   2.951847 S    
O1    Ba1   2.859095 S    
C19   C20   1.400801 A    
C9    H17   1.111051 S    
C2    O30   1.406111 S    
C27   C28   1.406787 A    
C18   C21   1.408568 A    
C1    C10   1.524134 S    
O19   C13   1.402995 S    
O6    C10   1.407569 S    
C20   C21   1.394005 A    
C49   H58   1.107019 S    
P2    C37   1.895723 S    
C26   C30   1.444442 A    
C23   C31   1.399699 A    
P4    Ba2   3.432112 S    
C18   C26   1.417864 A    
Ba1   Ba2   4.602601 S    
