data_mof_unit_67106.cif
_audit_creation_date              2012-12-11T17:44:24-0500
_audit_creation_method            fapswitch 2.2
_symmetry_space_group_name_H-M    P1
_symmetry_Int_Tables_number       1
_space_group_crystal_system       triclinic
_cell_length_a                    8.229506
_cell_length_b                    12.621786
_cell_length_c                    14.88187
_cell_angle_alpha                 96.019032
_cell_angle_beta                  97.259534
_cell_angle_gamma                 98.233355
_cell_volume                      1505.65101116

loop_
_atom_site_label
_atom_site_type_symbol
_atom_type_description
_atom_site_fract_x
_atom_site_fract_y
_atom_site_fract_z
_atom_type_partial_charge
Ba1   Ba    Ba6+2 0.843760 0.550230 0.455610 1.637406
Ba2   Ba    Ba6+2 0.346080 0.449860 0.544400 1.634917
C1    C     C_3   0.567358 0.891513 0.100690 -0.212288
C2    C     C_3   0.530283 0.815633 0.172386 0.306769
C3    C     C_3   0.435850 0.302966 0.260842 0.293331
C4    C     C_3   0.486092 0.294931 0.165604 -0.379046
C5    C     C_3   0.200483 0.192866 0.787146 0.474696
C6    C     C_3   0.273930 0.125992 0.856934 -0.310866
C7    C     C_3   0.666283 0.178159 0.750019 0.329000
C8    C     C_3   0.727477 0.087068 0.797173 -0.354243
C9    C     C_R   0.365931 0.564830 0.170345 -0.020949
C10   C     C_R   0.110262 0.473984 0.209429 0.067021
C11   C     C_R   0.916077 0.490467 0.769370 -0.336052
C12   C     C_3   0.043252 0.749856 0.201430 0.398442
C13   C     C_R   0.821956 0.442769 0.829419 0.053160
C14   C     C_R   0.892255 0.435114 0.918801 0.083939
C15   C     C_R   0.052600 0.495569 0.955044 -0.006432
C16   C     C_R   0.146950 0.546712 0.891888 -0.045761
C17   C     C_R   0.125061 0.505337 0.049870 0.011486
C18   C     C_R   0.293361 0.555610 0.077196 -0.015496
C19   C     C_R   0.382834 0.599586 0.012212 -0.107355
C20   C     C_R   0.308849 0.600121 0.923293 -0.052389
C21   C     C_R   0.035166 0.470541 0.119618 -0.175531
C22   C     C_R   0.273309 0.523644 0.234721 -0.279888
C23   C     C_3   0.990094 0.761075 0.101479 -0.352436
C24   C     C_R   0.079016 0.539426 0.797774 0.029302
C25   C     C_R   0.770721 0.178695 0.520769 -0.303042
C26   C     C_R   0.424506 0.805822 0.453913 -0.265940
C27   C     C_R   0.390584 0.984658 0.419019 -0.106164
C28   C     C_R   0.326259 0.876106 0.415733 -0.022562
C29   C     C_R   0.582134 0.844812 0.503786 0.088583
C30   C     C_R   0.648242 0.956495 0.508541 -0.060354
C31   C     C_R   0.550592 0.026620 0.465385 -0.052773
C32   C     C_R   0.613708 0.138069 0.473206 0.043643
C33   C     C_R   0.871989 0.110208 0.555697 0.021507
C34   C     C_3   0.270234 0.777056 0.644783 0.296664
C35   C     C_R   0.808809 0.001011 0.554535 -0.080780
C36   C     C_3   0.338480 0.896870 0.666007 -0.415222
C37   C     C_3   0.920317 0.214497 0.339211 0.279913
C38   C     C_3   0.870205 0.093986 0.309412 -0.371661
C39   C     C_3   0.824117 0.748780 0.742873 0.476406
C40   C     C_3   0.952083 0.843359 0.792103 -0.322439
H1    H     H_    0.526177 0.863654 0.238851 0.012379
H2    H     H_    0.460067 0.908841 0.710244 0.132924
H3    H     H_    0.353798 0.933156 0.602693 0.089081
H4    H     H_    0.251925 0.939742 0.701128 0.139816
H5    H     H_    0.813741 0.247306 0.362849 0.010061
H6    H     H_    0.026740 0.227853 0.395066 0.063755
H7    H     H_    0.752663 0.079503 0.261298 0.102931
H8    H     H_    0.850846 0.050503 0.368825 0.100649
H9    H     H_    0.968774 0.061457 0.275782 0.149052
H10   H     H_    0.886840 0.692065 0.702524 -0.009053
H11   H     H_    0.666959 0.959084 0.131137 0.102130
H12   H     H_    0.002118 0.892406 0.741495 0.108315
H13   H     H_    0.054721 0.814024 0.833254 0.081622
H14   H     H_    0.893408 0.895718 0.838865 0.109535
H15   H     H_    0.406831 0.766949 0.148589 -0.031030
H16   H     H_    0.302776 0.310494 0.255658 0.006083
H17   H     H_    0.510906 0.377448 0.299559 0.077478
H18   H     H_    0.400174 0.231752 0.119147 0.097908
H19   H     H_    0.481359 0.372018 0.136896 0.088658
H20   H     H_    0.614003 0.275737 0.168107 0.143291
H21   H     H_    0.614652 0.846421 0.043848 0.104863
H22   H     H_    0.927164 0.682072 0.064276 0.086572
H23   H     H_    0.301936 0.237051 0.757144 0.113530
H24   H     H_    0.353486 0.179077 0.915006 0.101275
H25   H     H_    0.172530 0.075458 0.882863 0.105391
H26   H     H_    0.350325 0.071853 0.824666 0.099211
H27   H     H_    0.775252 0.224399 0.726489 -0.016687
H28   H     H_    0.573362 0.143104 0.689556 0.031531
H29   H     H_    0.829621 0.120436 0.853469 0.146912
H30   H     H_    0.774002 0.031513 0.747262 0.098999
H31   H     H_    0.952509 0.685658 0.220337 0.124955
H32   H     H_    0.625928 0.040903 0.826163 0.102973
H33   H     H_    0.329968 0.527735 0.304924 0.068415
H34   H     H_    0.510651 0.637734 0.029915 0.091754
H35   H     H_    0.904838 0.443470 0.108274 0.112932
H36   H     H_    0.861464 0.488180 0.698967 0.080673
H37   H     H_    0.382892 0.642201 0.879321 0.115302
H38   H     H_    0.311401 0.035743 0.387527 0.095231
H39   H     H_    0.887614 0.953149 0.590072 0.106660
H40   H     H_    0.818054 0.264121 0.527266 0.067769
H41   H     H_    0.167285 0.724607 0.209005 -0.100237
H42   H     H_    0.372666 0.721532 0.450683 0.065490
H43   H     H_    0.903309 0.820290 0.094935 0.149723
H44   H     H_    0.099724 0.787067 0.068761 0.075032
H45   H     H_    0.362275 0.734874 0.614090 0.034483
H46   H     H_    0.154453 0.766407 0.595753 0.068536
O1    O     O_2   0.827930 0.435360 0.277760 -0.470633
O2    O     O_3   0.703007 0.791326 0.689223 -0.639278
O3    O     O_3   0.046258 0.847621 0.257142 -0.609342
O4    O     O_2   0.361790 0.564680 0.722290 -0.461299
O5    O     O_3   0.089410 0.561080 0.608830 -0.493868
O6    O     O_3   0.564100 0.365890 0.666740 -0.476801
O7    O     O_3   0.238852 0.737361 0.726144 -0.642312
O8    O     O_3   0.601940 0.368260 0.453780 -0.480233
O9    O     O_3   0.133140 0.308990 0.620990 -0.492146
O10   O     O_2   0.215292 0.114145 0.568613 -0.492802
O11   O     O_3   0.090195 0.121838 0.720790 -0.639522
O12   O     O_3   0.100310 0.439010 0.391180 -0.492675
O13   O     O_3   0.587770 0.631830 0.546230 -0.476027
O14   O     O_2   0.332600 0.233710 0.456170 -0.462359
O15   O     O_3   0.459704 0.208395 0.299550 -0.661076
O16   O     O_2   0.476004 0.424815 0.828356 -0.505816
O17   O     O_3   0.590594 0.241172 0.811203 -0.603593
O18   O     O_3   0.625610 0.634200 0.333270 -0.461000
O19   O     O_2   0.698137 0.552607 0.175030 -0.511765
O20   O     O_3   0.963932 0.263414 0.264239 -0.640514
O21   O     O_3   0.657893 0.752843 0.183446 -0.594059
O22   O     O_2   0.857120 0.766320 0.543890 -0.498185
O23   O     O_3   0.056570 0.691100 0.379020 -0.492715
O24   O     O_2   0.990464 0.884639 0.426664 -0.477030
P1    P     P_3+3 0.998770 0.403620 0.291990 0.970449
P2    P     P_3+3 0.687370 0.751000 0.571300 0.969509
P3    P     P_3+3 0.106077 0.827495 0.370704 0.947633
P4    P     P_3+3 0.190950 0.596470 0.708020 0.975087
P5    P     P_3+3 0.081478 0.167018 0.612989 0.923869
P6    P     P_3+3 0.583225 0.626408 0.214238 0.930921
P7    P     P_3+3 0.502735 0.235323 0.418814 0.934440
P8    P     P_3+3 0.611811 0.373634 0.784392 0.948478
N1    N     N_3   0.743761 0.693760 0.810985 -0.486716
H47   H     H_    0.669437 0.623272 0.777481 0.183672
H48   H     H_    0.833770 0.671068 0.858037 0.110902
C41   C     C_3   0.414387 0.935930 0.058775 -0.268560
C42   C     C_3   0.329233 0.993797 0.131018 -0.197612
C43   C     C_3   0.178026 0.037478 0.087906 -0.390052
H49   H     H_    0.214483 0.096345 0.041254 0.116876
H50   H     H_    0.085069 0.971445 0.048268 0.126550
H51   H     H_    0.119941 0.078565 0.142224 0.147039
H52   H     H_    0.287848 0.938064 0.179291 0.134571
H53   H     H_    0.419953 0.060863 0.170487 0.161577
H54   H     H_    0.454916 0.993730 0.011439 0.128350
H55   H     H_    0.325808 0.868759 0.017209 0.119695
N2    N     N_3   0.110520 0.268580 0.832983 -0.502243
H56   H     H_    0.061933 0.313441 0.784265 0.159851
H57   H     H_    0.195992 0.322903 0.880077 0.167321
N3    N     N_3   0.812666 0.348811 0.961299 -0.480281
H58   H     H_    0.897584 0.308630 0.997033 0.177878
H59   H     H_    0.722239 0.374495 0.998043 0.182454

loop_
_geom_bond_atom_site_label_1
_geom_bond_atom_site_label_2
_ccdc_geom_bond_type
C2    O21   S    
C3    O15   S    
C6    H24   S    
C43   H49   S    
C26   H42   S    
C1    H11   S    
C39   C40   S    
O8    P7    S    
C17   C18   A    
C16   C24   A    
C5    C6    S    
C34   H46   S    
N3    H59   S    
C10   C21   A    
C5    O11   S    
C3    H16   S    
C4    H19   S    
C33   C35   A    
C7    H27   S    
C20   H37   S    
C3    C4    S    
C40   H13   S    
C5    H23   S    
Ba2   O14   S    
C7    O17   S    
C13   C14   A    
C27   C31   A    
C9    C22   A    
C13   P8    S    
C41   H54   S    
Ba1   Ba2   S    
C39   N1    S    
C36   H3    S    
C40   H14   S    
Ba2   P4    S    
C42   H52   S    
C14   N3    S    
Ba2   O9    S    
C14   C15   A    
C2    H15   S    
Ba1   O1    S    
O17   P8    S    
C7    C8    S    
O22   P2    D    
C39   H10   S    
Ba1   O18   S    
C8    H29   S    
C39   O2    S    
Ba2   O12   S    
C34   H45   S    
C19   C20   A    
O18   P6    S    
O13   P2    S    
C35   H39   S    
Ba1   P1    S    
C12   H41   S    
Ba1   O12   S    
O21   P6    S    
C31   C32   A    
C28   P3    S    
C25   H40   S    
C25   C32   A    
C37   O20   S    
O1    P1    D    
C9    C18   A    
C36   H4    S    
C3    H17   S    
C12   H31   S    
C4    H18   S    
Ba2   O6    S    
C7    H28   S    
C5    N2    S    
C37   C38   S    
N2    H57   S    
Ba2   O13   S    
C25   C33   A    
Ba2   O8    S    
O5    P4    S    
O20   P1    S    
C17   C21   A    
C26   C29   A    
C36   H2    S    
C27   C28   A    
Ba1   O22   S    
O11   P5    S    
C42   H53   S    
C29   C30   A    
C19   H34   S    
O7    P4    S    
C23   H43   S    
C15   C16   A    
C30   C35   A    
C21   H35   S    
Ba2   O4    S    
O4    P4    D    
N1    H47   S    
C41   H55   S    
C6    H26   S    
C11   C13   A    
C42   C43   S    
C11   C24   A    
C33   P5    S    
Ba1   P2    S    
C1    C2    S    
Ba1   O13   S    
C1    C41   S    
O10   P5    D    
C37   H5    S    
C10   P1    S    
C32   P7    S    
C29   P2    S    
C11   H36   S    
C43   H50   S    
O19   P6    D    
C16   C20   A    
Ba2   O5    S    
O15   P7    S    
O12   P1    S    
C22   H33   S    
N2    H56   S    
C2    H1    S    
C1    H21   S    
C38   H9    S    
N3    H58   S    
C10   C22   A    
O6    P8    S    
C43   H51   S    
C30   C31   A    
C4    H20   S    
C34   C36   S    
Ba1   O23   S    
C8    H32   S    
C34   O7    S    
C27   H38   S    
Ba1   O8    S    
C38   H8    S    
C26   C28   A    
C23   H44   S    
C15   C17   A    
O3    P3    S    
O2    P2    S    
C12   C23   S    
O9    P5    S    
C24   P4    S    
C12   O3    S    
N1    H48   S    
C18   C19   A    
C6    H25   S    
Ba1   O5    S    
C41   C42   S    
O23   P3    S    
C9    P6    S    
C23   H22   S    
O24   P3    D    
C40   H12   S    
O14   P7    D    
C38   H7    S    
C37   H6    S    
O16   P8    D    
C8    H30   S    
