data_mof_unit_24195.cif
_audit_creation_date              2012-12-11T15:39:28-0500
_audit_creation_method            fapswitch 2.2
_symmetry_space_group_name_H-M    P1
_symmetry_Int_Tables_number       1
_space_group_crystal_system       triclinic
_cell_length_a                    14.255075
_cell_length_b                    14.817256
_cell_length_c                    33.22806
_cell_angle_alpha                 98.21966
_cell_angle_beta                  90.196356
_cell_angle_gamma                 118.764153
_cell_volume                      6068.10583335

loop_
_atom_site_label
_atom_site_type_symbol
_atom_type_description
_atom_site_fract_x
_atom_site_fract_y
_atom_site_fract_z
_atom_type_partial_charge
C1    C     C_R   0.617880 0.909787 0.437176 0.556312
C2    C     C_R   0.710869 0.433587 0.949965 0.559191
C3    C     C_R   0.561075 0.817769 0.772493 0.192796
C4    C     C_R   0.575850 0.836027 0.731848 0.129542
C5    C     C_R   0.637834 0.801436 0.707892 0.024365
C6    C     C_R   0.683962 0.747600 0.724234 0.107555
C7    C     C_R   0.670223 0.731761 0.764735 -0.132230
C8    C     C_R   0.609852 0.766517 0.788899 0.031373
C9    C     C_R   0.574722 0.741149 0.634484 -0.065506
C10   C     C_R   0.568253 0.763664 0.595436 0.132234
C11   C     C_R   0.716958 0.939270 0.617542 -0.146533
C12   C     C_3   0.988704 0.598496 0.215245 -0.282750
C13   C     C_R   0.709769 0.740225 0.950527 0.580844
C14   C     C_3   0.430390 0.849600 0.288494 -0.291607
C15   C     C_3   0.207415 0.084022 0.421235 -0.292924
C16   C     C_3   0.951233 0.429769 0.090493 -0.278431
C17   C     C_3   0.988718 0.879487 0.314856 -0.281689
C18   C     C_3   0.948537 0.082997 0.194507 -0.315389
C19   C     C_3   0.917361 0.104297 0.344048 -0.328103
C20   C     C_3   0.419253 0.642312 0.388859 -0.268221
C21   C     C_3   0.943175 0.358964 0.886650 -0.318572
C22   C     C_3   0.406161 0.322285 0.640118 -0.304237
C23   C     C_3   0.425999 0.279587 0.802902 -0.298413
C24   C     C_R   0.829957 0.467272 0.171336 0.097778
C25   C     C_3   0.430299 0.339569 0.913743 -0.274334
C26   C     C_3   0.233618 0.979321 0.945571 -0.307466
C27   C     C_3   0.041526 0.547427 0.616125 -0.242525
C28   C     C_3   0.708292 0.146346 0.287288 -0.261859
C29   C     C_3   0.330387 0.003541 0.713826 -0.268796
C30   C     C_3   0.588383 0.997983 0.717271 -0.281255
C31   C     C_3   0.391662 0.775303 0.800452 -0.321310
C32   C     C_3   0.388550 0.504776 0.833174 -0.321418
C33   C     C_3   0.701977 0.601241 0.690427 -0.306126
C34   C     C_3   0.533111 0.642325 0.532842 -0.296244
C35   C     C_R   0.833363 0.475435 0.129655 0.076657
C36   C     C_3   0.449048 0.300480 0.325647 -0.287655
C37   C     C_R   0.695489 0.313115 0.240179 0.238024
C38   C     C_R   0.685786 0.295642 0.280616 0.165157
C39   C     C_R   0.712867 0.379614 0.312514 -0.028393
C40   C     C_R   0.747207 0.480013 0.304271 -0.075976
C41   C     C_R   0.753700 0.498843 0.264272 0.217524
C42   C     C_R   0.729170 0.415163 0.231850 0.016842
C43   C     C_R   0.731877 0.431692 0.189210 -0.038795
C44   C     C_R   0.602878 0.352266 0.372235 0.147952
C45   C     C_R   0.594389 0.206123 0.456965 0.542327
C46   C     C_R   0.574847 0.309451 0.408040 -0.120374
C47   C     C_R   0.733712 0.288938 0.409397 -0.137636
C48   C     C_R   0.763000 0.333085 0.374199 -0.130799
C49   C     C_R   0.695231 0.359658 0.354401 0.081683
C50   C     C_R   0.636747 0.272173 0.425408 0.000976
C51   C     C_R   0.252961 0.879252 0.392020 -0.026162
C52   C     C_R   0.191234 0.925046 0.381203 0.131668
C53   C     C_R   0.166999 0.921546 0.339354 0.156828
C54   C     C_R   0.723202 0.915050 0.656068 -0.129470
C55   C     C_R   0.210941 0.879297 0.309186 0.031775
C56   C     C_R   0.271584 0.833393 0.320167 0.107898
C57   C     C_R   0.295676 0.892525 0.434344 0.533576
C58   C     C_R   0.289987 0.832301 0.361185 -0.126466
C59   C     C_R   0.203564 0.815042 0.162249 -0.121000
C60   C     C_R   0.172446 0.790619 0.120576 -0.125771
C61   C     C_R   0.091894 0.903086 0.129441 -0.123442
C62   C     C_R   0.122263 0.926597 0.171264 -0.106980
C63   C     C_R   0.174829 0.879723 0.187805 0.036765
C64   C     C_1   0.188175 0.886983 0.231088 -0.035936
C65   C     C_R   0.648432 0.817976 0.665193 0.022113
C66   C     C_1   0.197712 0.886084 0.266948 -0.002814
C67   C     C_R   0.112383 0.830977 0.104062 0.024771
C68   C     C_R   0.644204 0.878698 0.396273 -0.036235
C69   C     C_R   0.614537 0.905080 0.551527 0.546578
C70   C     C_R   0.595510 0.774822 0.375576 0.155132
C71   C     C_R   0.615262 0.754462 0.334520 0.237171
C72   C     C_R   0.684318 0.838902 0.314787 0.000281
C73   C     C_R   0.743778 0.940543 0.337194 0.103729
C74   C     C_R   0.719703 0.959198 0.377099 -0.144017
C75   C     C_R   0.790454 0.905652 0.177891 0.161491
C76   C     C_R   0.635748 0.866628 0.587443 0.025776
C77   C     C_R   0.799789 0.899643 0.135507 -0.101623
C78   C     C_R   0.623115 0.746818 0.123036 -0.130458
C79   C     C_R   0.613266 0.751786 0.164797 -0.140731
C80   C     C_R   0.698144 0.827681 0.192166 0.050803
C81   C     C_R   0.589852 0.199565 0.571409 0.582377
C82   C     C_1   0.690193 0.824190 0.234975 -0.018915
C83   C     C_1   0.686169 0.825944 0.271142 -0.037927
C84   C     C_R   0.718696 0.817225 0.108102 -0.010103
C85   C     C_R   0.621605 0.247008 0.615600 0.023018
C86   C     C_R   0.556886 0.280736 0.638552 0.117015
C87   C     C_R   0.052444 0.781618 0.063724 0.537733
C88   C     C_R   0.566086 0.291619 0.681375 -0.132436
C89   C     C_R   0.640352 0.274271 0.701530 -0.042360
C90   C     C_R   0.714624 0.254173 0.679436 0.228780
C91   C     C_R   0.705746 0.241550 0.636309 0.251821
C92   C     C_R   0.749392 0.329971 0.845224 -0.126855
C93   C     C_R   0.289644 0.887849 0.548909 0.554145
C94   C     C_R   0.766614 0.356253 0.887930 0.101503
C95   C     C_R   0.577135 0.308936 0.891068 0.117370
C96   C     C_R   0.560083 0.276341 0.848126 0.158745
C97   C     C_R   0.649135 0.296121 0.825432 0.011051
C98   C     C_R   0.744079 0.486705 0.066328 0.591561
C99   C     C_1   0.640913 0.283456 0.781580 -0.009736
C100  C     C_1   0.639122 0.278246 0.745083 -0.053483
C101  C     C_R   0.683348 0.360691 0.910208 0.014460
C102  C     C_R   0.059365 0.746193 0.906313 0.017629
C103  C     C_R   0.103960 0.844618 0.893493 0.134234
C104  C     C_R   0.115461 0.850140 0.851322 0.251140
C105  C     C_R   0.738147 0.451279 0.106310 0.005864
C106  C     C_R   0.077563 0.756968 0.822972 0.041661
C107  C     C_R   0.040649 0.661513 0.836584 -0.196016
C108  C     C_R   0.033017 0.656468 0.877792 -0.182208
C109  C     C_R   0.743141 0.789056 0.066640 0.541458
C110  C     C_R   0.122832 0.707998 0.753932 -0.135310
C111  C     C_R   0.132624 0.718529 0.713005 -0.125340
C112  C     C_R   0.095028 0.778131 0.696451 0.042460
C113  C     C_R   0.041447 0.821613 0.720392 -0.075084
C114  C     C_R   0.032447 0.811783 0.761453 -0.046572
C115  C     C_R   0.077029 0.758454 0.778799 0.066152
C116  C     C_R   0.202896 0.913058 0.654812 0.145822
C117  C     C_R   0.638477 0.407562 0.123722 0.253202
C118  C     C_R   0.246891 0.941349 0.618124 0.177160
C119  C     C_R   0.138422 0.760186 0.584118 0.218665
C120  C     C_R   0.020947 0.731198 0.947143 0.560329
C121  C     C_R   0.093431 0.732308 0.620936 0.152325
C122  C     C_R   0.127727 0.808356 0.656457 -0.039256
C123  C     C_R   0.220874 0.863748 0.583289 -0.046941
C124  C     C_R   0.659117 0.747316 0.913120 -0.007276
C125  C     C_R   0.591852 0.656452 0.885815 -0.164507
C126  C     C_R   0.563233 0.661204 0.846081 0.087985
C127  C     C_R   0.610220 0.759254 0.832796 0.061003
C128  C     C_R   0.671558 0.851681 0.860827 0.246005
C129  C     C_R   0.635328 0.400410 0.165553 0.207556
C130  C     C_R   0.690460 0.845553 0.901973 0.221696
Cr1   Cr    Cr6+3 0.424820 0.846020 0.489780 1.014112
Cr2   Cr    Cr6+3 0.657880 0.078580 0.505700 1.049975
Cr3   Cr    Cr6+3 0.417280 0.075360 0.504550 1.006300
Cr4   Cr    Cr6+3 0.903360 0.812540 0.006510 1.057354
Cr5   Cr    Cr6+3 0.914630 0.587050 0.006280 1.018613
Cr6   Cr    Cr6+3 0.673560 0.582680 0.008540 1.036308
H1    H     H_    0.500912 0.299178 0.420580 0.118880
H2    H     H_    0.541224 0.693375 0.175795 0.124641
H3    H     H_    0.446127 0.859678 0.720001 0.243106
H4    H     H_    0.556353 0.036998 0.739751 0.126864
H5    H     H_    0.583403 0.019728 0.687048 0.181988
H6    H     H_    0.674270 0.027324 0.726949 0.175531
H7    H     H_    0.506848 0.923206 0.791904 0.269019
H8    H     H_    0.350977 0.809624 0.820635 0.159074
H9    H     H_    0.390122 0.710047 0.813652 0.157218
H10   H     H_    0.347275 0.744823 0.769775 0.121549
H11   H     H_    0.488392 0.572799 0.788811 0.246777
H12   H     H_    0.338696 0.436514 0.809303 0.126447
H13   H     H_    0.558924 0.682986 0.102561 0.140251
H14   H     H_    0.346967 0.551684 0.839357 0.140383
H15   H     H_    0.395722 0.475255 0.861210 0.144187
H16   H     H_    0.782154 0.751892 0.677110 0.255034
H17   H     H_    0.760158 0.582365 0.674401 0.145690
H18   H     H_    0.627590 0.568884 0.669832 0.138841
H19   H     H_    0.683113 0.563860 0.718178 0.154214
H20   H     H_    0.427363 0.692928 0.557011 0.284286
H21   H     H_    0.466151 0.573962 0.513400 0.135770
H22   H     H_    0.587230 0.616669 0.545268 0.150909
H23   H     H_    0.578079 0.702785 0.513658 0.156753
H24   H     H_    0.835368 0.340825 0.361015 0.104769
H25   H     H_    0.784396 0.995934 0.863911 0.327671
H26   H     H_    0.546534 0.375550 0.212194 0.336153
H27   H     H_    0.772259 0.600946 0.229236 0.327842
H28   H     H_    0.508230 0.422329 0.374102 0.244368
H29   H     H_    0.403268 0.332302 0.311325 0.154708
H30   H     H_    0.393591 0.237955 0.342345 0.128603
H31   H     H_    0.480949 0.266778 0.301014 0.172676
H32   H     H_    0.813876 0.336147 0.826727 0.116773
H33   H     H_    0.514796 0.312818 0.699639 0.118211
H34   H     H_    0.997942 0.580502 0.886999 0.173199
H35   H     H_    0.175223 0.685570 0.694893 0.109821
H36   H     H_    0.155387 0.664585 0.766645 0.094716
H37   H     H_    0.011703 0.867439 0.707783 0.122658
H38   H     H_    0.993584 0.848282 0.779969 0.147782
H39   H     H_    0.783876 0.262584 0.422639 0.127327
H40   H     H_    0.013156 0.589773 0.815074 0.119336
H41   H     H_    0.567100 0.581297 0.894541 0.135827
H42   H     H_    0.781784 0.974408 0.679575 0.128574
H43   H     H_    0.709747 0.694802 0.777987 0.136382
H44   H     H_    0.518422 0.665013 0.641463 0.118263
H45   H     H_    0.771220 0.017772 0.612405 0.163088
H46   H     H_    0.765153 0.543466 0.329100 0.158923
H47   H     H_    0.481393 0.341884 0.114465 0.374397
H48   H     H_    0.968998 0.458137 0.182472 0.252333
H49   H     H_    0.071307 0.631916 0.205135 0.112744
H50   H     H_    0.189076 0.734746 0.101788 0.124352
H51   H     H_    0.993933 0.601202 0.248760 0.178281
H52   H     H_    0.954216 0.648243 0.208204 0.166278
H53   H     H_    0.273808 0.759127 0.262034 0.249401
H54   H     H_    0.457996 0.806299 0.266003 0.154621
H55   H     H_    0.473690 0.864561 0.318644 0.155795
H56   H     H_    0.450464 0.925162 0.278777 0.147034
H57   H     H_    0.127772 0.934862 0.437231 0.249263
H58   H     H_    0.252435 0.110201 0.451746 0.158854
H59   H     H_    0.148663 0.113048 0.421764 0.126543
H60   H     H_    0.265187 0.119520 0.398283 0.141810
H61   H     H_    0.244277 0.778402 0.174890 0.101900
H62   H     H_    0.999233 0.568877 0.130188 0.260008
H63   H     H_    0.958991 0.383224 0.112387 0.119297
H64   H     H_    0.026440 0.464949 0.074898 0.136793
H65   H     H_    0.883912 0.377216 0.067092 0.158149
H66   H     H_    0.102916 0.022673 0.346645 0.262700
H67   H     H_    0.943772 0.914427 0.302355 0.149192
H68   H     H_    0.948917 0.843560 0.341480 0.166618
H69   H     H_    0.985984 0.818021 0.290641 0.176816
H70   H     H_    0.908924 0.956632 0.225618 0.244860
H71   H     H_    0.994835 0.140407 0.222103 0.146574
H72   H     H_    0.339329 0.799320 0.368975 0.141722
H73   H     H_    0.903517 0.113779 0.178928 0.166450
H74   H     H_    0.006014 0.073850 0.174143 0.128312
H75   H     H_    0.838106 0.006813 0.289590 0.270718
H76   H     H_    0.977837 0.153821 0.324504 0.134892
H77   H     H_    0.953166 0.067416 0.361084 0.153245
H78   H     H_    0.897993 0.156368 0.365548 0.141882
H79   H     H_    0.560147 0.635829 0.393823 0.269148
H80   H     H_    0.394659 0.609010 0.356022 0.186205
H81   H     H_    0.391764 0.699870 0.398029 0.174367
H82   H     H_    0.379389 0.578428 0.407061 0.115785
H83   H     H_    0.099509 0.976433 0.190965 0.117027
H84   H     H_    0.594667 0.647000 0.288326 0.349455
H85   H     H_    0.856103 0.353810 0.936765 0.260276
H86   H     H_    0.012827 0.378333 0.907988 0.137434
H87   H     H_    0.974147 0.409326 0.862852 0.136387
H88   H     H_    0.906412 0.275289 0.872718 0.150780
H89   H     H_    0.796215 0.259447 0.728406 0.327640
H90   H     H_    0.833092 0.222952 0.631514 0.360452
H91   H     H_    0.515522 0.347507 0.595386 0.248691
H92   H     H_    0.350975 0.328100 0.618266 0.138271
H93   H     H_    0.447781 0.397060 0.661768 0.117415
H94   H     H_    0.044910 0.934647 0.117665 0.122764
H95   H     H_    0.357137 0.256758 0.656636 0.166459
H96   H     H_    0.393670 0.173662 0.843595 0.255917
H97   H     H_    0.350318 0.277409 0.812186 0.124211
H98   H     H_    0.412738 0.242510 0.770450 0.146762
H99   H     H_    0.489735 0.362574 0.805727 0.174586
H100  H     H_    0.439194 0.203747 0.913918 0.235073
H101  H     H_    0.375810 0.309274 0.885493 0.123538
H102  H     H_    0.486061 0.423918 0.915140 0.168800
H103  H     H_    0.380796 0.329490 0.940171 0.142741
H104  H     H_    0.115965 0.990624 0.912530 0.255476
H105  H     H_    0.873551 0.953372 0.124021 0.124159
H106  H     H_    0.245276 0.046505 0.968759 0.151140
H107  H     H_    0.299435 0.006934 0.924899 0.126718
H108  H     H_    0.237187 0.920112 0.961649 0.158611
H109  H     H_    0.955283 0.618461 0.642870 0.241924
H110  H     H_    0.037484 0.517199 0.645166 0.116354
H111  H     H_    0.124445 0.576725 0.606466 0.170394
H112  H     H_    0.985015 0.482120 0.592465 0.183617
H113  H     H_    0.565239 0.142493 0.272755 0.272141
H114  H     H_    0.666543 0.069799 0.297911 0.161034
H115  H     H_    0.783330 0.197517 0.307248 0.157463
H116  H     H_    0.757469 0.038822 0.392924 0.154356
H117  H     H_    0.728736 0.133589 0.255515 0.197073
H118  H     H_    0.208333 0.001236 0.859123 0.318104
H119  H     H_    0.244391 0.060334 0.685892 0.266887
H120  H     H_    0.346033 0.058099 0.742756 0.157711
H121  H     H_    0.401978 0.036342 0.696060 0.174306
H122  H     H_    0.316745 0.927981 0.721606 0.155541
H123  H     H_    0.296966 0.068671 0.597033 0.346098
H124  H     H_    0.115483 0.718309 0.525104 0.325267
H125  H     H_    0.692169 0.250618 0.183564 0.334395
H126  H     H_    0.727934 0.988511 0.923846 0.326649
N1    N     N_2   0.924490 0.490937 0.195402 -0.513010
N2    N     N_2   0.483486 0.302633 0.617929 -0.476946
N3    N     N_2   0.454709 0.222257 0.827741 -0.513135
N4    N     N_2   0.488860 0.282987 0.915722 -0.495681
N5    N     N_2   0.130644 0.935621 0.922643 -0.507365
N6    N     N_2   0.010536 0.628027 0.621622 -0.474424
N7    N     N_2   0.638253 0.191778 0.289154 -0.504456
N8    N     N_2   0.237069 0.990053 0.690715 -0.493866
N9    N     N_2   0.525261 0.885633 0.714237 -0.528748
N10   N     N_2   0.501079 0.854151 0.797489 -0.473929
N11   N     N_2   0.493291 0.566799 0.819153 -0.528554
N12   N     N_2   0.315573 0.788258 0.290421 -0.518644
N13   N     N_2   0.748440 0.713320 0.701115 -0.523991
N14   N     N_2   0.490263 0.682328 0.565805 -0.526962
N15   N     N_2   0.535674 0.383381 0.353408 -0.511173
N16   N     N_2   0.150201 0.970918 0.411873 -0.515790
N17   N     N_2   0.933206 0.511765 0.111655 -0.474435
N18   N     N_2   0.098408 0.959780 0.327227 -0.521561
N19   N     N_2   0.875051 0.984278 0.206575 -0.533444
N20   N     N_2   0.821967 0.025207 0.318842 -0.533517
N21   N     N_2   0.534451 0.690550 0.396873 -0.496587
N22   N     N_2   0.865660 0.378546 0.908839 -0.490208
O1    O     O_R   0.318160 0.824460 0.443680 -0.533193
O2    O     O_R   0.668160 0.499860 0.053480 -0.451281
O3    O     O_R   0.689170 0.693840 0.050110 -0.500773
O4    O     O_R   0.525040 0.857250 0.449830 -0.482538
O5    O     O_R   0.803860 0.812940 0.962540 -0.441070
O6    O     O_R   0.982950 0.787950 0.964120 -0.462643
O7    O     O_R   0.007050 0.649970 0.960540 -0.517670
O8    O     O_R   0.807910 0.482370 0.965590 -0.496966
O9    O     O_R   0.643310 0.460980 0.963840 -0.489877
O10   O     O_R   0.666140 0.657800 0.967020 -0.526108
O11   O     O_3   0.830520 0.660760 0.007110 -0.259635
O12   O     O_R   0.645130 0.163230 0.552140 -0.434601
O13   O     O_R   0.684760 0.998800 0.456360 -0.530516
O14   O     O_R   0.647540 0.166310 0.470260 -0.504978
O15   O     O_R   0.500960 0.181750 0.467450 -0.530983
O16   O     O_R   0.331100 0.981120 0.457080 -0.492932
O17   O     O_R   0.315560 0.821140 0.532010 -0.502291
O18   O     O_R   0.522630 0.854180 0.531710 -0.498273
O19   O     O_R   0.682160 0.995480 0.544690 -0.496110
O20   O     O_3   0.545448 0.373889 0.099013 -0.670290
O21   O     O_3   0.564553 0.651935 0.314825 -0.704314
O22   O     O_3   0.794051 0.242676 0.698422 -0.745710
O23   O     O_R   0.498360 0.178430 0.555780 -0.495682
O24   O     O_3   0.776462 0.220930 0.613523 -0.688488
O25   O     O_3   0.163248 0.943937 0.836761 -0.724166
O26   O     O_3   0.323116 0.043785 0.618343 -0.684180
O27   O     O_3   0.099505 0.684266 0.549660 -0.674240
O28   O     O_3   0.667457 0.227781 0.209893 -0.702653
O29   O     O_3   0.742086 0.933647 0.931438 -0.690435
O30   O     O_3   0.718160 0.945666 0.846402 -0.699495
O31   O     O_3   0.536886 0.362600 0.182060 -0.706456
O32   O     O_3   0.781401 0.599007 0.258542 -0.726313
O33   O     O_R   0.328690 0.978040 0.538950 -0.493186
O34   O     O_3   0.499990 0.999990 0.500010 -0.244177
O35   O     O_R   0.828710 0.851830 0.052170 -0.515287
O36   O     O_R   0.005980 0.823990 0.047210 -0.505043
O37   O     O_R   0.031900 0.688850 0.050170 -0.505458
O38   O     O_R   0.830940 0.518420 0.048680 -0.481165

loop_
_geom_bond_atom_site_label_1
_geom_bond_atom_site_label_2
_ccdc_geom_bond_type
C73   N20   S    
C126  C127  A    
C93   O33   A    
Cr1   O18   S    
C11   H45   S    
C57   O16   A    
H126  O29   S    
C114  C115  A    
C54   C65   A    
C13   O10   A    
C18   H74   S    
C26   N5    S    
C11   C76   A    
C5    C6    A    
C86   C88   A    
C106  C107  A    
H90   O24   S    
C96   N3    S    
C1    C68   S    
C73   C74   A    
C37   C42   A    
C110  C111  A    
Cr3   O23   S    
C23   H98   S    
H62   N17   S    
C41   O32   S    
C22   N2    S    
C87   O36   A    
C51   C57   S    
C103  N5    S    
C130  O29   S    
C59   C60   A    
C86   N2    S    
C44   C46   A    
H91   N2    S    
C15   N16   S    
C51   C52   A    
C61   C67   A    
C3    C8    A    
C69   O18   A    
Cr1   O1    S    
C13   C124  S    
C72   C73   A    
C95   N4    S    
C29   H121  S    
C54   H42   S    
C64   C66   T    
C37   C38   A    
C27   H111  S    
C92   H32   S    
C27   N6    S    
C25   H101  S    
C92   C94   A    
C61   H94   S    
C124  C130  A    
Cr6   O10   S    
C15   H60   S    
C56   N12   S    
C87   O37   A    
C88   H33   S    
C21   H87   S    
C78   C79   A    
H85   N22   S    
C93   C123  S    
C4    C5    A    
Cr4   O35   S    
C6    C7    A    
C119  C123  A    
C59   C63   A    
C106  C115  S    
C62   H83   S    
C28   H115  S    
Cr3   O33   S    
C45   O14   A    
H89   O22   S    
C45   C50   S    
C12   H49   S    
C116  C118  A    
C38   N7    S    
C9    C65   A    
H20   N14   S    
C17   N18   S    
C31   H9    S    
C114  H38   S    
C32   H14   S    
C88   C89   A    
Cr1   O34   S    
C31   N10   S    
C24   C43   A    
C120  O7    A    
C1    O4    A    
C53   N18   S    
C108  H34   S    
C20   H81   S    
C111  C112  A    
Cr4   O5    S    
C7    C8    A    
C85   C86   A    
Cr5   O38   S    
C48   H24   S    
C30   H5    S    
Cr2   O14   S    
C77   H105  S    
C38   C39   A    
C33   H17   S    
C22   H92   S    
C107  H40   S    
C25   H103  S    
C68   C74   A    
C69   C76   S    
C2    O8    A    
C17   H67   S    
Cr5   O11   S    
C15   H58   S    
C47   C48   A    
C60   C67   A    
Cr2   O19   S    
C107  C108  A    
C20   N21   S    
C117  C129  A    
C9    C10   A    
C16   H64   S    
C14   H56   S    
C34   H23   S    
C2    O9    A    
C92   C97   A    
C47   C50   A    
C119  C121  A    
Cr2   O34   S    
C43   C129  A    
C28   H117  S    
C80   C82   S    
Cr6   O9    S    
C39   C40   A    
C57   O1    A    
C26   H107  S    
C77   C84   A    
C12   H51   S    
C23   N3    S    
C18   H71   S    
C19   H77   S    
C35   C105  A    
C75   C77   A    
C14   N12   S    
C58   H72   S    
C16   H63   S    
H11   N11   S    
C11   C54   A    
C46   H1    S    
C39   C49   S    
H28   N15   S    
C3    C4    A    
C52   C53   A    
C81   O23   A    
C69   O19   A    
Cr1   O17   S    
C10   N14   S    
C33   H19   S    
C127  C128  A    
C84   C109  S    
C99   C100  T    
C17   H69   S    
C71   C72   A    
C18   N19   S    
C24   N1    S    
C36   H29   S    
Cr3   O16   S    
C56   C58   A    
C111  H35   S    
C61   C62   A    
C28   H114  S    
H47   O20   S    
C63   C64   S    
C14   H54   S    
C34   H21   S    
Cr6   O3    S    
C47   H39   S    
C95   C101  A    
C78   H13   S    
H119  N8    S    
C110  H36   S    
C55   C56   A    
C41   C42   A    
C120  O6    A    
C104  C106  A    
C25   N4    S    
C116  C122  A    
C109  O35   A    
C20   H80   S    
C1    O13   A    
C81   O12   A    
Cr1   O4    S    
H123  O26   S    
C70   N21   S    
H96   N3    S    
C32   N11   S    
C22   H95   S    
C70   C71   A    
Cr5   O8    S    
C15   H59   S    
C4    N9    S    
C119  O27   S    
H100  N4    S    
C105  C117  A    
C116  N8    S    
C40   H46   S    
C129  O31   S    
C21   H86   S    
C89   C100  S    
H113  N7    S    
C18   H73   S    
Cr4   O36   S    
C33   N13   S    
C34   N14   S    
C36   H31   S    
C19   H76   S    
C62   C63   A    
C26   H106  S    
C94   N22   S    
C51   C58   A    
C121  C122  A    
C48   C49   A    
C118  O26   S    
C125  C126  A    
C42   C43   S    
C16   H65   S    
C55   C66   S    
C102  C120  S    
C52   N16   S    
C113  C114  A    
H57   N16   S    
C75   N19   S    
C28   N7    S    
C37   O28   S    
C20   H82   S    
Cr4   O6    S    
H16   N13   S    
C128  C130  A    
C74   H116  S    
H48   N1    S    
C32   H12   S    
Cr5   O37   S    
C29   H122  S    
C30   H6    S    
C27   H112  S    
H66   N18   S    
C90   C91   A    
C22   H93   S    
C25   H102  S    
C128  O30   S    
C118  C123  A    
H26   O31   S    
C72   C83   S    
H84   O21   S    
Cr2   O12   S    
C79   H2    S    
C82   C83   T    
C103  C104  A    
H118  O25   S    
C89   C90   A    
C110  C115  A    
C44   C49   A    
H53   N12   S    
C13   O5    A    
C21   H88   S    
H125  O28   S    
C95   C96   A    
Cr6   O2    S    
C71   O21   S    
C85   C91   A    
C98   C105  S    
C35   N17   S    
C29   N8    S    
C45   O15   A    
C93   O17   A    
C21   N22   S    
Cr3   O34   S    
C16   N17   S    
C26   H108  S    
C12   H52   S    
H25   O30   S    
C117  O20   S    
C29   H120  S    
C31   H8    S    
Cr4   O11   S    
C31   H10   S    
C10   C76   A    
C94   C101  A    
H70   N19   S    
C102  C108  A    
C75   C80   A    
C91   O24   S    
H104  N5    S    
C102  C103  A    
C121  N6    S    
C112  C113  A    
C97   C99   S    
C53   C55   A    
C24   C35   A    
C30   H4    S    
Cr2   O13   S    
H7    N10   S    
C5    C65   S    
C27   H110  S    
C33   H18   S    
C2    C101  S    
H3    N9    S    
C3    N10   S    
C12   N1    S    
C23   H97   S    
C17   H68   S    
C112  C122  S    
Cr6   O11   S    
C8    C127  S    
C44   N15   S    
C96   C97   A    
C36   H30   S    
C104  O25   S    
Cr3   O15   S    
C7    H43   S    
H75   N20   S    
C6    N13   S    
C9    H44   S    
C14   H55   S    
C34   H22   S    
C40   C41   A    
C126  N11   S    
H124  O27   S    
C125  H41   S    
H79   N21   S    
H109  N6    S    
C113  H37   S    
C19   N20   S    
C60   H50   S    
C30   N9    S    
H27   O32   S    
C90   O22   S    
C46   C50   A    
C67   C87   S    
C19   H78   S    
C23   H99   S    
C32   H15   S    
C59   H61   S    
C81   C85   S    
C36   N15   S    
C79   C80   A    
C109  O3    A    
C78   C84   A    
C98   O38   A    
C68   C70   A    
Cr5   O7    S    
C98   O2    A    
C124  C125  A    
