data_mof_unit_15914.cif
_audit_creation_date              2012-12-11T14:03:22-0500
_audit_creation_method            fapswitch 2.2
_symmetry_space_group_name_H-M    P1
_symmetry_Int_Tables_number       1
_space_group_crystal_system       triclinic
_cell_length_a                    7.015723
_cell_length_b                    11.545449
_cell_length_c                    19.051256
_cell_angle_alpha                 90.000282
_cell_angle_beta                  92.799804
_cell_angle_gamma                 90.000244
_cell_volume                      1541.30344304

loop_
_atom_site_label
_atom_site_type_symbol
_atom_type_description
_atom_site_fract_x
_atom_site_fract_y
_atom_site_fract_z
_atom_type_partial_charge
O1    O     O_R   0.330540 0.606360 0.598870 -0.541155
O2    O     O_R   0.669460 0.106360 0.401130 -0.541161
O3    O     O_R   0.026770 0.620470 0.750430 -0.553783
O4    O     O_R   0.973230 0.120470 0.249570 -0.553780
O5    O     O_R   0.856460 0.393640 0.750930 -0.522222
O6    O     O_R   0.143540 0.893640 0.249070 -0.522225
C1    C     C_R   0.198370 0.644238 0.774938 0.638583
C2    C     C_R   0.801629 0.144244 0.225065 0.638511
O7    O     O_R   0.000920 0.620350 0.599420 -0.544083
O8    O     O_R   0.999080 0.120350 0.400580 -0.544064
O9    O     O_R   0.830430 0.393520 0.598850 -0.515736
O10   O     O_R   0.169570 0.893520 0.401150 -0.515687
C3    C     C_R   0.167275 0.649908 0.576052 0.733216
C4    C     C_R   0.832724 0.149906 0.423950 0.733269
O11   O     O_R   0.356570 0.606480 0.750960 -0.566334
O12   O     O_R   0.643430 0.106480 0.249040 -0.566344
O13   O     O_3   0.176990 0.425580 0.674890 -0.363953
O14   O     O_3   0.823010 0.925580 0.325110 -0.363949
V1    V     V_3+5 0.902170 0.513810 0.674910 1.489947
V2    V     V_3+5 0.097830 0.013810 0.325090 1.489996
O15   O     O_R   0.500800 0.379530 0.599380 -0.550422
O16   O     O_R   0.499200 0.879530 0.400620 -0.550428
C5    C     C_R   0.667219 0.354301 0.573661 0.797930
C6    C     C_R   0.332781 0.854302 0.426340 0.797984
O17   O     O_R   0.526650 0.379650 0.750390 -0.561789
O18   O     O_R   0.473350 0.879650 0.249610 -0.561802
C7    C     C_R   0.697993 0.359347 0.776791 0.672371
C8    C     C_R   0.302010 0.859360 0.223205 0.672377
V3    V     V_3+5 0.402160 0.486190 0.674900 1.447016
V4    V     V_3+5 0.597840 0.986190 0.325100 1.447013
O19   O     O_3   0.677210 0.574420 0.674910 -0.393188
O20   O     O_3   0.322790 0.074420 0.325090 -0.393190
C9    C     C_R   0.739739 0.092494 0.879424 -0.081888
C10   C     C_R   0.260223 0.592507 0.120577 -0.081882
H1    H     H_    0.718752 0.138550 0.772116 0.131575
H2    H     H_    0.281201 0.638566 0.227883 0.131602
H3    H     H_    0.739520 0.002980 0.863143 0.154615
H4    H     H_    0.260430 0.502995 0.136859 0.154638
C11   C     C_R   0.713929 0.287366 0.839489 0.036201
C12   C     C_R   0.286074 0.787377 0.160509 0.036192
C13   C     C_R   0.788246 0.344457 0.185224 -0.077534
C14   C     C_R   0.211766 0.844452 0.814768 -0.077551
C15   C     C_R   0.723593 0.424978 0.134916 0.061156
C16   C     C_R   0.276392 0.924978 0.865075 0.061145
C17   C     C_R   0.667098 0.385533 0.068111 -0.160489
C18   C     C_R   0.332883 0.885543 0.931882 -0.160519
C19   C     C_R   0.716132 0.274908 0.042533 0.081663
C20   C     C_R   0.283858 0.774917 0.957466 0.081689
C21   C     C_R   0.754681 0.188499 0.095274 -0.006839
C22   C     C_R   0.245311 0.688504 0.904727 -0.006843
C23   C     C_R   0.721874 0.246806 0.968068 0.051286
C24   C     C_R   0.278119 0.746814 0.031931 0.051314
C25   C     C_R   0.746764 0.127368 0.950345 0.096460
C26   C     C_R   0.253214 0.627378 0.049656 0.096481
C27   C     C_R   0.771370 0.041603 0.002772 -0.054421
C28   C     C_R   0.228614 0.541609 0.997230 -0.054430
C29   C     C_R   0.768851 0.069844 0.074343 -0.150549
C30   C     C_R   0.231151 0.569850 0.925660 -0.150512
C31   C     C_R   0.715428 0.330479 0.910093 0.087154
C32   C     C_R   0.284583 0.830486 0.089906 0.087140
C33   C     C_R   0.724001 0.170527 0.825767 -0.182976
C34   C     C_R   0.275967 0.670541 0.174232 -0.182960
C35   C     C_R   0.782103 0.225786 0.167216 -0.118549
C36   C     C_R   0.217898 0.725784 0.832784 -0.118605
H5    H     H_    0.578467 0.443858 0.039230 0.099014
H6    H     H_    0.421494 0.943886 0.960760 0.099027
C37   C     C_2   0.830248 0.246261 0.476491 -0.183291
C38   C     C_2   0.169755 0.746258 0.523510 -0.183282
C39   C     C_2   0.673871 0.267737 0.515093 -0.334022
C40   C     C_2   0.326121 0.767738 0.484908 -0.334002
H7    H     H_    0.546759 0.215182 0.505623 0.133544
H8    H     H_    0.453218 0.715194 0.494382 0.133547
C41   C     C_2   0.799204 0.918650 0.983062 0.353608
H9    H     H_    0.714277 0.850685 0.005385 0.104827
O21   O     O_2   0.923817 0.892574 0.943931 -0.545776
C42   C     C_2   0.200765 0.418657 0.016940 0.353549
H10   H     H_    0.285674 0.350687 0.994620 0.104839
O22   O     O_2   0.076158 0.392584 0.056073 -0.545784
C43   C     C_3   0.714192 0.461539 0.924455 -0.403134
C44   C     C_3   0.752773 0.551905 0.868407 -0.352406
C45   C     C_3   0.762554 0.672416 0.899755 -0.682298
H11   H     H_    0.625044 0.695391 0.921650 0.216244
H12   H     H_    0.874034 0.676072 0.942918 0.274263
H13   H     H_    0.794742 0.735898 0.858188 0.244886
H14   H     H_    0.889054 0.533843 0.846039 0.261195
H15   H     H_    0.638531 0.554385 0.826752 0.200015
H16   H     H_    0.570041 0.483534 0.938449 0.152605
H17   H     H_    0.821639 0.479100 0.967575 0.263458
C46   C     C_3   0.285829 0.961545 0.075541 -0.403101
C47   C     C_3   0.247268 0.051919 0.131587 -0.352395
C48   C     C_3   0.237499 0.172426 0.100231 -0.682379
H18   H     H_    0.374942 0.195352 0.078274 0.216282
H19   H     H_    0.125909 0.176099 0.057113 0.274267
H20   H     H_    0.205479 0.235931 0.141804 0.244853
H21   H     H_    0.110982 0.033876 0.153958 0.261157
H22   H     H_    0.361510 0.054393 0.173239 0.200018
H23   H     H_    0.429991 0.983524 0.061544 0.152590
H24   H     H_    0.178372 0.979109 0.032422 0.263462
C49   C     C_2   0.856175 0.382094 0.257165 0.329567
H25   H     H_    0.826234 0.330128 0.302766 0.046465
O23   O     O_2   0.953590 0.469022 0.265868 -0.531952
C50   C     C_2   0.143862 0.882079 0.742822 0.329529
H26   H     H_    0.173830 0.830110 0.697226 0.046443
O24   O     O_2   0.046438 0.969003 0.734110 -0.531962
C51   C     C_2   0.706700 0.550443 0.150999 0.417788
H27   H     H_    0.692455 0.580100 0.204468 0.083051
O25   O     O_2   0.709327 0.622646 0.104166 -0.524286
C52   C     C_2   0.293265 0.050443 0.848990 0.417807
H28   H     H_    0.307517 0.080099 0.795520 0.083056
O26   O     O_2   0.290617 0.122646 0.895821 -0.524277
C53   C     C_2   0.761821 0.970953 0.124919 0.309689
H29   H     H_    0.648771 0.966321 0.160229 0.097548
O27   O     O_2   0.873792 0.890140 0.124388 -0.513715
C54   C     C_2   0.238229 0.470961 0.875087 0.309676
H30   H     H_    0.351334 0.466320 0.839799 0.097513
O28   O     O_2   0.126227 0.390156 0.875597 -0.513709
C55   C     C_2   0.002221 0.321767 0.480151 0.436279
H31   H     H_    0.143545 0.283357 0.480822 0.042569
O29   O     O_2   0.987151 0.427064 0.477420 -0.528979
C56   C     C_2   0.997828 0.821775 0.519863 0.436207
H32   H     H_    0.856540 0.783393 0.519253 0.042611
O30   O     O_2   0.012919 0.927069 0.522531 -0.528981

loop_
_geom_bond_atom_site_label_1
_geom_bond_atom_site_label_2
_ccdc_geom_bond_type
C21   C35   A    
O13   V3    S    
C41   H9    S    
C5    C39   S    
C25   C27   A    
C53   H29   S    
O4    C2    A    
V1    O19   S    
C43   H16   S    
C45   H11   S    
C6    C40   S    
C47   H21   S    
C19   C21   A    
C32   C46   S    
C51   O25   D    
O9    V1    S    
C12   C32   A    
C22   C36   A    
C42   O22   D    
C18   H6    S    
O3    C1    A    
C55   O29   D    
C8    C12   S    
O12   V4    S    
C10   C34   A    
C12   C34   A    
C52   H28   S    
C15   C51   S    
C39   H7    S    
O7    C3    A    
C44   H15   S    
C24   C32   A    
O5    C7    A    
O7    V1    S    
O6    C8    A    
C7    C11   S    
C4    C37   S    
C13   C49   S    
O3    V1    S    
O14   V4    S    
C28   C30   A    
C13   C15   A    
C17   C19   A    
C2    O12   A    
O17   V3    S    
C41   O21   D    
C14   C16   A    
H2    C34   S    
C14   C50   S    
C43   H17   S    
C45   H12   S    
C24   C26   A    
O11   V3    S    
C18   C20   A    
C16   C52   S    
C9    C25   A    
C11   C33   A    
C26   C28   A    
C22   C30   A    
C42   H10   S    
H1    C33   S    
O8    C4    A    
C54   H30   S    
C31   C43   S    
C48   H18   S    
C19   C23   A    
C1    O11   A    
C16   C18   A    
O15   V3    S    
C9    H3    S    
C46   H23   S    
C37   C39   D    
O4    V2    S    
C44   H14   S    
C48   H19   S    
C37   C55   S    
C49   H25   S    
C11   C31   A    
O10   V2    S    
O1    V3    S    
C53   O27   D    
C50   O24   D    
C20   C22   A    
C15   C17   A    
C9    C33   A    
C49   O23   D    
O18   V4    S    
C28   C42   S    
O15   C5    A    
C17   H5    S    
O16   C6    A    
O1    C3    A    
C13   C35   A    
C14   C36   A    
C45   H13   S    
C56   H32   S    
C56   O30   D    
V2    O20   S    
O16   V4    S    
C10   H4    S    
C44   C45   S    
C21   C29   A    
C54   O28   D    
C47   H22   S    
O5    V1    S    
O17   C7    A    
O6    V2    S    
C51   H27   S    
O10   C6    A    
O18   C8    A    
C46   H24   S    
O2    V4    S    
C27   C29   A    
V3    O19   S    
C55   H31   S    
C38   C56   S    
C48   H20   S    
V4    O20   S    
C10   C26   A    
C47   C48   S    
C29   C53   S    
O8    V2    S    
O9    C5    A    
O13   V1    S    
C52   O26   D    
O14   V2    S    
C50   H26   S    
O2    C4    A    
C1    C36   S    
C2    C35   S    
C43   C44   S    
C27   C41   S    
C20   C24   A    
C23   C31   A    
C38   C40   D    
C30   C54   S    
C40   H8    S    
C23   C25   A    
C46   C47   S    
C3    C38   S    
