data_mof_unit_26530.cif
_audit_creation_date              2012-12-10T19:43:25-0500
_audit_creation_method            fapswitch 2.2
_symmetry_space_group_name_H-M    P1
_symmetry_Int_Tables_number       1
_space_group_crystal_system       triclinic
_cell_length_a                    10.957831
_cell_length_b                    10.868288
_cell_length_c                    9.619896
_cell_angle_alpha                 92.936841
_cell_angle_beta                  92.932454
_cell_angle_gamma                 95.429753
_cell_volume                      1137.21365619

loop_
_atom_site_label
_atom_site_type_symbol
_atom_type_description
_atom_site_fract_x
_atom_site_fract_y
_atom_site_fract_z
_atom_type_partial_charge
Br1   Br    Br    0.361092 0.840443 0.221985 -0.492901
Br2   Br    Br    0.187616 0.690505 0.723811 -0.548274
Br3   Br    Br    0.012750 0.832245 0.097323 -0.558418
C1    C     C_R   0.506477 0.262870 0.498348 0.812312
C2    C     C_R   0.942484 0.687325 0.990220 0.332673
C3    C     C_R   0.894162 0.583883 0.056572 -0.154880
C4    C     C_R   0.262455 0.502015 0.496350 0.844629
C5    C     C_R   0.852299 0.474810 0.978451 -0.190181
C6    C     C_R   0.864886 0.467478 0.834487 -0.095394
C7    C     C_R   0.910142 0.572362 0.766058 0.073733
C8    C     C_R   0.601013 0.137396 0.742372 -0.140954
C9    C     C_R   0.590008 0.091705 0.874055 -0.186186
C10   C     C_R   0.523764 0.978045 0.887552 -0.124424
C11   C     C_R   0.484253 0.902595 0.768856 -0.094093
C12   C     C_R   0.114215 0.322101 0.968052 -0.203911
C13   C     C_R   0.501077 0.945166 0.633990 0.035696
C14   C     C_R   0.540717 0.071278 0.623557 0.096639
C15   C     C_R   0.510851 0.128363 0.498425 -0.167096
C16   C     C_R   0.488647 0.736470 0.502757 0.834930
C17   C     C_R   0.458259 0.055441 0.383143 -0.254966
C18   C     C_R   0.442549 0.927679 0.385552 0.275676
C19   C     C_R   0.472886 0.869985 0.509186 -0.165076
C20   C     C_R   0.644702 0.687885 0.161097 -0.095007
C21   C     C_R   0.699130 0.789369 0.097766 -0.176842
C22   C     C_R   0.699462 0.787831 0.954005 -0.208198
C23   C     C_R   0.923648 0.449993 0.392066 -0.239125
C24   C     C_R   0.642874 0.686260 0.874039 -0.144821
C25   C     C_R   0.568883 0.592954 0.934311 0.194880
C26   C     C_R   0.568968 0.593442 0.083593 0.203719
C27   C     C_R   0.439344 0.406708 0.062334 0.221033
C28   C     C_R   0.738150 0.500595 0.503866 0.777894
C29   C     C_R   0.436904 0.409617 0.915123 -0.045790
C30   C     C_R   0.150777 0.444367 0.014029 -0.106813
C31   C     C_R   0.139294 0.483382 0.152789 -0.104108
C32   C     C_R   0.091303 0.400211 0.247975 0.085394
C33   C     C_R   0.059173 0.274427 0.202494 0.170703
C34   C     C_R   0.872929 0.499989 0.509945 -0.125198
C35   C     C_R   0.070180 0.237142 0.062052 -0.135405
C36   C     C_3   0.386664 0.289550 0.119167 -0.756809
C37   C     C_3   0.011969 0.178307 0.299094 -0.851430
C38   C     C_R   0.951881 0.555636 0.622161 -0.030202
C39   C     C_R   0.079410 0.572998 0.603524 0.216663
C40   C     C_R   0.129253 0.511278 0.490404 -0.134363
C41   C     C_R   0.049957 0.452208 0.381347 -0.028495
C42   C     C_R   0.939648 0.684664 0.844827 -0.157778
Cu1   Cu    Cu3+1 0.499990 0.499990 0.640660 0.944071
Cu2   Cu    Cu3+1 0.500010 0.500010 0.359340 0.950598
H1    H     H_    0.121949 0.292676 0.859922 0.151459
H2    H     H_    0.185859 0.509713 0.941452 0.201647
H3    H     H_    0.669965 0.684370 0.269313 0.186317
H4    H     H_    0.750612 0.864256 0.160375 0.181423
H5    H     H_    0.751675 0.861414 0.904627 0.175956
H6    H     H_    0.662905 0.681316 0.766607 0.197098
H7    H     H_    0.386853 0.335251 0.850401 0.156397
H8    H     H_    0.161549 0.580380 0.184288 0.206355
H9    H     H_    0.044320 0.141911 0.025264 0.185601
H10   H     H_    0.863613 0.406522 0.306643 0.167556
H11   H     H_    0.969415 0.768110 0.794278 0.187264
H12   H     H_    0.890330 0.588298 0.168529 0.163556
H13   H     H_    0.328431 0.229850 0.039967 0.207437
H14   H     H_    0.464864 0.236584 0.146324 0.218805
H15   H     H_    0.330051 0.308299 0.208386 0.266967
H16   H     H_    0.015327 0.214530 0.409249 0.231476
H17   H     H_    0.915623 0.144024 0.266143 0.233216
H18   H     H_    0.069339 0.099404 0.294494 0.276247
H19   H     H_    0.816663 0.394066 0.030305 0.141042
H20   H     H_    0.843738 0.379003 0.777216 0.124886
H21   H     H_    0.423980 0.097121 0.292077 0.184059
H22   H     H_    0.653158 0.226209 0.735417 0.149367
H23   H     H_    0.629296 0.146212 0.965661 0.137501
H24   H     H_    0.508531 0.945478 0.990144 0.195351
H25   H     H_    0.435233 0.814392 0.785308 0.218704
N1    N     N_R   0.501190 0.501210 0.147910 -0.196902
N2    N     N_R   0.501230 0.501290 0.852040 -0.217744
O1    O     O_R   0.499990 0.319640 0.618810 -0.592218
O2    O     O_R   0.500000 0.319660 0.381240 -0.591070
O3    O     O_R   0.319640 0.500000 0.618780 -0.546017
O4    O     O_R   0.319650 0.500020 0.381210 -0.576550
O5    O     O_R   0.500000 0.680340 0.618760 -0.607906
O6    O     O_R   0.500010 0.680360 0.381190 -0.561986
O7    O     O_R   0.680350 0.499980 0.618790 -0.602707
O8    O     O_R   0.680360 0.500000 0.381220 -0.606690

loop_
_geom_bond_atom_site_label_1
_geom_bond_atom_site_label_2
_ccdc_geom_bond_type
C5    H19   S    
C38   C39   A    
C32   C33   A    
C25   N2    A    
C23   C41   A    
Br1   C18   S    
C28   O8    A    
C20   C26   A    
C25   C26   A    
Cu2   O2    S    
C29   N2    A    
C2    C3    A    
C26   N1    A    
C30   H2    S    
C31   C32   A    
Cu2   O8    S    
C1    O1    A    
C13   C14   A    
C20   C21   A    
C4    C40   S    
C6    C7    A    
C4    O3    A    
C1    C15   S    
C21   H4    S    
C31   H8    S    
C10   C11   A    
C7    C38   S    
C11   H25   S    
Cu2   O6    S    
C29   H7    S    
Cu1   O1    S    
C14   C15   A    
C36   H14   S    
C42   H11   S    
C33   C37   S    
C16   C19   S    
C21   C22   A    
Cu2   N1    S    
C27   N1    A    
C5    C6    A    
C20   H3    S    
C3    C5    A    
C10   H24   S    
C2    C42   A    
C28   C34   S    
C40   C41   A    
C6    H20   S    
C12   C35   A    
Cu1   O7    S    
C7    C42   A    
C8    H22   S    
C30   C31   A    
C17   C18   A    
C16   O5    A    
C32   C41   S    
C37   H16   S    
C4    O4    A    
C37   H18   S    
C11   C13   A    
C39   C40   A    
Cu1   N2    S    
C36   H15   S    
C9    H23   S    
Cu1   Cu2   S    
C8    C14   A    
C13   C19   A    
C12   H1    S    
C3    H12   S    
C17   H21   S    
Br3   C2    S    
C37   H17   S    
Cu1   O3    S    
C8    C9    A    
C24   H6    S    
C23   C34   A    
C22   C24   A    
C28   O7    A    
C33   C35   A    
C22   H5    S    
C27   C29   A    
Cu1   O5    S    
Br2   C39   S    
C36   H13   S    
C27   C36   S    
C15   C17   A    
C34   C38   A    
C16   O6    A    
C23   H10   S    
C1    O2    A    
C35   H9    S    
C9    C10   A    
C24   C25   A    
Cu2   O4    S    
C18   C19   A    
C12   C30   A    
