data_mof_unit_37947.cif
_audit_creation_date              2012-12-10T17:31:13-0500
_audit_creation_method            fapswitch 2.2
_symmetry_space_group_name_H-M    P1
_symmetry_Int_Tables_number       1
_space_group_crystal_system       triclinic
_cell_length_a                    12.07337
_cell_length_b                    12.818671
_cell_length_c                    15.509714
_cell_angle_alpha                 86.950765
_cell_angle_beta                  116.77076
_cell_angle_gamma                 94.252119
_cell_volume                      2136.64668957

loop_
_atom_site_label
_atom_site_type_symbol
_atom_type_description
_atom_site_fract_x
_atom_site_fract_y
_atom_site_fract_z
_atom_type_partial_charge
C1    C     C_R   0.474583 0.299780 0.495049 0.957083
C2    C     C_R   0.588703 0.967421 0.433981 -0.085862
C3    C     C_R   0.402576 0.138822 0.547077 -0.275075
C4    C     C_R   0.595367 0.861100 0.451049 -0.290359
C5    C     C_R   0.502504 0.130480 0.441769 0.395889
C6    C     C_R   0.496400 0.869571 0.557097 0.305137
C7    C     C_R   0.521942 0.024609 0.467573 0.001712
C8    C     C_R   0.476176 0.975304 0.530806 -0.013474
C9    C     C_R   0.993523 0.586169 0.400335 -0.294005
C10   C     C_R   0.006624 0.414294 0.600191 -0.293151
C11   C     C_R   0.115076 0.580389 0.410146 0.359150
C12   C     C_R   0.525243 0.700245 0.504684 0.954359
C13   C     C_R   0.885429 0.421113 0.590924 0.364798
C14   C     C_R   0.165581 0.464862 0.545535 -0.040778
C15   C     C_R   0.834162 0.534441 0.454054 -0.041172
C16   C     C_R   0.577207 0.493924 0.680749 0.908475
C17   C     C_R   0.423123 0.507737 0.319337 0.927300
C18   C     C_R   0.043395 0.469167 0.536676 0.043612
C19   C     C_R   0.956424 0.530307 0.463144 0.048169
C20   C     C_R   0.626772 0.502471 0.785232 -0.036199
C21   C     C_R   0.375744 0.519345 0.214629 -0.035980
C22   C     C_R   0.785606 0.563159 0.939312 -0.177164
C23   C     C_R   0.642375 0.590895 0.102568 -0.202462
C24   C     C_R   0.211029 0.510024 0.051461 -0.183802
C25   C     C_R   0.750263 0.535874 0.844129 -0.159437
C26   C     C_R   0.249374 0.505236 0.150804 -0.175391
C27   C     C_R   0.541082 0.493470 0.822701 -0.198443
C28   C     C_R   0.462270 0.542033 0.178760 -0.227230
C29   C     C_R   0.570623 0.531432 0.913474 0.114217
C30   C     C_R   0.426801 0.545581 0.079776 0.094318
C31   C     C_R   0.696194 0.562513 0.973996 0.174546
C32   C     C_R   0.299146 0.526800 0.015643 0.173634
C33   C     C_R   0.478484 0.537621 0.945584 0.072713
C34   C     C_R   0.349729 0.525347 0.882302 -0.188049
C35   C     C_R   0.516324 0.558795 0.043769 0.071332
C36   C     C_3   0.857925 0.366535 0.667920 -0.822691
C37   C     C_3   0.143969 0.639307 0.335614 -0.838969
C38   C     C_R   0.730233 0.593746 0.067584 -0.214349
C39   C     C_R   0.261646 0.521523 0.916946 -0.228049
C40   C     C_R   0.543395 0.811974 0.507623 -0.151486
C41   C     C_R   0.455716 0.188111 0.491349 -0.178336
C42   C     C_R   0.408697 0.032425 0.563776 -0.132176
H1    H     H_    0.825530 0.619330 0.114467 0.144510
H2    H     H_    0.113232 0.496368 0.002771 0.133792
H3    H     H_    0.675466 0.617740 0.175196 0.135511
H4    H     H_    0.313987 0.520775 0.805017 0.162036
H5    H     H_    0.636942 0.816492 0.416827 0.172154
H6    H     H_    0.360583 0.183338 0.581035 0.175256
H7    H     H_    0.362267 0.996790 0.604212 0.199316
H8    H     H_    0.634002 0.003065 0.392679 0.219316
H9    H     H_    0.767679 0.582240 0.397404 0.115700
H10   H     H_    0.232001 0.416846 0.602002 0.117882
H11   H     H_    0.932899 0.314668 0.714723 0.203352
H12   H     H_    0.164113 0.510131 0.866592 0.148599
H13   H     H_    0.853726 0.425030 0.716039 0.225587
H14   H     H_    0.772146 0.315739 0.636907 0.265359
H15   H     H_    0.067392 0.689373 0.287998 0.198095
H16   H     H_    0.227057 0.692802 0.368964 0.259488
H17   H     H_    0.153043 0.583733 0.287654 0.235161
H18   H     H_    0.276296 0.808706 0.565902 0.325935
H19   H     H_    0.507996 0.138314 0.206629 0.389069
H20   H     H_    0.927068 0.633249 0.342635 0.139742
H21   H     H_    0.073353 0.368060 0.658528 0.143965
H22   H     H_    0.558789 0.550516 0.229894 0.149803
H23   H     H_    0.449833 0.458693 0.778277 0.131268
H24   H     H_    0.181124 0.486722 0.177272 0.148843
H25   H     H_    0.817845 0.544441 0.815981 0.145036
H26   H     H_    0.881519 0.588425 0.984562 0.134511
N1    N     N_R   0.799120 0.480200 0.517090 -0.089041
N2    N     N_R   0.200880 0.519800 0.482910 -0.084915
O1    O     O_R   0.580150 0.341050 0.504560 -0.579193
O2    O     O_2   0.501818 0.889026 0.733064 -0.284121
O3    O     O_3   0.328543 0.759691 0.617309 -0.513186
O4    O     O_2   0.445927 0.280554 0.301150 -0.318004
O5    O     O_2   0.659860 0.224569 0.378826 -0.306514
O6    O     O_3   0.485701 0.101869 0.255060 -0.570134
O7    O     O_R   0.419850 0.658950 0.495440 -0.585343
O8    O     O_R   0.388090 0.353760 0.493600 -0.629736
O9    O     O_R   0.611910 0.646240 0.506400 -0.630861
O10   O     O_R   0.650890 0.490020 0.640860 -0.636962
O11   O     O_R   0.349110 0.509980 0.359140 -0.634968
O12   O     O_R   0.458830 0.502730 0.629890 -0.586640
O13   O     O_R   0.541170 0.497270 0.370110 -0.592309
O14   O     O_2   0.562997 0.724791 0.701356 -0.286944
S1    S     S_3+6 0.475105 0.810724 0.656365 0.035259
S2    S     S_3+6 0.525414 0.188741 0.343227 0.008794
Zn1   Zn    Zn3+2 0.628240 0.491510 0.507320 0.991969
Zn2   Zn    Zn3+2 0.371760 0.508490 0.492680 0.991208

loop_
_geom_bond_atom_site_label_1
_geom_bond_atom_site_label_2
_ccdc_geom_bond_type
O13   Zn1   S    
C21   C26   A    
C3    C42   A    
C23   H3    S    
C27   C29   A    
C3    H6    S    
C10   H21   S    
C25   H25   S    
N2    Zn2   S    
O9    Zn1   S    
O2    S1    D    
C11   N2    A    
C7    C8    A    
C15   C19   A    
C1    O1    A    
C6    S1    S    
C30   C35   A    
C36   H14   S    
C8    C42   A    
O10   Zn1   S    
C39   H12   S    
C20   C25   A    
C12   O9    A    
C29   C33   A    
H18   O3    S    
C18   C19   A    
C32   C39   A    
C11   C37   S    
C14   C18   A    
C36   H11   S    
C2    H8    S    
C2    C7    A    
C9    C19   A    
C14   H10   S    
C4    C40   A    
O7    Zn2   S    
C22   C25   A    
C34   H4    S    
C15   H9    S    
C37   H16   S    
N1    Zn1   S    
C1    O8    A    
C14   N2    A    
H19   O6    S    
C15   N1    A    
C22   C31   A    
C9    H20   S    
C26   H24   S    
O14   S1    D    
C13   C36   S    
C5    C7    A    
C6    C8    A    
C17   C21   S    
C34   C39   A    
C16   O10   A    
C12   C40   S    
C2    C4    A    
C24   C32   A    
C27   H23   S    
O5    S2    D    
C16   C20   S    
C22   H26   S    
C12   O7    A    
C16   O12   A    
C33   C34   A    
O4    S2    D    
C9    C11   A    
O3    S1    S    
C37   H17   S    
O1    Zn1   S    
C5    S2    S    
C28   H22   S    
C1    C41   S    
C21   C28   A    
C23   C35   A    
C24   H2    S    
C6    C40   A    
O6    S2    S    
O8    Zn2   S    
C5    C41   A    
C3    C41   A    
C24   C26   A    
C10   C13   A    
C20   C27   A    
C23   C38   A    
C31   C38   A    
C28   C30   A    
C38   H1    S    
C29   C31   A    
C36   H13   S    
C30   C32   A    
C13   N1    A    
C10   C18   A    
O12   Zn2   S    
C33   C35   A    
C17   O11   A    
O11   Zn2   S    
C42   H7    S    
C17   O13   A    
C37   H15   S    
C4    H5    S    
