data_mof_unit_49913.cif
_audit_creation_date              2012-12-10T19:07:36-0500
_audit_creation_method            fapswitch 2.2
_symmetry_space_group_name_H-M    P1
_symmetry_Int_Tables_number       1
_space_group_crystal_system       triclinic
_cell_length_a                    10.852345
_cell_length_b                    10.851972
_cell_length_c                    9.547875
_cell_angle_alpha                 89.549746
_cell_angle_beta                  90.975164
_cell_angle_gamma                 90.438788
_cell_volume                      1124.21756563

loop_
_atom_site_label
_atom_site_type_symbol
_atom_type_description
_atom_site_fract_x
_atom_site_fract_y
_atom_site_fract_z
_atom_type_partial_charge
C1    C     C_R   0.503551 0.262254 0.500606 0.795575
C2    C     C_R   0.939422 0.446416 0.614964 0.057698
C3    C     C_3   0.941905 0.484716 0.765454 -0.048730
C4    C     C_3   0.081944 0.479916 0.761469 -0.440143
C5    C     C_R   0.528577 0.061415 0.625996 0.106762
C6    C     C_R   0.516511 0.129043 0.500791 -0.121329
C7    C     C_R   0.518496 0.065438 0.372809 -0.209917
C8    C     C_R   0.516106 0.937001 0.371467 -0.215358
C9    C     C_R   0.508338 0.870777 0.498016 -0.095746
C10   C     C_R   0.518167 0.934643 0.623567 0.079868
C11   C     C_3   0.437815 0.929357 0.748949 -0.463766
C12   C     C_R   0.262562 0.497328 0.498779 0.800929
C13   C     C_3   0.457573 0.068473 0.759224 -0.115366
C14   C     C_R   0.536640 0.602452 0.073475 0.262445
C15   C     C_R   0.445875 0.407034 0.074144 -0.082347
C16   C     C_R   0.444138 0.408165 0.925176 -0.113818
C17   C     C_R   0.537318 0.602111 0.926290 0.264788
C18   C     C_3   0.660024 0.663792 0.923075 -0.527053
C19   C     C_3   0.658589 0.665588 0.082066 -0.510834
C20   C     C_R   0.499801 0.737627 0.499358 0.804155
C21   C     C_R   0.737944 0.499020 0.500816 0.797358
C22   C     C_R   0.066573 0.444445 0.612075 0.065156
C23   C     C_R   0.129834 0.485635 0.494799 -0.085245
C24   C     C_R   0.062628 0.513110 0.371896 -0.216219
C25   C     C_R   0.934409 0.516273 0.374756 -0.200366
C26   C     C_R   0.871608 0.490660 0.499540 -0.112083
Cu1   Cu    Cu3+1 0.499990 0.499980 0.640670 0.925285
Cu2   Cu    Cu3+1 0.500010 0.500020 0.359330 0.935954
H1    H     H_    0.108598 0.539813 0.276383 0.163139
H2    H     H_    0.476273 0.872214 0.835113 0.190087
H3    H     H_    0.370742 0.121355 0.744997 0.140444
H4    H     H_    0.404110 0.330515 0.129394 0.134931
H5    H     H_    0.398865 0.334070 0.869137 0.133480
H6    H     H_    0.730762 0.602635 0.881329 0.221018
H7    H     H_    0.656768 0.756659 0.874061 0.186672
H8    H     H_    0.730052 0.607037 0.131909 0.213560
H9    H     H_    0.652061 0.759777 0.125748 0.186515
H10   H     H_    0.885237 0.545433 0.281418 0.154860
H11   H     H_    0.907910 0.580009 0.779018 0.150030
H12   H     H_    0.126324 0.571904 0.774691 0.183485
H13   H     H_    0.124845 0.404627 0.824623 0.193664
H14   H     H_    0.515090 0.114331 0.273612 0.160227
H15   H     H_    0.513718 0.890473 0.271548 0.156692
H16   H     H_    0.341155 0.904189 0.720189 0.172906
N1    N     N_R   0.500790 0.500930 0.147930 -0.181552
N2    N     N_R   0.500790 0.500890 0.852020 -0.185180
O1    O     O_R   0.500000 0.319640 0.618810 -0.597564
O2    O     O_R   0.500010 0.319680 0.381230 -0.588302
O3    O     O_R   0.319650 0.499970 0.618810 -0.581647
O4    O     O_R   0.319660 0.500010 0.381230 -0.585855
O5    O     O_R   0.499990 0.680320 0.618770 -0.578513
O6    O     O_R   0.500000 0.680360 0.381190 -0.587189
O7    O     O_R   0.680340 0.499990 0.618770 -0.590561
O8    O     O_R   0.680350 0.500030 0.381190 -0.580552
C27   C     C_3   0.537687 0.114691 0.884771 -0.349227
C28   C     C_3   0.641644 0.028473 0.935711 -0.344885
C29   C     C_3   0.733105 0.095089 0.032130 -0.869351
H17   H     H_    0.784145 0.165784 0.971924 0.257064
H18   H     H_    0.684885 0.140102 0.119346 0.258998
H19   H     H_    0.800296 0.028110 0.076633 0.246475
H20   H     H_    0.601583 0.950767 0.996347 0.206937
H21   H     H_    0.692613 0.991630 0.845421 0.225676
H22   H     H_    0.579379 0.204498 0.854099 0.220777
H23   H     H_    0.475950 0.131535 0.974193 0.171486
C30   C     C_3   0.883955 0.387589 0.862511 -0.363060
C31   C     C_3   0.913695 0.415075 0.016018 -0.858150
H24   H     H_    0.902426 0.514637 0.036787 0.244849
H25   H     H_    0.851032 0.361695 0.084789 0.252668
H26   H     H_    0.010168 0.389257 0.042396 0.252597
H27   H     H_    0.782354 0.387594 0.846281 0.221427
H28   H     H_    0.917834 0.294025 0.837131 0.203270

loop_
_geom_bond_atom_site_label_1
_geom_bond_atom_site_label_2
_ccdc_geom_bond_type
C2    C22   A    
C31   H25   S    
C23   C24   A    
Cu1   O7    S    
C1    O2    A    
C4    H12   S    
C6    C7    A    
C28   H20   S    
C25   H10   S    
C20   O5    A    
C30   H27   S    
C4    C22   S    
C18   H7    S    
C9    C20   S    
C5    C13   S    
C12   C23   S    
C8    H15   S    
C27   C28   S    
C10   C11   S    
C27   H23   S    
C12   O3    A    
C8    C9    A    
C3    H11   S    
C11   H16   S    
C2    C26   A    
C24   H1    S    
C24   C25   A    
C30   C31   S    
C21   O7    A    
Cu2   O6    S    
C14   C17   A    
C29   H17   S    
C3    C30   S    
C5    C6    A    
Cu1   N2    S    
C5    C10   A    
C21   C26   S    
Cu1   O5    S    
C17   C18   S    
C14   N1    A    
C2    C3    S    
C19   H8    S    
C18   H6    S    
C21   O8    A    
C16   H5    S    
C28   H21   S    
Cu2   N1    S    
C29   H18   S    
C31   H26   S    
C7    C8    A    
C4    H13   S    
C15   N1    A    
Cu1   O1    S    
C1    C6    S    
Cu1   O3    S    
C11   C13   S    
C31   H24   S    
C17   N2    A    
C20   O6    A    
C18   C19   S    
C9    C10   A    
C7    H14   S    
C16   N2    A    
Cu1   Cu2   S    
C28   C29   S    
Cu2   O8    S    
C22   C23   A    
C1    O1    A    
C29   H19   S    
C19   H9    S    
C25   C26   A    
C30   H28   S    
Cu2   O4    S    
C14   C19   S    
C13   H3    S    
Cu2   O2    S    
C3    C4    S    
C15   C16   A    
C11   H2    S    
C27   H22   S    
C12   O4    A    
C13   C27   S    
C15   H4    S    
