data_mof_unit_53544.cif
_audit_creation_date              2012-12-10T16:53:08-0500
_audit_creation_method            fapswitch 2.2
_symmetry_space_group_name_H-M    P1
_symmetry_Int_Tables_number       1
_space_group_crystal_system       triclinic
_cell_length_a                    10.778779
_cell_length_b                    10.933972
_cell_length_c                    9.758742
_cell_angle_alpha                 89.194378
_cell_angle_beta                  90.282436
_cell_angle_gamma                 89.750482
_cell_volume                      1149.97632892

loop_
_atom_site_label
_atom_site_type_symbol
_atom_type_description
_atom_site_fract_x
_atom_site_fract_y
_atom_site_fract_z
_atom_type_partial_charge
C1    C     C_R   0.498257 0.265545 0.500806 0.827118
C2    C     C_R   0.066479 0.395712 0.576423 0.097850
C3    C     C_R   0.129054 0.487027 0.499502 -0.093144
C4    C     C_R   0.063312 0.572487 0.419989 -0.207108
C5    C     C_R   0.935319 0.572784 0.420581 -0.201876
C6    C     C_R   0.871105 0.487650 0.500706 -0.099717
C7    C     C_2   0.488798 0.934733 0.388767 -0.179995
C8    C     C_2   0.508168 0.866386 0.501539 -0.317122
C9    C     C_2   0.495333 0.068463 0.388885 -0.143281
C10   C     C_2   0.491437 0.133480 0.504270 -0.324200
C11   C     C_2   0.591941 0.467055 0.923201 -0.117318
C12   C     C_R   0.262829 0.495872 0.499860 0.787717
C13   C     C_2   0.580248 0.445793 0.075476 -0.017886
C14   C     C_R   0.501355 0.734424 0.499539 0.851273
C15   C     C_R   0.737220 0.496030 0.500308 0.787512
C16   C     C_R   0.131044 0.301747 0.648416 -0.181715
C17   C     C_R   0.066893 0.211770 0.721307 -0.135870
C18   C     C_R   0.937886 0.212221 0.722128 -0.140321
C19   C     C_R   0.872187 0.302589 0.649973 -0.193862
C20   C     C_R   0.935214 0.396091 0.577140 0.096091
Cu1   Cu    Cu3+1 0.500020 0.500020 0.638630 0.926050
Cu2   Cu    Cu3+1 0.499980 0.499980 0.361370 0.923640
H1    H     H_    0.111506 0.641260 0.359679 0.142108
H2    H     H_    0.479688 0.091230 0.604294 0.145819
H3    H     H_    0.682632 0.456425 0.877324 0.163417
H4    H     H_    0.414420 0.468849 0.882228 0.214890
H5    H     H_    0.649089 0.386825 0.124197 0.133160
H6    H     H_    0.231076 0.295032 0.647103 0.146736
H7    H     H_    0.117532 0.140419 0.775885 0.133898
H8    H     H_    0.888423 0.141238 0.777370 0.132653
H9    H     H_    0.772157 0.296527 0.649970 0.148009
H10   H     H_    0.885927 0.641675 0.360505 0.148991
H11   H     H_    0.469166 0.891948 0.291822 0.172411
H12   H     H_    0.531442 0.906037 0.599307 0.150561
H13   H     H_    0.501171 0.114191 0.289582 0.168215
N1    N     N_2   0.498640 0.498660 0.846910 -0.282738
N2    N     N_2   0.498610 0.498630 0.153040 -0.181071
O1    O     O_R   0.500020 0.321960 0.617040 -0.593652
O2    O     O_R   0.499980 0.321920 0.382900 -0.572561
O3    O     O_R   0.319670 0.500020 0.617100 -0.586145
O4    O     O_R   0.319630 0.499980 0.382950 -0.593543
O5    O     O_R   0.500020 0.678080 0.617100 -0.562593
O6    O     O_R   0.499980 0.678040 0.382960 -0.601005
O7    O     O_R   0.680370 0.500020 0.617050 -0.585265
O8    O     O_R   0.680330 0.499980 0.382900 -0.579271
C21   C     C_3   0.426072 0.605154 0.104683 -0.069399
C22   C     C_3   0.506605 0.715346 0.060433 -0.357961
C23   C     C_3   0.425631 0.821266 0.008288 -0.915803
H14   H     H_    0.376405 0.794771 0.912983 0.271180
H15   H     H_    0.356060 0.847153 0.086370 0.244995
H16   H     H_    0.484678 0.901852 0.985132 0.248082
H17   H     H_    0.563941 0.746093 0.147890 0.224908
H18   H     H_    0.571912 0.692298 0.977637 0.233516
H19   H     H_    0.354350 0.582327 0.028718 0.114745
H20   H     H_    0.367455 0.636364 0.190039 0.198878

loop_
_geom_bond_atom_site_label_1
_geom_bond_atom_site_label_2
_ccdc_geom_bond_type
C21   H20   S    
C12   O3    A    
C16   H6    S    
C22   H17   S    
C18   H8    S    
Cu1   O7    S    
C2    C16   A    
C9    C10   D    
C13   N2    D    
Cu2   O6    S    
C14   O5    A    
C22   H18   S    
C5    H10   S    
C19   H9    S    
C6    C20   A    
C21   H19   S    
C23   H15   S    
C17   C18   A    
C6    C15   S    
C7    C8    D    
Cu1   N1    S    
C8    H12   S    
Cu1   Cu2   S    
C4    C5    A    
C7    H11   S    
C12   O4    A    
Cu1   O3    S    
C1    O1    A    
Cu2   O2    S    
H4    N1    S    
C23   H14   S    
C15   O7    A    
C2    C3    A    
C5    C6    A    
Cu2   O4    S    
Cu1   O5    S    
C1    O2    A    
C2    C20   A    
C3    C4    A    
C22   C23   S    
C11   C13   S    
Cu2   O8    S    
C17   H7    S    
C7    C9    S    
C18   C19   A    
C1    C10   S    
C9    H13   S    
C4    H1    S    
C11   H3    S    
C21   C22   S    
C16   C17   A    
C8    C14   S    
C3    C12   S    
C10   H2    S    
N2    C21   S    
Cu2   N2    S    
C23   H16   S    
C13   H5    S    
Cu1   O1    S    
C19   C20   A    
C14   O6    A    
C15   O8    A    
C11   N1    D    
