data_mof_unit_57602.cif
_audit_creation_date              2012-12-10T19:00:15-0500
_audit_creation_method            fapswitch 2.2
_symmetry_space_group_name_H-M    P1
_symmetry_Int_Tables_number       1
_space_group_crystal_system       triclinic
_cell_length_a                    9.61013
_cell_length_b                    10.926973
_cell_length_c                    13.500203
_cell_angle_alpha                 92.808687
_cell_angle_beta                  73.373807
_cell_angle_gamma                 92.116009
_cell_volume                      1356.3616504

loop_
_atom_site_label
_atom_site_type_symbol
_atom_type_description
_atom_site_fract_x
_atom_site_fract_y
_atom_site_fract_z
_atom_type_partial_charge
C1    C     C_R   0.502339 0.737187 0.501311 0.811478
C2    C     C_R   0.436124 0.501911 0.978243 0.083092
C3    C     C_R   0.473820 0.468825 0.871150 0.064391
C4    C     C_R   0.542931 0.494982 0.031410 0.071416
C5    C     C_R   0.688182 0.470268 0.975308 0.073390
C6    C     C_R   0.718853 0.423673 0.873859 -0.164796
C7    C     C_R   0.609423 0.414196 0.825183 -0.126221
C8    C     C_R   0.510017 0.510030 0.138812 -0.327585
C9    C     C_R   0.765424 0.523577 0.128071 0.486638
C10   C     C_R   0.376638 0.494753 0.813278 -0.088802
C11   C     C_R   0.375900 0.931205 0.531098 -0.051100
C12   C     C_R   0.422500 0.494624 0.699362 0.767859
C13   C     C_R   0.506097 0.870286 0.507900 -0.195422
C14   C     C_R   0.636469 0.940724 0.491421 0.386992
C15   C     C_R   0.630617 0.069330 0.490123 -0.316088
C16   C     C_R   0.497605 0.128542 0.504433 -0.177545
C17   C     C_R   0.369753 0.057162 0.532419 0.058315
C18   C     C_3   0.235538 0.049962 0.496388 0.080760
C19   C     C_3   0.243248 0.910571 0.494993 0.748263
C20   C     C_R   0.960112 0.472461 0.411317 0.104895
C21   C     C_R   0.895217 0.541678 0.584568 0.488137
C22   C     C_R   0.042727 0.537420 0.585067 -0.087686
C23   C     C_R   0.498334 0.262170 0.499860 0.846498
C24   C     C_R   0.108289 0.480002 0.409722 0.099033
C25   C     C_3   0.139310 0.368621 0.339150 0.100000
C26   C     C_3   0.977513 0.352623 0.351467 0.219630
C27   C     C_R   0.577344 0.506859 0.301051 0.818463
C28   C     C_R   0.799543 0.491142 0.022499 -0.313977
C29   C     C_R   0.619534 0.514392 0.188128 -0.167969
C30   C     C_R   0.238358 0.539090 0.864890 -0.209022
C31   C     C_R   0.199669 0.565708 0.970366 -0.144076
C32   C     C_R   0.296910 0.548776 0.026656 -0.156522
Cu1   Cu    Cu3+1 0.359330 0.500020 0.500010 1.007633
Cu2   Cu    Cu3+1 0.640670 0.499980 0.499990 0.995760
H1    H     H_    0.731489 0.122229 0.473634 0.152369
H2    H     H_    0.251109 0.084584 0.418667 0.146881
H3    H     H_    0.071278 0.564296 0.654934 0.157699
H4    H     H_    0.205324 0.388936 0.259501 0.157789
H5    H     H_    0.826892 0.393299 0.832536 0.154091
H6    H     H_    0.921170 0.276955 0.401546 0.062455
H7    H     H_    0.911690 0.482458 0.977409 0.151963
H8    H     H_    0.399048 0.513060 0.185626 0.169813
H9    H     H_    0.162154 0.560165 0.822904 0.153380
H10   H     H_    0.262478 0.578768 0.106811 0.124755
H11   H     H_    0.096440 0.606370 0.007853 0.168926
H12   H     H_    0.635185 0.367767 0.749964 0.176501
N1    N     N_R   0.852320 0.499070 0.499340 -0.257772
N2    N     N_R   0.148230 0.499110 0.499340 -0.192655
O1    O     O_R   0.381190 0.680360 0.500000 -0.537574
O2    O     O_R   0.618780 0.680320 0.499990 -0.554761
O3    O     O_R   0.323230 0.500000 0.650990 -0.594491
O4    O     O_R   0.560820 0.499960 0.650980 -0.552342
O5    O     O_R   0.381220 0.319680 0.500010 -0.523629
O6    O     O_R   0.618810 0.319640 0.500000 -0.604799
O7    O     O_R   0.439180 0.500040 0.349020 -0.575336
O8    O     O_R   0.676770 0.500000 0.349010 -0.513900
O9    O     O_3   0.874677 0.559251 0.171970 -0.530533
C33   C     C_3   0.870495 0.688075 0.189811 0.040915
H13   H     H_    0.759108 0.720375 0.230520 0.122543
H14   H     H_    0.910199 0.734535 0.115013 0.120093
C34   C     C_3   0.967776 0.727343 0.257439 -0.665292
H15   H     H_    0.076903 0.688208 0.225262 0.224859
H16   H     H_    0.978699 0.828865 0.261388 0.196476
H17   H     H_    0.919519 0.695269 0.336923 0.272412
O10   O     O_3   0.115878 0.096752 0.573195 -0.697094
H18   H     H_    0.031571 0.085343 0.544782 0.304610
O11   O     O_3   0.131057 0.856714 0.571989 -0.701470
H19   H     H_    0.043893 0.857316 0.546795 0.320935
O12   O     O_3   0.257818 0.849701 0.396122 -0.597284
C35   C     C_3   0.387751 0.876959 0.317605 0.024363
H20   H     H_    0.471125 0.809203 0.317155 0.150622
H21   H     H_    0.433770 0.970337 0.325724 0.117735
C36   C     C_3   0.357849 0.865180 0.212889 -0.786519
H22   H     H_    0.270999 0.928555 0.210953 0.244766
H23   H     H_    0.458092 0.888270 0.150907 0.205110
H24   H     H_    0.323288 0.769643 0.198317 0.240305
O13   O     O_3   0.794354 0.578855 0.674852 -0.584191
C37   C     C_3   0.780271 0.707439 0.679871 0.138637
H25   H     H_    0.662827 0.727539 0.699656 0.176246
H26   H     H_    0.832862 0.752738 0.605979 0.165366
C38   C     C_3   0.838652 0.763952 0.765819 -0.839167
H27   H     H_    0.956455 0.747124 0.748721 0.263740
H28   H     H_    0.822113 0.864394 0.772463 0.230192
H29   H     H_    0.780441 0.723253 0.840692 0.250104
O14   O     O_3   0.195628 0.274062 0.380030 -0.737922
H30   H     H_    0.134970 0.265692 0.452489 0.344692
O15   O     O_3   0.944379 0.357079 0.256530 -0.510579
C39   C     C_3   0.953795 0.237310 0.210648 0.079468
H31   H     H_    0.870030 0.175009 0.259167 0.127735
H32   H     H_    0.063568 0.199534 0.199789 0.145975
C40   C     C_3   0.927822 0.239721 0.104969 -0.750322
H33   H     H_    0.004868 0.305857 0.056094 0.260214
H34   H     H_    0.944739 0.147178 0.066326 0.190561
H35   H     H_    0.814382 0.265991 0.113701 0.244612
O16   O     O_3   0.768059 0.883448 0.470402 -0.759949
H36   H     H_    0.847644 0.946174 0.459701 0.301842

loop_
_geom_bond_atom_site_label_1
_geom_bond_atom_site_label_2
_ccdc_geom_bond_type
Cu1   O7    S    
C22   N2    A    
O15   C39   S    
C18   H2    S    
Cu2   O8    S    
C27   C29   S    
C36   H22   S    
O16   H36   S    
C4    C8    A    
C12   O3    A    
C38   H27   S    
O14   H30   S    
C18   O10   S    
C11   C19   S    
C8    C29   A    
C8    H8    S    
C3    C7    A    
C30   C31   A    
C37   H26   S    
Cu1   O1    S    
C15   C16   A    
C28   H7    S    
C2    C32   A    
C18   C19   S    
C34   H16   S    
C12   O4    A    
C20   C24   A    
C26   O15   S    
C1    O1    A    
C19   O11   S    
C35   H20   S    
C1    O2    A    
C9    C29   A    
C33   C34   S    
C13   C14   A    
C36   H23   S    
O12   C35   S    
C15   H1    S    
C38   H28   S    
C23   O5    A    
Cu1   O5    S    
Cu2   O2    S    
O11   H19   S    
C24   N2    A    
C7    H12   S    
C24   C25   S    
C40   H33   S    
C27   O8    A    
C16   C17   A    
C25   C26   S    
O13   C37   S    
C22   H3    S    
C34   H17   S    
C2    C4    A    
C25   H4    S    
C40   H34   S    
C5    C28   A    
C10   C30   A    
C31   C32   A    
C39   C40   S    
C35   C36   S    
C25   O14   S    
C17   C18   S    
C32   H10   S    
C10   C12   S    
C39   H32   S    
Cu2   O6    S    
C16   C23   S    
C36   H24   S    
C30   H9    S    
C19   O12   S    
C1    C13   S    
C14   O16   S    
C38   H29   S    
C23   O6    A    
C6    H5    S    
C11   C17   A    
C37   H25   S    
C4    C5    A    
C6    C7    A    
Cu1   O3    S    
C27   O7    A    
Cu2   O4    S    
C2    C3    A    
C33   H13   S    
C3    C10   A    
C40   H35   S    
C11   C13   A    
C37   C38   S    
C26   H6    S    
O9    C33   S    
C5    C6    A    
C20   C26   S    
Cu1   Cu2   S    
C9    O9    S    
C34   H15   S    
C20   N1    A    
C39   H31   S    
O10   H18   S    
C31   H11   S    
C21   O13   S    
Cu1   N2    S    
C14   C15   A    
C35   H21   S    
Cu2   N1    S    
C21   C22   A    
C33   H14   S    
C9    C28   A    
C21   N1    A    
