data_mof_unit_21220.cif
_audit_creation_date              2012-12-11T16:17:38-0500
_audit_creation_method            fapswitch 2.2
_symmetry_space_group_name_H-M    P1
_symmetry_Int_Tables_number       1
_space_group_crystal_system       triclinic
_cell_length_a                    6.923029
_cell_length_b                    28.817582
_cell_length_c                    32.023726
_cell_angle_alpha                 101.158117
_cell_angle_beta                  89.746241
_cell_angle_gamma                 90.370578
_cell_volume                      6267.95806057

loop_
_atom_site_label
_atom_site_type_symbol
_atom_type_description
_atom_site_fract_x
_atom_site_fract_y
_atom_site_fract_z
_atom_type_partial_charge
O1    O     O_R   0.494350 0.453160 0.452490 -0.538533
O2    O     O_R   0.820990 0.455850 0.538220 -0.540955
O3    O     O_R   0.994300 0.546840 0.547510 -0.538152
C1    C     C_R   0.651658 0.445677 0.551652 0.708541
O4    O     O_R   0.823860 0.447580 0.452250 -0.541513
O5    O     O_R   0.997190 0.538510 0.460920 -0.538337
C2    C     C_R   0.654852 0.434554 0.436431 0.693946
O6    O     O_R   0.491450 0.461490 0.539080 -0.537478
O7    O     O_3   0.661790 0.529840 0.502950 -0.367425
V1    V     V_3+5 0.935470 0.494460 0.499450 1.409079
O8    O     O_R   0.327090 0.544150 0.461780 -0.540702
C3    C     C_R   0.158663 0.554388 0.448294 0.709906
O9    O     O_R   0.324210 0.552420 0.547750 -0.541654
C4    C     C_R   0.155174 0.565427 0.563588 0.693716
V2    V     V_3+5 0.435840 0.505540 0.500550 1.408627
O10   O     O_3   0.159650 0.470160 0.497050 -0.366434
C5    C     C_R   0.964036 0.619652 0.619816 -0.151484
H1    H     H_    0.831082 0.604039 0.605756 0.120577
C6    C     C_R   0.952473 0.655452 0.656190 -0.128017
H2    H     H_    0.811116 0.666252 0.668914 0.132867
C7    C     C_R   0.120628 0.676830 0.675900 0.019184
C8    C     C_R   0.300866 0.661438 0.658022 -0.124282
H3    H     H_    0.433568 0.677021 0.672228 0.138822
C9    C     C_R   0.312478 0.625594 0.621572 -0.154924
H4    H     H_    0.453693 0.614618 0.608862 0.118571
C10   C     C_R   0.144142 0.604121 0.601974 -0.052557
N1    N     N_R   0.269665 0.735204 0.734298 -0.273120
N2    N     N_R   0.257820 0.769054 0.769109 -0.278649
C11   C     C_R   0.083477 0.784062 0.786116 0.515945
N3    N     N_R   0.921492 0.763613 0.766657 -0.273403
N4    N     N_R   0.933337 0.729758 0.731852 -0.278384
C12   C     C_R   0.107672 0.714761 0.714836 0.517085
C13   C     C_R   0.890060 0.838035 0.842406 -0.125781
H5    H     H_    0.757356 0.822734 0.827966 0.138410
C14   C     C_R   0.878299 0.874136 0.878652 -0.158376
H6    H     H_    0.736987 0.885569 0.890992 0.116497
C15   C     C_R   0.046624 0.895333 0.898477 -0.052491
C16   C     C_R   0.226886 0.879144 0.881180 -0.158789
H7    H     H_    0.359833 0.894437 0.895518 0.119603
C17   C     C_R   0.238595 0.843101 0.844993 -0.129163
H8    H     H_    0.380056 0.831826 0.832652 0.132620
C18   C     C_R   0.070439 0.822099 0.824971 0.020115
C19   C     C_R   0.148398 0.657254 0.283117 0.574058
N5    N     N_R   0.119999 0.676401 0.325362 -0.561231
C20   C     C_R   0.080112 0.723598 0.338303 0.574919
C21   C     C_R   0.068017 0.753495 0.308363 -0.030941
C22   C     C_R   0.096127 0.734271 0.264885 -0.015842
C23   C     C_R   0.136415 0.685745 0.252038 -0.029861
C24   C     C_R   0.028862 0.802041 0.320818 -0.137983
C25   C     C_R   0.018266 0.831051 0.290569 -0.137828
C26   C     C_R   0.045559 0.812232 0.247045 -0.031488
C27   C     C_R   0.083982 0.763639 0.234183 -0.016433
C28   C     C_R   0.110466 0.744348 0.190694 -0.030327
C29   C     C_R   0.149689 0.695793 0.178231 -0.139353
C30   C     C_R   0.163014 0.666897 0.208517 -0.138214
C31   C     C_R   0.036696 0.840891 0.216035 0.575910
N6    N     N_R   0.061917 0.821670 0.173626 -0.550197
C32   C     C_R   0.096898 0.774140 0.160699 0.574021
O11   O     O_2   0.186541 0.610719 0.271136 -0.517543
O12   O     O_2   0.053381 0.741648 0.380021 -0.516477
H9    H     H_    0.006708 0.817838 0.354012 0.173732
H10   H     H_    0.988369 0.868283 0.301437 0.173690
O13   O     O_2   0.005664 0.887721 0.228344 -0.520040
O14   O     O_2   0.116893 0.755547 0.118895 -0.523596
H11   H     H_    0.170864 0.679941 0.145018 0.172743
H12   H     H_    0.193900 0.629711 0.197674 0.173252
C33   C     C_R   0.213100 0.855113 0.115584 -0.160250
H13   H     H_    0.341470 0.834687 0.118503 0.133449
C34   C     C_R   0.207216 0.883822 0.084674 0.242534
C35   C     C_R   0.041231 0.911631 0.081435 -0.083871
C36   C     C_R   0.882538 0.907997 0.108285 -0.276358
H14   H     H_    0.754107 0.928839 0.106742 0.150881
C37   C     C_R   0.888370 0.878278 0.138054 -0.093085
H15   H     H_    0.763542 0.876032 0.158078 0.141343
C38   C     C_R   0.054277 0.851873 0.142300 0.342923
C39   C     C_R   0.961847 0.633733 0.376233 -0.087801
H16   H     H_    0.823111 0.646687 0.368181 0.115904
C40   C     C_R   0.971064 0.604031 0.406013 -0.193579
H17   H     H_    0.838036 0.594827 0.420437 0.131438
C41   C     C_R   0.149623 0.586546 0.417030 -0.058834
C42   C     C_R   0.318590 0.599670 0.397402 -0.193221
H18   H     H_    0.458367 0.586835 0.404920 0.127865
C43   C     C_R   0.308811 0.629116 0.367368 -0.083891
H19   H     H_    0.440178 0.638574 0.352468 0.117393
C44   C     C_R   0.130416 0.646354 0.356571 0.383098
C45   C     C_R   0.728808 0.207176 0.825453 0.583714
N7    N     N_R   0.575322 0.176643 0.825491 -0.555253
C46   C     C_R   0.429578 0.174642 0.796130 0.580507
C47   C     C_R   0.433600 0.204161 0.765814 -0.030325
C48   C     C_R   0.591184 0.235139 0.765225 -0.020482
C49   C     C_R   0.740758 0.236559 0.795089 -0.027412
C50   C     C_R   0.284467 0.203225 0.735971 -0.146167
C51   C     C_R   0.292372 0.232448 0.705870 -0.143989
C52   C     C_R   0.449653 0.263346 0.704826 -0.027644
C53   C     C_R   0.599224 0.264767 0.734691 -0.020468
C54   C     C_R   0.756803 0.295746 0.734103 -0.030048
C55   C     C_R   0.905937 0.296683 0.763946 -0.146704
C56   C     C_R   0.898038 0.267458 0.794046 -0.144401
C57   C     C_R   0.461606 0.292728 0.674462 0.584007
N8    N     N_R   0.615084 0.323265 0.674426 -0.555244
C58   C     C_R   0.760821 0.325267 0.703789 0.579954
O15   O     O_2   0.868606 0.209670 0.855040 -0.527820
O16   O     O_2   0.282087 0.143735 0.795784 -0.525701
H20   H     H_    0.160758 0.179989 0.735815 0.171561
H21   H     H_    0.174496 0.230792 0.683492 0.170341
O17   O     O_2   0.321819 0.290231 0.644872 -0.527608
O18   O     O_2   0.908298 0.356179 0.704140 -0.526118
H22   H     H_    0.029645 0.319919 0.764103 0.171323
H23   H     H_    0.015916 0.269113 0.816423 0.170163
C59   C     C_R   0.785910 0.353519 0.616726 -0.084029
H24   H     H_    0.905594 0.330133 0.618993 0.163426
C60   C     C_R   0.795584 0.383515 0.587200 -0.204067
H25   H     H_    0.923498 0.382760 0.567490 0.139758
C61   C     C_R   0.640946 0.413628 0.582798 -0.058717
C62   C     C_R   0.476992 0.413234 0.608848 -0.204055
H26   H     H_    0.355998 0.436212 0.606469 0.134201
C63   C     C_R   0.469174 0.383955 0.639005 -0.085686
H27   H     H_    0.343124 0.385094 0.659314 0.158698
C64   C     C_R   0.623280 0.353643 0.643219 0.354218
C65   C     C_R   0.404526 0.146404 0.883203 -0.084285
H28   H     H_    0.284859 0.169796 0.880940 0.163305
C66   C     C_R   0.394867 0.116417 0.912736 -0.204147
H29   H     H_    0.266985 0.117185 0.932458 0.139325
C67   C     C_R   0.549493 0.086300 0.917135 -0.057732
C68   C     C_R   0.713410 0.086677 0.891072 -0.203689
H30   H     H_    0.834391 0.063694 0.893448 0.134552
C69   C     C_R   0.721212 0.115947 0.860908 -0.085358
H31   H     H_    0.847236 0.114798 0.840591 0.158945
C70   C     C_R   0.567126 0.146266 0.856700 0.354175
C71   C     C_R   0.463612 0.380490 0.379989 -0.151472
H32   H     H_    0.330867 0.396372 0.393763 0.120792
C72   C     C_R   0.452035 0.344573 0.343694 -0.126954
H33   H     H_    0.310851 0.333941 0.330736 0.133400
C73   C     C_R   0.620005 0.322854 0.324372 0.019215
C74   C     C_R   0.800024 0.338029 0.342532 -0.123804
H34   H     H_    0.932570 0.322185 0.328624 0.138861
C75   C     C_R   0.811648 0.373994 0.378882 -0.154241
H35   H     H_    0.952731 0.384780 0.391825 0.118795
C76   C     C_R   0.643541 0.395796 0.398108 -0.052530
N9    N     N_R   0.769066 0.263848 0.266613 -0.272664
N10   N     N_R   0.757420 0.229900 0.231869 -0.277618
C77   C     C_R   0.583397 0.215300 0.214394 0.517495
N11   N     N_R   0.421520 0.236248 0.233315 -0.272691
N12   N     N_R   0.433166 0.270196 0.268059 -0.277577
C78   C     C_R   0.607189 0.284796 0.285535 0.517659
C79   C     C_R   0.390559 0.162072 0.157394 -0.123716
H36   H     H_    0.258018 0.177927 0.171294 0.138794
C80   C     C_R   0.378928 0.126101 0.121050 -0.154456
H37   H     H_    0.237844 0.115319 0.108105 0.118196
C81   C     C_R   0.547027 0.104283 0.101834 -0.053621
C82   C     C_R   0.726956 0.119581 0.119958 -0.152022
H38   H     H_    0.859694 0.103684 0.106194 0.120185
C83   C     C_R   0.738540 0.155505 0.156247 -0.126878
H39   H     H_    0.879723 0.166130 0.169210 0.133338
C84   C     C_R   0.570577 0.177239 0.175559 0.019185
O19   O     O_R   0.699050 0.038480 0.960880 -0.538315
O20   O     O_R   0.366680 0.052470 0.047720 -0.542030
O21   O     O_R   0.193410 0.961530 0.039110 -0.511753
C85   C     C_R   0.535702 0.065506 0.063527 0.695853
O22   O     O_R   0.369510 0.044100 0.961740 -0.541876
O23   O     O_R   0.196260 0.953110 0.952520 -0.538682
C86   C     C_R   0.538822 0.054270 0.948298 0.705159
O24   O     O_R   0.696210 0.046900 0.047470 -0.539150
O25   O     O_3   0.528780 0.970170 0.997070 -0.356509
V3    V     V_3+5 0.255080 0.005530 0.000540 1.427965
O26   O     O_R   0.866350 0.947520 0.952280 -0.543808
C87   C     C_R   0.035446 0.934365 0.936573 0.678416
O27   O     O_R   0.863520 0.955880 0.038260 -0.543050
C88   C     C_R   0.032232 0.945025 0.051181 0.730398
V4    V     V_3+5 0.754720 0.994440 0.999470 1.415267
O28   O     O_3   0.030880 0.029830 0.002930 -0.369723
N13   N     N_2   0.368077 0.883953 0.056814 -0.504724
H40   H     H_    0.497980 0.876887 0.069855 0.248654
C89   C     C_3   0.341044 0.855469 0.014762 -0.463712
H41   H     H_    0.326580 0.817523 0.016760 0.193747
H42   H     H_    0.468023 0.859815 0.994525 0.187184
H43   H     H_    0.210401 0.866673 0.999403 0.175574

loop_
_geom_bond_atom_site_label_1
_geom_bond_atom_site_label_2
_ccdc_geom_bond_type
V3    O28   S    
C23   C30   A    
C16   C17   A    
N7    C46   A    
C20   O12   S    
C58   O18   S    
C51   C52   A    
C11   C18   S    
C37   H15   S    
O25   V4    S    
C53   C54   A    
C1    O6    A    
C30   H12   S    
C60   C61   A    
C61   C62   A    
N6    C32   A    
C74   H34   S    
C15   C87   S    
C29   H11   S    
C20   C21   A    
N13   H40   S    
C75   C76   A    
C21   C24   A    
C11   N3    A    
C65   C70   A    
C5    C10   A    
C39   C40   A    
C1    C61   S    
O25   V3    S    
C6    C7    A    
C35   C88   S    
C80   C81   A    
C45   C49   A    
C63   C64   A    
O5    C3    A    
N3    N4    A    
C40   C41   A    
V4    O28   S    
N11   N12   A    
C31   N6    A    
C26   C31   A    
C21   C22   A    
O19   V4    S    
C57   O17   S    
O24   V4    S    
C89   H41   S    
N8    C58   A    
C59   C60   A    
C51   H21   S    
C59   H24   S    
C55   H22   S    
O8    V2    S    
C77   N11   A    
C79   C84   A    
C43   H19   S    
C65   C66   A    
C72   H33   S    
C62   C63   A    
C82   H38   S    
C9    H4    S    
C35   C36   A    
O1    V2    S    
C77   C84   S    
C83   C84   A    
C19   C23   A    
C67   C86   S    
C19   O11   S    
O27   V4    S    
O19   C86   A    
O20   C85   A    
C56   H23   S    
O9    C4    A    
C37   C38   A    
C52   C53   A    
C71   C76   A    
C60   H25   S    
C42   C43   A    
N13   C89   S    
C55   C56   A    
C79   C80   A    
C32   O14   S    
C16   H7    S    
C7    C12   S    
C24   H9    S    
C81   C85   S    
C33   H13   S    
C22   C23   A    
O27   C88   A    
C48   C53   A    
C54   C58   A    
C39   H16   S    
O20   V3    S    
C36   C37   A    
C45   N7    A    
C41   C42   A    
C25   C26   A    
C28   C29   A    
C42   H18   S    
C26   C27   A    
C33   C34   A    
C34   N13   S    
O22   C86   A    
C59   C64   A    
C22   C27   A    
O2    C1    A    
C19   N5    A    
C69   C70   A    
C15   C16   A    
C57   N8    A    
C28   C32   A    
C54   C55   A    
C4    C10   S    
C5    H1    S    
C31   O13   S    
N8    C64   S    
O22   V3    S    
N9    N10   A    
C47   C50   A    
C89   H43   S    
O23   C87   A    
O3    C4    A    
C17   H8    S    
C43   C44   A    
O26   V4    S    
O6    V2    S    
O9    V2    S    
O26   C87   A    
C25   H10   S    
C85   O24   A    
C33   C38   A    
C13   C18   A    
C66   C67   A    
N5    C44   S    
C45   O15   S    
C46   O16   S    
C65   H28   S    
O4    C2    A    
C79   H36   S    
O7    V1    S    
C74   C75   A    
C73   C78   S    
C29   C30   A    
N2    C11   A    
C14   C15   A    
N1    C12   A    
O1    C2    A    
N4    C12   A    
N5    C20   A    
C9    C10   A    
N12   C78   A    
N9    C78   A    
O5    V1    S    
O8    C3    A    
O21   C88   A    
C73   C74   A    
C75   H35   S    
C63   H27   S    
C81   C82   A    
C71   C72   A    
N6    C38   S    
C6    H2    S    
C71   H32   S    
C66   H29   S    
C36   H14   S    
O3    V1    S    
V1    O10   S    
N10   C77   A    
C2    C76   S    
C40   H17   S    
N7    C70   S    
C48   C49   A    
C68   H30   S    
C52   C57   A    
V2    O10   S    
C3    C41   S    
C17   C18   A    
C50   C51   A    
C13   C14   A    
C13   H5    S    
C8    C9    A    
C80   H37   S    
C82   C83   A    
C49   C56   A    
O7    V2    S    
C34   C35   A    
C89   H42   S    
C50   H20   S    
C5    C6    A    
O4    V1    S    
C46   C47   A    
C72   C73   A    
C24   C25   A    
N1    N2    A    
C68   C69   A    
C8    H3    S    
C14   H6    S    
C62   H26   S    
C47   C48   A    
C7    C8    A    
C39   C44   A    
O23   V3    S    
C69   H31   S    
O21   V3    S    
C27   C28   A    
C67   C68   A    
C83   H39   S    
O2    V1    S    
