data_mof_unit_22842.cif
_audit_creation_date              2012-12-10T18:52:58-0500
_audit_creation_method            fapswitch 2.2
_symmetry_space_group_name_H-M    P1
_symmetry_Int_Tables_number       1
_space_group_crystal_system       triclinic
_cell_length_a                    9.836474
_cell_length_b                    10.669669
_cell_length_c                    16.770113
_cell_angle_alpha                 90.245982
_cell_angle_beta                  85.328687
_cell_angle_gamma                 90.352246
_cell_volume                      1754.16333619

loop_
_atom_site_label
_atom_site_type_symbol
_atom_type_description
_atom_site_fract_x
_atom_site_fract_y
_atom_site_fract_z
_atom_type_partial_charge
C1    C     C_R   0.500248 0.740065 0.499815 0.863919
C2    C     C_R   0.499645 0.259971 0.499746 0.861135
C3    C     C_R   0.612520 0.936336 0.463060 -0.219661
C4    C     C_R   0.385661 0.063808 0.534293 -0.197890
C5    C     C_R   0.612572 0.064829 0.463456 -0.191533
C6    C     C_R   0.385987 0.935333 0.534382 -0.193686
C7    C     C_R   0.499159 0.127636 0.499090 0.003132
C8    C     C_R   0.499897 0.872473 0.499252 -0.003998
C9    C     C_R   0.933135 0.415192 0.454892 -0.341756
C10   C     C_R   0.066542 0.583675 0.545596 -0.311215
C11   C     C_R   0.079465 0.413729 0.454487 0.577491
C12   C     C_R   0.921930 0.585810 0.544881 0.556945
C13   C     C_R   0.481232 0.500185 0.653285 0.886867
C14   C     C_R   0.518675 0.492981 0.346992 0.883919
C15   C     C_R   0.469821 0.490247 0.739864 -0.083220
C16   C     C_R   0.529305 0.451769 0.264011 -0.071864
C17   C     C_R   0.584768 0.512432 0.781994 -0.305786
C18   C     C_R   0.420030 0.384841 0.235488 -0.315808
C19   C     C_R   0.579499 0.489771 0.864141 0.475070
C20   C     C_R   0.429692 0.336439 0.157877 0.457637
C21   C     C_R   0.457779 0.441823 0.902900 0.111303
C22   C     C_R   0.548732 0.360301 0.108061 0.118507
C23   C     C_R   0.341041 0.426880 0.861598 -0.239276
C24   C     C_R   0.661346 0.419403 0.138134 -0.221088
C25   C     C_R   0.346916 0.450655 0.780241 -0.203405
C26   C     C_R   0.651957 0.464651 0.216179 -0.213010
C27   C     C_2   0.447536 0.413060 0.987783 -0.126213
C28   C     C_2   0.546146 0.351877 0.021619 -0.095731
H1    H     H_    0.678686 0.546451 0.750986 0.176031
H2    H     H_    0.327329 0.369791 0.273535 0.180105
H3    H     H_    0.738729 0.512666 0.238327 0.163972
H4    H     H_    0.256788 0.433922 0.748594 0.169319
H5    H     H_    0.635670 0.317877 0.985969 0.170657
H6    H     H_    0.359492 0.449440 0.023821 0.168855
H7    H     H_    0.246362 0.393505 0.892040 0.164465
H8    H     H_    0.753042 0.437953 0.099587 0.174164
H9    H     H_    0.699266 0.886961 0.434349 0.146646
H10   H     H_    0.298468 0.113112 0.562604 0.149480
H11   H     H_    0.699702 0.115035 0.435411 0.155764
H12   H     H_    0.298777 0.885321 0.562630 0.149141
H13   H     H_    0.877689 0.349473 0.420659 0.167231
H14   H     H_    0.118088 0.648430 0.582786 0.164964
N1    N     N_R   0.142790 0.500030 0.500020 -0.124826
N2    N     N_R   0.857210 0.499970 0.499980 -0.123586
O1    O     O_R   0.385380 0.683250 0.500010 -0.626766
O2    O     O_R   0.614620 0.316750 0.499990 -0.633513
O3    O     O_R   0.614710 0.683220 0.500000 -0.597760
O4    O     O_R   0.385290 0.316780 0.500000 -0.574059
O5    O     O_R   0.371780 0.500040 0.615800 -0.630627
O6    O     O_R   0.628220 0.499960 0.384200 -0.627622
O7    O     O_R   0.601110 0.500010 0.615800 -0.573502
O8    O     O_R   0.398890 0.499990 0.384200 -0.579747
Zn1   Zn    Zn3+2 0.346870 0.500020 0.500000 0.984308
Zn2   Zn    Zn3+2 0.653130 0.499980 0.500000 0.977894
O9    O     O_3   0.323268 0.270370 0.128310 -0.783268
H15   H     H_    0.247367 0.263224 0.170777 0.320441
O10   O     O_3   0.689856 0.516067 0.907569 -0.796419
H16   H     H_    0.765872 0.549400 0.871103 0.330126
O11   O     O_3   0.164673 0.329255 0.410874 -0.619556
C29   C     C_3   0.099507 0.235850 0.367304 0.038605
H17   H     H_    0.178332 0.196624 0.323101 0.169977
H18   H     H_    0.020964 0.274470 0.330387 0.118660
C30   C     C_3   0.046921 0.127464 0.421600 -0.361512
H19   H     H_    0.132730 0.089492 0.453036 0.236589
H20   H     H_    0.967537 0.160383 0.467602 0.211386
C31   C     C_3   0.987367 0.022338 0.373025 -0.957071
H21   H     H_    0.901740 0.057890 0.340401 0.262657
H22   H     H_    0.948539 0.946216 0.413726 0.251715
H23   H     H_    0.067044 0.983152 0.329332 0.274591
O12   O     O_3   0.843576 0.666832 0.594144 -0.621214
C32   C     C_3   0.883893 0.793477 0.581225 0.061471
H24   H     H_    0.792403 0.846626 0.567291 0.184721
H25   H     H_    0.961569 0.808236 0.529716 0.110483
C33   C     C_3   0.934858 0.849256 0.657586 -0.350980
H26   H     H_    0.852667 0.842412 0.706986 0.235230
H27   H     H_    0.024135 0.795815 0.675131 0.212467
C34   C     C_3   0.976004 0.986564 0.645697 -0.956123
H28   H     H_    0.059938 0.995271 0.597549 0.254558
H29   H     H_    0.011937 0.024860 0.702000 0.270286
H30   H     H_    0.887515 0.042558 0.629475 0.270404

loop_
_geom_bond_atom_site_label_1
_geom_bond_atom_site_label_2
_ccdc_geom_bond_type
C31   H22   S    
O9    H15   S    
C30   H20   S    
C10   H14   S    
C1    C8    S    
C17   H1    S    
C2    C7    S    
C34   H28   S    
C19   O10   S    
O6    Zn2   S    
C33   H27   S    
C29   C30   S    
C19   C21   A    
C24   C26   A    
C20   O9    S    
C15   C25   A    
C31   H23   S    
C29   H18   S    
C13   O7    A    
C21   C23   A    
N1    Zn1   S    
C14   O8    A    
C33   C34   S    
C11   N1    A    
O12   C32   S    
C18   H2    S    
C18   C20   A    
C25   H4    S    
C31   H21   S    
C21   C27   S    
C30   C31   S    
O1    Zn1   S    
O11   C29   S    
C22   C28   S    
C4    C7    A    
C11   O11   S    
C34   H29   S    
C27   H6    S    
C16   C26   A    
O4    Zn1   S    
C33   H26   S    
C6    H12   S    
C4    C6    A    
C3    C8    A    
C5    C7    A    
C1    O3    A    
C6    C8    A    
C2    O4    A    
C2    O2    A    
C29   H17   S    
O2    Zn2   S    
C24   H8    S    
C9    C11   A    
C10   C12   A    
O3    Zn2   S    
C13   O5    A    
C4    H10   S    
C28   H5    S    
C23   H7    S    
C13   C15   S    
C14   C16   S    
O8    Zn1   S    
C32   H25   S    
C34   H30   S    
C15   C17   A    
C12   O12   S    
C9    N2    A    
C10   N1    A    
C20   C22   A    
C3    C5    A    
C32   C33   S    
C9    H13   S    
O7    Zn2   S    
C5    H11   S    
C32   H24   S    
C12   N2    A    
C1    O1    A    
O10   H16   S    
C14   O6    A    
O5    Zn1   S    
C17   C19   A    
C22   C24   A    
C23   C25   A    
C30   H19   S    
N2    Zn2   S    
C26   H3    S    
C3    H9    S    
C16   C18   A    
C27   C28   D    
