data_mof_unit_43089.cif
_audit_creation_date              2012-12-10T19:25:56-0500
_audit_creation_method            fapswitch 2.2
_symmetry_space_group_name_H-M    P1
_symmetry_Int_Tables_number       1
_space_group_crystal_system       triclinic
_cell_length_a                    9.792744
_cell_length_b                    10.49657
_cell_length_c                    16.751133
_cell_angle_alpha                 89.439364
_cell_angle_beta                  84.914483
_cell_angle_gamma                 90.710717
_cell_volume                      1714.84027607

loop_
_atom_site_label
_atom_site_type_symbol
_atom_type_description
_atom_site_fract_x
_atom_site_fract_y
_atom_site_fract_z
_atom_type_partial_charge
C1    C     C_R   0.500947 0.742250 0.497996 0.899630
C2    C     C_3   0.605173 0.961181 0.445703 -0.137745
C3    C     C_3   0.957308 0.608957 0.477180 0.057807
C4    C     C_3   0.042754 0.391038 0.522834 0.063732
C5    C     C_3   0.059935 0.524231 0.428694 -0.243705
C6    C     C_3   0.940068 0.475781 0.571276 -0.283910
C7    C     C_3   0.042188 0.584820 0.547697 0.026591
C8    C     C_3   0.957814 0.415115 0.452270 0.069416
C9    C     C_R   0.481152 0.500372 0.652702 0.983626
C10   C     C_R   0.519225 0.495323 0.346807 0.859258
C11   C     C_R   0.475889 0.480514 0.738742 -0.090259
C12   C     C_R   0.499550 0.257466 0.499300 0.959692
C13   C     C_R   0.533159 0.466090 0.260861 -0.203398
C14   C     C_R   0.515398 0.358542 0.764419 -0.052448
C15   C     C_R   0.435859 0.384313 0.227894 -0.082512
C16   C     C_R   0.581986 0.345880 0.834951 0.158393
C17   C     C_R   0.459572 0.344559 0.148031 0.164464
C18   C     C_R   0.597506 0.454725 0.882384 0.119891
C19   C     C_R   0.579324 0.385074 0.101730 0.103581
C20   C     C_R   0.548433 0.572857 0.859330 -0.280295
C21   C     C_R   0.676895 0.460951 0.135544 -0.180983
C22   C     C_R   0.487916 0.587513 0.787831 -0.047613
C23   C     C_3   0.381356 0.956517 0.473311 -0.084197
C24   C     C_R   0.652510 0.507008 0.213024 -0.036555
C25   C     C_2   0.646842 0.447611 0.962195 -0.243732
C26   C     C_2   0.590909 0.361443 0.015089 -0.192151
C27   C     C_2   0.495296 0.245555 0.714265 0.357213
C28   C     C_2   0.309943 0.336365 0.275241 0.440360
C29   C     C_2   0.904736 0.731112 0.445710 0.493119
C30   C     C_2   0.095615 0.269740 0.555318 0.481509
C31   C     C_2   0.096739 0.674518 0.606507 0.516832
C32   C     C_2   0.903258 0.325273 0.393445 0.485135
C33   C     C_2   0.748601 0.604633 0.240644 0.388279
C34   C     C_3   0.620312 0.042435 0.520757 -0.096948
C35   C     C_2   0.444196 0.717096 0.765390 0.350626
C36   C     C_3   0.388532 0.128862 0.122136 -0.782928
C37   C     C_3   0.553013 0.119298 0.874760 -0.817252
C38   C     C_3   0.484681 0.043546 0.422932 -0.195326
C39   C     C_3   0.517008 0.955676 0.571240 -0.173630
C40   C     C_3   0.499372 0.122034 0.498058 -0.033264
C41   C     C_3   0.501951 0.877205 0.496366 -0.037194
C42   C     C_3   0.396209 0.037356 0.548398 -0.038016
H1    H     H_    0.525409 0.287906 0.993832 0.216834
H2    H     H_    0.689681 0.925986 0.403452 0.173385
H3    H     H_    0.114866 0.544766 0.369011 0.151916
H4    H     H_    0.885041 0.455254 0.630947 0.152308
H5    H     H_    0.570565 0.170486 0.708960 0.096474
H6    H     H_    0.209867 0.356208 0.255326 0.047449
H7    H     H_    0.856981 0.731378 0.389862 0.025650
H8    H     H_    0.145511 0.271390 0.610545 0.078438
H9    H     H_    0.135412 0.636567 0.660416 0.083983
H10   H     H_    0.857670 0.363076 0.341659 0.055627
H11   H     H_    0.714550 0.669657 0.287965 0.053185
H12   H     H_    0.699407 0.531463 0.982212 0.161667
H13   H     H_    0.473104 0.798822 0.799702 0.069602
H14   H     H_    0.261682 0.286602 0.126186 0.223185
H15   H     H_    0.315853 0.073518 0.088317 0.247228
H16   H     H_    0.373813 0.099826 0.186330 0.255622
H17   H     H_    0.494609 0.106236 0.097770 0.241900
H18   H     H_    0.728852 0.232766 0.885722 0.246613
H19   H     H_    0.567570 0.084660 0.936257 0.235442
H20   H     H_    0.578756 0.040598 0.832537 0.242687
H21   H     H_    0.443286 0.143852 0.872414 0.260832
H22   H     H_    0.557355 0.654557 0.897828 0.143907
H23   H     H_    0.770216 0.489538 0.100082 0.184578
H24   H     H_    0.473223 0.082020 0.362045 0.192986
H25   H     H_    0.531592 0.916533 0.631606 0.176040
H26   H     H_    0.283797 0.917773 0.453792 0.207183
H27   H     H_    0.717866 0.081087 0.540337 0.204461
H28   H     H_    0.308222 0.068390 0.589421 0.219981
N1    N     N_3   0.136700 0.499970 0.500060 -0.137063
N2    N     N_3   0.863300 0.500030 0.499940 -0.138233
N3    N     N_2   0.363170 0.263528 0.113350 -0.325870
N4    N     N_2   0.643374 0.227594 0.854040 -0.327772
O1    O     O_R   0.383390 0.686040 0.500000 -0.605149
O2    O     O_2   0.317311 0.270529 0.335060 -0.554335
O3    O     O_2   0.915035 0.830319 0.482092 -0.504712
O4    O     O_2   0.083162 0.169294 0.520577 -0.490205
O5    O     O_2   0.098713 0.789347 0.594447 -0.503016
O6    O     O_2   0.909335 0.210259 0.403011 -0.514271
O7    O     O_2   0.866110 0.615062 0.209899 -0.596537
O8    O     O_2   0.373110 0.734274 0.710102 -0.590322
O9    O     O_R   0.616610 0.313960 0.500000 -0.633880
O10   O     O_R   0.616650 0.686050 0.499970 -0.628140
O11   O     O_R   0.383350 0.313950 0.500030 -0.573041
O12   O     O_R   0.369590 0.500020 0.615820 -0.603090
O13   O     O_R   0.630410 0.499980 0.384180 -0.663973
O14   O     O_R   0.602840 0.500020 0.615790 -0.636405
O15   O     O_R   0.397160 0.499980 0.384210 -0.588059
O16   O     O_2   0.390816 0.234214 0.680367 -0.631775
Zn1   Zn    Zn3+2 0.344250 0.499990 0.500020 1.003904
Zn2   Zn    Zn3+2 0.655750 0.500010 0.499980 0.947685

loop_
_geom_bond_atom_site_label_1
_geom_bond_atom_site_label_2
_ccdc_geom_bond_type
C37   N4    S    
C20   H22   S    
C4    C8    S    
C36   H17   S    
C37   H20   S    
O11   Zn1   S    
C39   C41   S    
C29   H7    S    
C1    O10   A    
C6    N2    S    
C22   C35   S    
C23   C42   S    
C12   O11   A    
C16   N4    S    
C19   C21   A    
C36   H16   S    
O12   Zn1   S    
C9    O14   A    
C7    N1    S    
N2    Zn2   S    
C11   C14   A    
C2    C41   S    
C42   H28   S    
C27   O16   D    
C3    C29   S    
C19   C26   S    
C32   H10   S    
C38   H24   S    
C10   O15   A    
C2    H2    S    
C14   C27   S    
O15   Zn1   S    
O1    Zn1   S    
C2    C34   S    
C40   C42   S    
C30   H8    S    
O13   Zn2   S    
C17   N3    S    
C18   C25   S    
C37   H21   S    
C35   O8    D    
C26   H1    S    
C39   C42   S    
C33   H11   S    
C10   O13   A    
C8    N2    S    
C7    C31   S    
C35   H13   S    
C34   C39   S    
C1    O1    A    
O14   Zn2   S    
C25   H12   S    
C4    C6    S    
C36   H15   S    
C25   C26   D    
C5    H3    S    
C12   O9    A    
C8    C32   S    
C23   H26   S    
C12   C40   S    
O9    Zn2   S    
C9    O12   A    
C32   O6    D    
C2    C38   S    
N1    Zn1   S    
C9    C11   S    
C34   H27   S    
C1    C41   S    
C20   C22   A    
C13   C15   A    
C14   C16   A    
C28   O2    D    
C27   H5    S    
C15   C17   A    
C28   H6    S    
H14   N3    S    
C6    H4    S    
C21   H23   S    
C39   H25   S    
C31   H9    S    
C3    C5    S    
C10   C13   S    
C5    C8    S    
C37   H19   S    
C31   O5    D    
C6    C7    S    
C23   C38   S    
C11   C22   A    
C3    C7    S    
C24   C33   S    
C23   C41   S    
C3    N2    S    
C5    N1    S    
C38   C40   S    
C15   C28   S    
H18   N4    S    
C17   C19   A    
C18   C20   A    
C36   N3    S    
C30   O4    D    
C29   O3    D    
C13   C24   A    
C16   C18   A    
C21   C24   A    
C34   C40   S    
O10   Zn2   S    
C33   O7    D    
C4    N1    S    
C4    C30   S    
