data_mof_unit_21042.cif
_audit_creation_date              2012-12-10T17:44:55-0500
_audit_creation_method            fapswitch 2.2
_symmetry_space_group_name_H-M    P1
_symmetry_Int_Tables_number       1
_space_group_crystal_system       triclinic
_cell_length_a                    15.062649
_cell_length_b                    13.721126
_cell_length_c                    19.389917
_cell_angle_alpha                 89.71388
_cell_angle_beta                  89.643276
_cell_angle_gamma                 89.934053
_cell_volume                      4007.31012445

loop_
_atom_site_label
_atom_site_type_symbol
_atom_type_description
_atom_site_fract_x
_atom_site_fract_y
_atom_site_fract_z
_atom_type_partial_charge
C1    C     C_R   0.328681 0.500093 0.499912 0.789998
C2    C     C_R   0.671413 0.500043 0.500014 0.820677
C3    C     C_R   0.814180 0.422294 0.529971 -0.170276
C4    C     C_R   0.186320 0.580584 0.472606 -0.185360
C5    C     C_R   0.907096 0.421240 0.530665 0.091635
C6    C     C_R   0.093455 0.580867 0.470723 0.095314
C7    C     C_R   0.953635 0.500444 0.500433 0.002525
C8    C     C_R   0.046806 0.500689 0.499501 0.004039
C9    C     C_R   0.906984 0.579579 0.471176 0.080511
C10   C     C_R   0.093425 0.420723 0.527574 0.090038
C11   C     C_R   0.954630 0.342759 0.560245 0.251233
C12   C     C_R   0.046165 0.659483 0.441277 0.249080
C13   C     C_R   0.047365 0.342523 0.557205 -0.242777
C14   C     C_R   0.953313 0.657870 0.441690 -0.226974
C15   C     C_R   0.427355 0.793143 0.523209 0.082964
C16   C     C_R   0.573141 0.206584 0.478040 0.124950
C17   C     C_R   0.572717 0.793304 0.476908 0.105535
C18   C     C_R   0.426493 0.206519 0.521608 0.126019
C19   C     C_R   0.574989 0.896597 0.475127 -0.154706
C20   C     C_R   0.422521 0.103245 0.519390 -0.138813
C21   C     C_R   0.425051 0.896394 0.524803 -0.130955
C22   C     C_R   0.576888 0.103321 0.480174 -0.134329
C23   C     C_R   0.499819 0.948218 0.499689 -0.024217
C24   C     C_R   0.499679 0.051471 0.499630 -0.027149
C25   C     C_R   0.651078 0.949111 0.451903 0.321187
C26   C     C_R   0.344437 0.050990 0.537769 0.320182
C27   C     C_R   0.349589 0.948579 0.549264 0.269164
C28   C     C_R   0.655450 0.051343 0.463102 0.279660
C29   C     C_R   0.498481 0.500338 0.367318 0.829533
C30   C     C_R   0.499839 0.499892 0.632538 0.840476
C31   C     C_R   0.529277 0.581014 0.252855 0.180111
C32   C     C_R   0.454862 0.424743 0.745428 0.207552
C33   C     C_R   0.545356 0.572530 0.745190 0.187056
C34   C     C_R   0.459947 0.419960 0.255192 0.206611
C35   C     C_R   0.532922 0.576726 0.180932 -0.216808
C36   C     C_R   0.459031 0.422108 0.817453 -0.218892
C37   C     C_R   0.548475 0.568380 0.817181 -0.212197
C38   C     C_R   0.464117 0.417739 0.183077 -0.217287
C39   C     C_R   0.500855 0.495494 0.145595 -0.010935
C40   C     C_R   0.505223 0.493803 0.853763 -0.012953
C41   C     C_R   0.495160 0.500930 0.291038 -0.102437
C42   C     C_R   0.499331 0.499603 0.708563 -0.092209
C43   C     C_R   0.506291 0.492453 0.929754 0.446583
C44   C     C_R   0.503899 0.493375 0.069633 0.446453
C45   C     C_R   0.814456 0.579025 0.471447 -0.175206
C46   C     C_R   0.185774 0.420496 0.526366 -0.172517
C47   C     C_R   0.768171 0.500379 0.500353 -0.113412
C48   C     C_R   0.232116 0.500377 0.499582 -0.109404
Cu1   Cu    Cu3+1 0.500000 0.597420 0.500000 0.969756
Cu2   Cu    Cu3+1 0.500000 0.402580 0.500000 0.985380
H1    H     H_    0.560244 0.638271 0.152787 0.169272
H2    H     H_    0.424218 0.364702 0.844976 0.164959
H3    H     H_    0.584732 0.624341 0.844330 0.167312
H4    H     H_    0.437440 0.355179 0.156412 0.164036
H5    H     H_    0.778326 0.639099 0.448291 0.197150
H6    H     H_    0.221717 0.359077 0.547706 0.192686
H7    H     H_    0.776885 0.363337 0.553232 0.219503
H8    H     H_    0.223569 0.641936 0.452290 0.193175
H9    H     H_    0.083464 0.281795 0.579441 0.199069
H10   H     H_    0.917512 0.717642 0.418059 0.203403
H11   H     H_    0.370490 0.751064 0.538952 0.202054
H12   H     H_    0.628156 0.248138 0.457739 0.192714
H13   H     H_    0.629598 0.751227 0.461516 0.202965
H14   H     H_    0.371566 0.247936 0.542010 0.187272
N1    N     N_R   0.465963 0.419299 0.034311 -0.236290
N2    N     N_R   0.544722 0.566121 0.965112 -0.237390
N3    N     N_R   0.467079 0.418895 0.965715 -0.236832
N4    N     N_R   0.543534 0.566571 0.033646 -0.237091
N5    N     N_R   0.500000 0.743810 0.500000 -0.222561
N6    N     N_R   0.500000 0.256190 0.500000 -0.220200
O1    O     O_R   0.370260 0.582280 0.500020 -0.600361
O2    O     O_R   0.629740 0.417720 0.499980 -0.590089
O3    O     O_R   0.629740 0.582280 0.499980 -0.589334
O4    O     O_R   0.370260 0.417720 0.500020 -0.585840
O5    O     O_R   0.499990 0.582300 0.400140 -0.558424
O6    O     O_R   0.500010 0.417700 0.599860 -0.557875
O7    O     O_R   0.500010 0.582300 0.599860 -0.555412
O8    O     O_R   0.499990 0.417700 0.400140 -0.547361
N7    N     N_2   0.561746 0.665811 0.286188 -0.395193
H15   H     H_    0.621245 0.690058 0.265864 0.283435
C49   C     C_3   0.497131 0.743726 0.291065 -0.568311
H16   H     H_    0.480888 0.772077 0.238841 0.204937
H17   H     H_    0.524650 0.804168 0.322144 0.249076
H18   H     H_    0.435341 0.717609 0.316706 0.225424
N8    N     N_2   0.403973 0.352948 0.710630 -0.416060
H19   H     H_    0.402498 0.286219 0.735390 0.258908
C50   C     C_3   0.316177 0.385383 0.691176 -0.632519
H20   H     H_    0.276243 0.403022 0.737876 0.227897
H21   H     H_    0.282225 0.326550 0.662624 0.248451
H22   H     H_    0.320131 0.450635 0.657183 0.217149
N9    N     N_2   0.591889 0.648139 0.709872 -0.427033
H23   H     H_    0.655762 0.657553 0.727531 0.251505
C51   C     C_3   0.544064 0.739573 0.706436 -0.567238
H24   H     H_    0.537334 0.771628 0.758740 0.210433
H25   H     H_    0.476973 0.728715 0.684308 0.266948
H26   H     H_    0.580933 0.791467 0.672773 0.220695
N10   N     N_2   0.419071 0.340831 0.291086 -0.408367
H27   H     H_    0.424722 0.274739 0.266276 0.257174
C52   C     C_3   0.329011 0.359886 0.313790 -0.594460
H28   H     H_    0.284856 0.369302 0.268527 0.212472
H29   H     H_    0.325928 0.426442 0.346091 0.209184
H30   H     H_    0.304713 0.297489 0.345309 0.257693
N11   N     N_2   0.909969 0.263516 0.592861 -0.372406
H31   H     H_    0.941547 0.197351 0.586488 0.285789
C53   C     C_3   0.886533 0.280910 0.664199 -0.644027
H32   H     H_    0.947498 0.288816 0.695691 0.223126
H33   H     H_    0.847416 0.218346 0.684423 0.244655
H34   H     H_    0.845430 0.347825 0.669072 0.223300
N12   N     N_2   0.091301 0.740558 0.411332 -0.399671
H35   H     H_    0.058652 0.805986 0.418201 0.296021
C54   C     C_3   0.117708 0.726287 0.340237 -0.681007
H36   H     H_    0.058108 0.718974 0.307143 0.231905
H37   H     H_    0.159653 0.660051 0.334999 0.225683
H38   H     H_    0.156950 0.790047 0.322188 0.244459
S1    S     S_3+6 0.737690 0.888266 0.405691 -0.003253
O9    O     O_2   0.797243 0.838899 0.457006 -0.336974
O10   O     O_2   0.699529 0.812966 0.358374 -0.353032
O11   O     O_3   0.797413 0.966175 0.356917 -0.422483
H39   H     H_    0.849556 0.928069 0.341155 0.375785
S2    S     S_3+6 0.239497 0.111734 0.536033 -0.003222
O12   O     O_2   0.224518 0.161651 0.603914 -0.357909
O13   O     O_2   0.239063 0.186639 0.479162 -0.338452
O14   O     O_3   0.155907 0.033554 0.521298 -0.419392
H40   H     H_    0.101102 0.072924 0.526399 0.379801
S3    S     S_3+6 0.267476 0.887336 0.600496 0.047879
O15   O     O_2   0.204454 0.835024 0.553692 -0.221308
O16   O     O_2   0.310865 0.813724 0.647132 -0.346705
O17   O     O_3   0.209728 0.964741 0.650609 -0.417683
H41   H     H_    0.253451 0.989728 0.684115 0.351282
S4    S     S_3+6 0.759891 0.112145 0.468790 0.043218
O18   O     O_2   0.778765 0.164770 0.402161 -0.219131
O19   O     O_2   0.755685 0.185328 0.526004 -0.347688
O20   O     O_3   0.844036 0.035343 0.486039 -0.429819
H42   H     H_    0.833207 0.012901 0.533994 0.354143

loop_
_geom_bond_atom_site_label_1
_geom_bond_atom_site_label_2
_ccdc_geom_bond_type
C18   N6    A    
N2    N4    A    
C50   H20   S    
C9    C45   A    
C51   H24   S    
O14   H40   S    
C19   C23   A    
C54   H36   S    
O17   H41   S    
N10   H27   S    
C7    C8    A    
N8    H19   S    
C25   C28   A    
C17   N5    A    
C53   H33   S    
C26   C27   A    
C1    O1    A    
C33   C42   A    
C32   C36   A    
C22   C24   A    
C26   S2    S    
C5    C11   A    
C37   C40   A    
C25   S1    S    
C6    C12   A    
C38   C39   A    
C32   N8    S    
S1    O9    D    
C11   C13   A    
C34   N10   S    
Cu2   O2    S    
O11   H39   S    
N12   C54   S    
C49   H17   S    
C30   O7    A    
N11   C53   S    
C40   C43   S    
C29   O8    A    
C20   C24   A    
N1    N3    A    
C10   C46   A    
S3    O17   S    
C23   C24   A    
Cu1   O5    S    
C18   C20   A    
C36   H2    S    
S2    O14   S    
C37   H3    S    
C45   C47   A    
C21   C27   A    
C51   H25   S    
Cu1   N5    S    
C44   N1    A    
C34   C41   A    
C16   H12   S    
C2    O2    A    
Cu2   O8    S    
C22   C28   A    
C12   N12   S    
N10   C52   S    
S2    O13   D    
C49   H16   S    
N8    C50   S    
C21   C23   A    
C15   N5    A    
C53   H34   S    
C46   C48   A    
C36   C40   A    
C16   N6    A    
C4    C6    A    
N9    H23   S    
C5    C7    A    
C6    C8    A    
S1    O10   D    
C33   C37   A    
S4    O19   D    
C9    C14   A    
Cu2   O6    S    
N9    C51   S    
C30   O6    A    
C52   H28   S    
C38   H4    S    
S1    O11   S    
C15   H11   S    
C54   H37   S    
C2    O3    A    
C29   O5    A    
C3    H7    S    
C43   N3    A    
C52   H29   S    
C12   C14   A    
C51   H26   S    
C50   H21   S    
C35   H1    S    
S3    O15   D    
Cu1   O3    S    
C44   N4    A    
S4    O20   S    
C1    O4    A    
C4    H8    S    
C49   H18   S    
S2    O12   D    
N7    C49   S    
C4    C48   A    
C7    C9    A    
C16   C22   A    
C31   C41   A    
C29   C41   S    
C34   C38   A    
C3    C5    A    
C10   C13   A    
C1    C48   S    
C31   N7    S    
C39   C44   S    
C13   H9    S    
C2    C47   S    
C14   H10   S    
C53   H32   S    
Cu2   O4    S    
S4    O18   D    
Cu2   N6    S    
N12   H35   S    
C17   H13   S    
C27   S3    S    
C18   H14   S    
O20   H42   S    
C20   C26   A    
C43   N2    A    
C35   C39   A    
C31   C35   A    
C3    C47   A    
C17   C19   A    
Cu1   O7    S    
C54   H38   S    
C28   S4    S    
C19   C25   A    
N7    H15   S    
C15   C21   A    
C52   H30   S    
C45   H5    S    
C8    C10   A    
Cu1   Cu2   S    
Cu1   O1    S    
C50   H22   S    
C46   H6    S    
N11   H31   S    
S3    O16   D    
C32   C42   A    
C30   C42   S    
C11   N11   S    
C33   N9    S    
