data_mof_unit_51650.cif
_audit_creation_date              2012-12-10T19:46:51-0500
_audit_creation_method            fapswitch 2.2
_symmetry_space_group_name_H-M    P1
_symmetry_Int_Tables_number       1
_space_group_crystal_system       triclinic
_cell_length_a                    10.896881
_cell_length_b                    10.897331
_cell_length_c                    13.120673
_cell_angle_alpha                 90.376347
_cell_angle_beta                  90.123879
_cell_angle_gamma                 90.115158
_cell_volume                      1557.99905157

loop_
_atom_site_label
_atom_site_type_symbol
_atom_type_description
_atom_site_fract_x
_atom_site_fract_y
_atom_site_fract_z
_atom_type_partial_charge
C1    C     C_R   0.492169 0.259653 0.499436 0.820884
C2    C     C_R   0.507831 0.740346 0.500564 0.820884
C3    C     C_R   0.872924 0.492213 0.501054 -0.105013
C4    C     C_R   0.127076 0.507787 0.498946 -0.105013
C5    C     C_R   0.940025 0.455788 0.587919 0.023787
C6    C     C_R   0.059975 0.544212 0.412081 0.023787
C7    C     C_R   0.273732 0.228701 0.215447 -0.115273
C8    C     C_R   0.726268 0.771299 0.784553 -0.115273
C9    C     C_R   0.313844 0.177861 0.307177 -0.107756
C10   C     C_R   0.686156 0.822139 0.692823 -0.107755
C11   C     C_R   0.426536 0.115653 0.311648 0.108866
C12   C     C_R   0.573464 0.884347 0.688352 0.108866
C13   C     C_R   0.497503 0.103716 0.222863 -0.141795
C14   C     C_R   0.502497 0.896284 0.777137 -0.141795
C15   C     C_R   0.457139 0.155065 0.131342 -0.103820
C16   C     C_R   0.542861 0.844934 0.868658 -0.103820
C17   C     C_R   0.345355 0.217563 0.127661 -0.118617
C18   C     C_R   0.654645 0.782437 0.872339 -0.118617
C19   C     C_R   0.479488 0.932749 0.410821 -0.247208
C20   C     C_R   0.520512 0.067251 0.589179 -0.247208
C21   C     C_R   0.508878 0.873033 0.501607 -0.093311
C22   C     C_R   0.491122 0.126967 0.498392 -0.093311
C23   C     C_R   0.259667 0.506931 0.499698 0.825999
C24   C     C_R   0.740333 0.493069 0.500301 0.825999
C25   C     C_R   0.531973 0.940784 0.591761 0.004492
C26   C     C_R   0.468027 0.059216 0.408238 0.004493
C27   C     C_1   0.500018 0.500064 0.173573 0.162023
C28   C     C_1   0.499982 0.499936 0.826427 0.162023
C29   C     C_1   0.500012 0.500038 0.050683 -0.024395
C30   C     C_1   0.499987 0.499962 0.949317 -0.024395
C31   C     C_R   0.236905 0.755345 0.236540 -0.208131
C32   C     C_R   0.763095 0.244655 0.763460 -0.208131
C33   C     C_R   0.184632 0.706250 0.324669 -0.208368
C34   C     C_R   0.815368 0.293750 0.675331 -0.208369
C35   C     C_R   0.117887 0.595846 0.319499 0.134701
C36   C     C_R   0.882113 0.404153 0.680501 0.134701
C37   C     C_R   0.103010 0.536496 0.224896 -0.256697
C38   C     C_R   0.896990 0.463504 0.775104 -0.256697
C39   C     C_R   0.156925 0.584953 0.137293 -0.224307
C40   C     C_R   0.843075 0.415047 0.862707 -0.224307
C41   C     C_R   0.223892 0.694307 0.143095 0.668322
C42   C     C_R   0.776108 0.305693 0.856905 0.668322
C43   C     C_R   0.933159 0.534550 0.414046 -0.241485
C44   C     C_R   0.066841 0.465450 0.585954 -0.241485
Cu1   Cu    Cu3+1 0.499990 0.499990 0.592680 0.983816
Cu2   Cu    Cu3+1 0.500010 0.500010 0.407320 0.983816
H1    H     H_    0.584148 0.055246 0.224756 0.137378
H2    H     H_    0.415852 0.944754 0.775244 0.137378
H3    H     H_    0.512397 0.146244 0.063238 0.179854
H4    H     H_    0.487602 0.853756 0.936762 0.179854
H5    H     H_    0.461779 0.880336 0.341900 0.157254
H6    H     H_    0.538221 0.119664 0.658100 0.157254
H7    H     H_    0.286829 0.841109 0.240449 0.150453
H8    H     H_    0.713170 0.158891 0.759551 0.150453
H9    H     H_    0.146177 0.537985 0.064857 0.154648
H10   H     H_    0.853823 0.462015 0.935143 0.154648
H11   H     H_    0.880939 0.564160 0.348168 0.163356
H12   H     H_    0.119060 0.435839 0.651832 0.163356
H13   H     H_    0.314174 0.257235 0.056786 0.133935
H14   H     H_    0.685826 0.742765 0.943214 0.133935
H15   H     H_    0.186823 0.276130 0.212308 0.128803
H16   H     H_    0.813177 0.723870 0.787692 0.128803
H17   H     H_    0.257225 0.186673 0.374582 0.108543
H18   H     H_    0.742775 0.813327 0.625418 0.108543
N1    N     N_1   0.500030 0.500030 0.268070 -0.134267
N2    N     N_1   0.499970 0.499970 0.731930 -0.134267
O1    O     O_R   0.499980 0.319630 0.578260 -0.585617
O2    O     O_R   0.500020 0.680370 0.421740 -0.585617
O3    O     O_R   0.500000 0.319650 0.421740 -0.567407
O4    O     O_R   0.500000 0.680350 0.578260 -0.567407
O5    O     O_R   0.319630 0.500000 0.578260 -0.584618
O6    O     O_R   0.680370 0.500000 0.421740 -0.584618
O7    O     O_R   0.319650 0.500020 0.421740 -0.568909
O8    O     O_R   0.680350 0.499980 0.578260 -0.568909
F1    F     F_    0.275492 0.741634 0.057977 -0.697392
F2    F     F_    0.724508 0.258366 0.942023 -0.697392
H19   H     H_    0.195501 0.754376 0.396637 0.135748
H20   H     H_    0.804498 0.245624 0.603363 0.135748
H21   H     H_    0.050065 0.452540 0.219203 0.151522
H22   H     H_    0.949935 0.547460 0.780797 0.151522

loop_
_geom_bond_atom_site_label_1
_geom_bond_atom_site_label_2
_ccdc_geom_bond_type
C27   C29   S    
C24   O8    A    
C39   C41   A    
Cu1   Cu2   S    
C37   H21   S    
C3    C43   A    
C19   C21   A    
C16   H4    S    
C2    O2    A    
Cu1   O5    S    
C20   C25   A    
C5    C36   S    
C6    C35   S    
C15   C17   A    
C19   C26   A    
C7    H15   S    
Cu2   O3    S    
C33   C35   A    
C39   H9    S    
C44   H12   S    
C40   H10   S    
Cu1   O1    S    
C31   C33   A    
Cu2   O6    S    
C40   C42   A    
C1    C22   S    
C3    C24   S    
C23   O7    A    
C32   H8    S    
C23   O5    A    
Cu2   N1    S    
C4    C6    A    
C13   H1    S    
C4    C23   S    
C14   H2    S    
C4    C44   A    
C11   C26   S    
C7    C17   A    
C8    C18   A    
Cu1   O8    S    
C32   C34   A    
C28   N2    T    
Cu2   O2    S    
C29   C30   T    
C27   N1    T    
C41   F1    S    
C2    C21   S    
C31   H7    S    
C9    C11   A    
C10   C12   A    
C17   H13   S    
C18   H14   S    
C5    C44   A    
C12   C14   A    
C6    C43   A    
C13   C15   A    
C14   C16   A    
C24   O6    A    
C7    C9    A    
C21   C25   A    
C31   C41   A    
C35   C37   A    
Cu1   O4    S    
C9    H17   S    
C8    C10   A    
C10   H18   S    
C20   C22   A    
C3    C5    A    
C42   F2    S    
C12   C25   S    
C20   H6    S    
C28   C30   S    
C37   C39   A    
C34   H20   S    
C38   C40   A    
C11   C13   A    
C33   H19   S    
C38   H22   S    
C36   C38   A    
C1    O1    A    
C34   C36   A    
C15   H3    S    
C1    O3    A    
C43   H11   S    
C19   H5    S    
C16   C18   A    
C22   C26   A    
Cu1   N2    S    
C32   C42   A    
C2    O4    A    
Cu2   O7    S    
C8    H16   S    
