data_mof_unit_31363.cif
_audit_creation_date              2012-12-10T20:35:54-0500
_audit_creation_method            fapswitch 2.2
_symmetry_space_group_name_H-M    P1
_symmetry_Int_Tables_number       1
_space_group_crystal_system       triclinic
_cell_length_a                    15.728283
_cell_length_b                    10.500776
_cell_length_c                    9.933523
_cell_angle_alpha                 88.523847
_cell_angle_beta                  90.526605
_cell_angle_gamma                 92.66263
_cell_volume                      1638.24487863

loop_
_atom_site_label
_atom_site_type_symbol
_atom_type_description
_atom_site_fract_x
_atom_site_fract_y
_atom_site_fract_z
_atom_type_partial_charge
C1    C     C_R   0.508808 0.260506 0.500839 0.880913
C2    C     C_R   0.538615 0.133058 0.498662 -0.181884
C3    C     C_R   0.549403 0.073985 0.375052 -0.312003
C4    C     C_R   0.338868 0.508430 0.499364 0.884377
C5    C     C_R   0.552481 0.941828 0.372440 0.460126
C6    C     C_R   0.539750 0.872183 0.494924 -0.229059
C7    C     C_R   0.558081 0.935070 0.614612 0.072311
C8    C     C_3   0.520301 0.921764 0.751862 -0.470168
C9    C     C_3   0.521833 0.066062 0.751923 -0.438164
C10   C     C_R   0.425228 0.488858 0.069501 0.070010
C11   C     C_R   0.572939 0.525096 0.071961 -0.135124
C12   C     C_3   0.950966 0.433189 0.615002 0.454821
C13   C     C_R   0.572460 0.528626 0.928341 -0.121019
C14   C     C_R   0.427124 0.474663 0.931199 0.076186
C15   C     C_3   0.362479 0.362841 0.934615 0.667308
C16   C     C_R   0.509734 0.740479 0.498393 0.876340
C17   C     C_3   0.349507 0.397560 0.087432 0.756539
C18   C     C_R   0.661600 0.502549 0.500484 0.864478
C19   C     C_3   0.050290 0.439842 0.616142 -0.508185
C20   C     C_3   0.047136 0.490241 0.365758 -0.414835
C21   C     C_3   0.949126 0.486839 0.366507 -0.515232
C22   C     C_1   0.750564 0.513173 0.501950 -0.171448
C23   C     C_3   0.917591 0.527873 0.505403 0.262617
C24   C     C_3   0.083497 0.533441 0.503353 0.314559
C25   C     C_3   0.949366 0.513718 0.839964 -0.318622
C26   C     C_3   0.637603 0.854668 0.218004 0.122669
C27   C     C_3   0.681511 0.964898 0.137228 -0.380434
C28   C     C_3   0.767615 0.927809 0.084932 -0.971238
C29   C     C_3   0.241917 0.292310 0.795971 0.120270
C30   C     C_3   0.272014 0.225337 0.670422 -0.300422
C31   C     C_3   0.218633 0.103116 0.644451 -1.047310
C32   C     C_3   0.360835 0.134977 0.963709 0.053389
C33   C     C_3   0.416277 0.050153 0.052585 -0.296597
C34   C     C_3   0.953789 0.665565 0.528675 -0.409041
C35   C     C_3   0.371828 0.918759 0.075417 -0.907450
C36   C     C_3   0.200748 0.425783 0.073184 -0.388231
C37   C     C_3   0.303281 0.258248 0.270628 -0.242391
C38   C     C_3   0.052477 0.668143 0.531192 -0.402377
C39   C     C_1   0.825950 0.522224 0.503731 -0.056884
C40   C     C_1   0.175362 0.532864 0.500240 -0.081723
C41   C     C_1   0.250464 0.524185 0.498588 -0.170142
C42   C     C_R   0.559021 0.065677 0.615775 0.115504
H1    H     H_    0.932577 0.335965 0.579161 0.082072
H2    H     H_    0.073094 0.342932 0.598157 0.137779
H3    H     H_    0.631192 0.550762 0.875193 0.153779
H4    H     H_    0.070248 0.558522 0.285269 0.183051
H5    H     H_    0.069043 0.393886 0.342864 0.163897
H6    H     H_    0.923750 0.388871 0.343850 0.170855
H7    H     H_    0.925739 0.551692 0.285192 0.191099
H8    H     H_    0.076717 0.700754 0.630670 0.165526
H9    H     H_    0.077826 0.737900 0.453596 0.175135
H10   H     H_    0.928953 0.703682 0.623013 0.176181
H11   H     H_    0.982477 0.601603 0.799653 0.153407
H12   H     H_    0.078826 0.470056 0.712970 0.165723
H13   H     H_    0.994406 0.454599 0.897941 0.159755
H14   H     H_    0.901031 0.543707 0.911812 0.185156
H15   H     H_    0.633825 0.769674 0.154020 0.163827
H16   H     H_    0.676592 0.828442 0.308283 0.106839
H17   H     H_    0.640465 0.991826 0.050345 0.225686
H18   H     H_    0.691402 0.049018 0.202033 0.217622
H19   H     H_    0.809975 0.901216 0.170225 0.259079
H20   H     H_    0.798191 0.009861 0.028173 0.272876
H21   H     H_    0.759322 0.846126 0.016367 0.259301
H22   H     H_    0.181599 0.335796 0.768129 0.135539
H23   H     H_    0.932278 0.730083 0.445726 0.168217
H24   H     H_    0.222314 0.224712 0.877170 0.083167
H25   H     H_    0.265470 0.288325 0.580897 0.191165
H26   H     H_    0.339865 0.203592 0.679372 0.239233
H27   H     H_    0.223046 0.034484 0.730783 0.265810
H28   H     H_    0.242112 0.057733 0.553013 0.265868
H29   H     H_    0.150897 0.125227 0.627896 0.267207
H30   H     H_    0.339260 0.078605 0.876229 0.156894
H31   H     H_    0.303735 0.152698 0.021998 0.119967
H32   H     H_    0.479086 0.038529 0.006890 0.235010
H33   H     H_    0.427412 0.093803 0.151517 0.259268
H34   H     H_    0.548073 0.127497 0.280573 0.190368
H35   H     H_    0.308741 0.928384 0.122564 0.247175
H36   H     H_    0.410334 0.858649 0.143168 0.316400
H37   H     H_    0.362952 0.869512 0.978303 0.253956
H38   H     H_    0.151741 0.451040 0.144936 0.181643
H39   H     H_    0.195952 0.320763 0.066351 0.128211
H40   H     H_    0.184560 0.473249 0.975950 0.206604
H41   H     H_    0.258833 0.190416 0.219323 0.111815
H42   H     H_    0.267182 0.335267 0.313350 0.201413
H43   H     H_    0.330801 0.204854 0.357055 0.165135
H44   H     H_    0.454621 0.877687 0.751997 0.216797
H45   H     H_    0.564801 0.880296 0.826832 0.208918
H46   H     H_    0.457737 0.103454 0.747276 0.238550
H47   H     H_    0.566886 0.109601 0.826360 0.211458
H48   H     H_    0.632350 0.542212 0.125410 0.138352
N1    N     N_R   0.499430 0.499140 0.142800 -0.086806
N2    N     N_R   0.499430 0.499180 0.857150 -0.090387
O1    O     O_R   0.500010 0.316790 0.614690 -0.595851
O2    O     O_3   0.553266 0.883500 0.249491 -0.645362
O3    O     O_3   0.299030 0.393224 0.836216 -0.656819
O4    O     O_3   0.406029 0.247807 0.915449 -0.669159
O5    O     O_3   0.280349 0.474081 0.120371 -0.619839
O6    O     O_3   0.371048 0.303116 0.186238 -0.620038
O7    O     O_R   0.500000 0.316760 0.385350 -0.574563
O8    O     O_R   0.377150 0.500020 0.614720 -0.561686
O9    O     O_R   0.377140 0.499990 0.385380 -0.561659
O10   O     O_R   0.500000 0.683240 0.614650 -0.624173
O11   O     O_R   0.499990 0.683210 0.385310 -0.577326
O12   O     O_R   0.622860 0.500010 0.614620 -0.616403
O13   O     O_R   0.622850 0.499980 0.385280 -0.641751
O14   O     O_3   0.907513 0.439901 0.740408 -0.600458
Zn1   Zn    Zn3+2 0.500010 0.500020 0.653130 0.987891
Zn2   Zn    Zn3+2 0.499990 0.499980 0.346870 0.999162

loop_
_geom_bond_atom_site_label_1
_geom_bond_atom_site_label_2
_ccdc_geom_bond_type
C26   O2    S    
C13   H3    S    
C25   H14   S    
C1    O7    A    
C21   H7    S    
C5    O2    S    
C7    C8    S    
C32   H30   S    
O7    Zn2   S    
C12   C23   S    
C9    C42   S    
C37   H43   S    
C25   H11   S    
C12   H1    S    
C27   H18   S    
C9    H46   S    
C15   O3    S    
C30   C31   S    
C4    C41   S    
C10   C17   S    
C1    C2    S    
C7    C42   A    
C16   O11   A    
C24   C40   S    
C33   H33   S    
C31   H28   S    
C20   C24   S    
C36   H40   S    
C8    C9    S    
C24   C38   S    
C37   H42   S    
O11   Zn2   S    
C17   O6    S    
C30   H25   S    
C21   H6    S    
C28   H19   S    
O9    Zn2   S    
C31   H29   S    
C29   H22   S    
C34   C38   S    
C34   H23   S    
C37   O6    S    
C25   O14   S    
O13   Zn2   S    
C10   C14   A    
C9    H47   S    
C15   O4    S    
C29   O3    S    
C38   H9    S    
C35   H35   S    
C29   C30   S    
N2    Zn1   S    
C36   H39   S    
C23   C34   S    
C4    O9    A    
C26   C27   S    
O10   Zn1   S    
C18   O12   A    
C3    H34   S    
C26   H16   S    
C14   N2    A    
C36   O5    S    
C19   H12   S    
C16   O10   A    
C40   C41   T    
C32   O4    S    
C10   N1    A    
C4    O8    A    
C13   N2    A    
C36   H38   S    
C32   H31   S    
C19   H2    S    
C15   C17   S    
O8    Zn1   S    
C18   C22   S    
N1    Zn2   S    
C25   H13   S    
C3    C5    A    
C6    C7    A    
C38   H8    S    
C35   H36   S    
C34   H10   S    
C8    H45   S    
C32   C33   S    
C21   C23   S    
C2    C3    A    
C18   O13   A    
C27   H17   S    
O1    Zn1   S    
C12   O14   S    
C11   C13   A    
C11   H48   S    
C5    C6    A    
C2    C42   A    
C23   C39   S    
C22   C39   T    
C12   C19   S    
C35   H37   S    
C33   C35   S    
C19   C24   S    
C8    H44   S    
C26   H15   S    
C20   H4    S    
C20   H5    S    
C6    C16   S    
C29   H24   S    
C28   H21   S    
C11   N1    A    
C33   H32   S    
C31   H27   S    
C20   C21   S    
C1    O1    A    
C27   C28   S    
C14   C15   S    
C37   H41   S    
C17   O5    S    
O12   Zn1   S    
C30   H26   S    
C28   H20   S    
