data_mof_unit_22150.cif
_audit_creation_date              2012-12-10T20:34:48-0500
_audit_creation_method            fapswitch 2.2
_symmetry_space_group_name_H-M    P1
_symmetry_Int_Tables_number       1
_space_group_crystal_system       triclinic
_cell_length_a                    10.636517
_cell_length_b                    10.685318
_cell_length_c                    9.864409
_cell_angle_alpha                 90.080636
_cell_angle_beta                  89.80644
_cell_angle_gamma                 90.323896
_cell_volume                      1121.10973739

loop_
_atom_site_label
_atom_site_type_symbol
_atom_type_description
_atom_site_fract_x
_atom_site_fract_y
_atom_site_fract_z
_atom_type_partial_charge
C1    C     C_R   0.502586 0.260031 0.499938 0.937242
C2    C     C_3   0.878647 0.499654 0.500722 0.191042
C3    C     C_3   0.928725 0.620513 0.432235 -0.400858
C4    C     C_3   0.927047 0.383702 0.422365 -0.414116
C5    C     C_R   0.509887 0.063173 0.622193 0.112530
C6    C     C_R   0.518328 0.128446 0.500451 -0.052403
C7    C     C_R   0.549913 0.064854 0.380650 -0.238015
C8    C     C_R   0.551916 0.935316 0.380885 -0.228156
C9    C     C_R   0.523994 0.871181 0.501406 -0.081779
C10   C     C_R   0.517191 0.936157 0.623508 0.092203
C11   C     C_3   0.428581 0.923781 0.740970 -0.537562
C12   C     C_R   0.257585 0.499428 0.500320 0.866099
C13   C     C_3   0.418061 0.065910 0.738639 -0.191507
C14   C     C_R   0.427188 0.416396 0.071549 0.223902
C15   C     C_R   0.580134 0.574618 0.071793 -0.140273
C16   C     C_R   0.580159 0.574611 0.927783 -0.140779
C17   C     C_R   0.426819 0.416742 0.928920 0.214413
C18   C     C_3   0.286961 0.408312 0.925155 -0.521844
C19   C     C_3   0.287678 0.406239 0.078704 -0.520750
C20   C     C_R   0.504547 0.739877 0.500132 0.876592
C21   C     C_R   0.742330 0.499928 0.500075 0.815980
C22   C     C_3   0.070629 0.493473 0.648610 -0.400147
C23   C     C_3   0.927991 0.494379 0.648699 -0.387793
C24   C     C_3   0.073135 0.620642 0.432984 -0.404647
C25   C     C_3   0.071324 0.384011 0.421704 -0.391234
C26   C     C_3   0.121090 0.499362 0.500927 0.170320
H1    H     H_    0.892469 0.384543 0.315964 0.181911
H2    H     H_    0.108571 0.627429 0.326897 0.174770
H3    H     H_    0.894874 0.626386 0.325759 0.173484
H4    H     H_    0.565399 0.113995 0.286011 0.164742
H5    H     H_    0.567411 0.886262 0.286143 0.164147
H6    H     H_    0.340995 0.872046 0.713890 0.202526
H7    H     H_    0.476710 0.888232 0.832966 0.192655
H8    H     H_    0.458072 0.112010 0.830081 0.121252
H9    H     H_    0.642943 0.636795 0.126036 0.138756
H10   H     H_    0.103585 0.406514 0.699006 0.187449
H11   H     H_    0.642998 0.636757 0.873273 0.141677
H12   H     H_    0.243570 0.494327 0.883610 0.213590
H13   H     H_    0.253326 0.319253 0.879744 0.189698
H14   H     H_    0.243139 0.490152 0.124672 0.215915
H15   H     H_    0.256403 0.315156 0.121840 0.198261
H16   H     H_    0.892438 0.408603 0.700633 0.177251
H17   H     H_    0.894562 0.576964 0.707454 0.172263
H18   H     H_    0.108357 0.704238 0.489008 0.161535
H19   H     H_    0.893493 0.704479 0.487142 0.155673
H20   H     H_    0.105568 0.386029 0.315079 0.174290
H21   H     H_    0.105954 0.296257 0.468525 0.216244
H22   H     H_    0.891470 0.296308 0.470848 0.160442
N1    N     N_R   0.499150 0.499140 0.142800 -0.106645
N2    N     N_R   0.499150 0.499180 0.857150 -0.106550
O1    O     O_R   0.500020 0.316790 0.614690 -0.617730
O2    O     O_R   0.500000 0.316760 0.385350 -0.626680
O3    O     O_R   0.314800 0.500000 0.614670 -0.621935
O4    O     O_R   0.314790 0.499960 0.385330 -0.626091
O5    O     O_R   0.500000 0.683240 0.614650 -0.617798
O6    O     O_R   0.499980 0.683210 0.385310 -0.624412
O7    O     O_R   0.685210 0.500040 0.614670 -0.635473
O8    O     O_R   0.685200 0.500000 0.385330 -0.632368
Zn1   Zn    Zn3+2 0.500010 0.500020 0.653130 0.938410
Zn2   Zn    Zn3+2 0.499990 0.499980 0.346870 0.935661
H23   H     H_    0.105415 0.575276 0.708004 0.168298
C27   C     C_2   0.285867 0.107273 0.706898 0.419040
H24   H     H_    0.215225 0.103653 0.786365 0.040748
O9    O     O_2   0.255970 0.142702 0.594042 -0.613465

loop_
_geom_bond_atom_site_label_1
_geom_bond_atom_site_label_2
_ccdc_geom_bond_type
C17   N2    A    
C13   H8    S    
C2    C4    S    
C18   H13   S    
C21   O7    A    
C27   H24   S    
O5    Zn1   S    
C11   C13   S    
C9    C10   A    
C25   H21   S    
C9    C20   S    
C5    C13   S    
C12   O3    A    
C16   H11   S    
C20   O6    A    
C2    C21   S    
C17   C18   S    
O3    Zn1   S    
N1    Zn2   S    
C21   O8    A    
C7    H4    S    
O4    Zn2   S    
C22   H23   S    
C1    O1    A    
C14   C17   A    
C19   H15   S    
C3    C24   S    
C6    C7    A    
C23   H16   S    
C20   O5    A    
N2    Zn1   S    
C14   C19   S    
C15   H9    S    
C8    H5    S    
C16   N2    A    
C11   H6    S    
C4    C25   S    
C2    C3    S    
C10   C11   S    
C15   N1    A    
C22   C26   S    
C5    C6    A    
C24   H18   S    
C1    O2    A    
O7    Zn1   S    
C14   N1    A    
O1    Zn1   S    
C19   H14   S    
O8    Zn2   S    
C15   C16   A    
C24   H2    S    
C11   H7    S    
C4    H1    S    
C22   H10   S    
C18   C19   S    
C4    H22   S    
C12   C26   S    
C2    C23   S    
C3    H3    S    
C7    C8    A    
C22   C23   S    
C27   O9    D    
O2    Zn2   S    
C5    C10   A    
C25   C26   S    
C18   H12   S    
C23   H17   S    
C25   H20   S    
C3    H19   S    
C12   O4    A    
C13   C27   S    
O6    Zn2   S    
C24   C26   S    
C8    C9    A    
C1    C6    S    
