data_mof_unit_41014.cif
_audit_creation_date              2013-03-05T16:00:23-0500
_audit_creation_method            fapswitch 2.2
_symmetry_space_group_name_H-M    P1
_symmetry_Int_Tables_number       1
_space_group_crystal_system       triclinic
_cell_length_a                    14.746769
_cell_length_b                    14.520923
_cell_length_c                    14.35917
_cell_angle_alpha                 77.800895
_cell_angle_beta                  102.603928
_cell_angle_gamma                 114.487234
_cell_volume                      2705.41721712

loop_
_atom_site_label
_atom_site_type_symbol
_atom_site_description
_atom_site_fract_x
_atom_site_fract_y
_atom_site_fract_z
_atom_type_partial_charge
O1    O     O_R   0.977910 0.338120 0.530560 -0.630871
O2    O     O_R   0.022090 0.661880 0.469440 -0.637863
O3    O     O_R   0.839850 0.379180 0.491410 -0.504660
O4    O     O_R   0.160150 0.620820 0.508590 -0.506743
C1    C     C_R   0.880345 0.311460 0.511228 0.831329
C2    C     C_R   0.119667 0.688554 0.489021 0.823431
O5    O     O_R   0.069040 0.479460 0.643530 -0.531173
O6    O     O_R   0.930960 0.520540 0.356470 -0.530810
O7    O     O_R   0.930990 0.520530 0.604380 -0.579867
O8    O     O_R   0.069010 0.479470 0.395620 -0.561921
C3    C     C_R   0.000119 0.499970 0.668908 0.815921
C4    C     C_R   0.999873 0.500018 0.331093 0.810900
Cu1   Cu    Cu3+1 0.081740 0.475690 0.523180 1.000766
Cu2   Cu    Cu3+1 0.918260 0.524310 0.476820 0.988821
C5    C     C_1   0.000242 0.499865 0.771301 -0.111022
C6    C     C_1   0.999732 0.500092 0.228702 -0.106563
C7    C     C_1   0.000175 0.499856 0.856689 0.056944
C8    C     C_1   0.999784 0.500079 0.143316 0.051197
C9    C     C_1   0.000035 0.499920 0.957321 0.060695
C10   C     C_1   0.999913 0.500000 0.042685 0.056169
C11   C     C_R   0.812378 0.202370 0.507139 -0.260769
C12   C     C_R   0.187702 0.797463 0.494670 -0.289183
C13   C     C_R   0.769335 0.034198 0.461397 0.003351
C14   C     C_R   0.230881 0.963426 0.545571 0.003762
C15   C     C_R   0.842751 0.131079 0.481975 -0.161881
C16   C     C_R   0.157064 0.868248 0.520387 -0.138489
C17   C     C_R   0.712227 0.171708 0.522143 0.689767
C18   C     C_R   0.288426 0.828083 0.481647 0.694277
C19   C     C_R   0.640065 0.073305 0.508151 -0.068921
C20   C     C_R   0.360404 0.926236 0.496733 -0.038468
C21   C     C_R   0.666308 0.011126 0.463938 -0.188900
C22   C     C_R   0.333934 0.987658 0.541810 -0.253160
C23   C     C_R   0.538849 0.040440 0.525496 -0.220920
C24   C     C_R   0.461599 0.959465 0.479190 -0.209361
C25   C     C_R   0.487895 0.916769 0.414513 0.665617
C26   C     C_R   0.512503 0.083707 0.589588 0.712439
C27   C     C_R   0.588056 0.935944 0.412797 0.548307
C28   C     C_R   0.412320 0.064301 0.591463 0.487485
N1    N     N_R   0.795420 0.560790 0.441960 -0.208071
N2    N     N_R   0.204580 0.439210 0.558040 -0.215739
C29   C     C_R   0.710028 0.662820 0.336069 -0.118322
C30   C     C_R   0.290094 0.337936 0.665165 -0.153778
C31   C     C_R   0.795820 0.638841 0.368480 0.112301
C32   C     C_R   0.204174 0.361571 0.632025 0.106116
C33   C     C_R   0.713684 0.509081 0.488320 0.019937
C34   C     C_R   0.286332 0.490405 0.511583 0.128946
C35   C     C_R   0.629055 0.537429 0.466312 -0.048019
C36   C     C_R   0.370846 0.461826 0.534091 -0.025043
C37   C     C_R   0.624714 0.609085 0.383403 0.126831
C38   C     C_R   0.375284 0.390931 0.617554 0.025877
C39   C     C_R   0.546611 0.493441 0.520791 -0.020278
C40   C     C_R   0.453082 0.504969 0.479506 0.079824
C41   C     C_R   0.446218 0.560026 0.385543 -0.037243
C42   C     C_R   0.553766 0.438636 0.614855 -0.052202
C43   C     C_R   0.533624 0.621211 0.346134 -0.128284
C44   C     C_R   0.466224 0.378536 0.654907 -0.043211
H1    H     H_    0.526442 0.670402 0.279509 0.203524
H2    H     H_    0.472871 0.329452 0.721634 0.246370
H3    H     H_    0.285520 0.555055 0.458832 0.183465
H4    H     H_    0.714401 0.443767 0.540098 0.196147
F1    F     F_    0.607013 0.890746 0.349651 -0.630056
F2    F     F_    0.393849 0.112029 0.652667 -0.645737
C45   C     C_2   0.350658 0.545686 0.318529 0.365473
H5    H     H_    0.344283 0.608102 0.264183 0.126987
O9    O     O_2   0.280607 0.462475 0.319412 -0.530476
C46   C     C_2   0.651103 0.454405 0.679771 0.414548
H6    H     H_    0.716214 0.524823 0.668545 0.063157
O10   O     O_2   0.659349 0.389897 0.747338 -0.456698
F3    F     F_    0.319220 0.756760 0.467058 -0.637986
F4    F     F_    0.681932 0.243357 0.536796 -0.625467
C47   C     C_2   0.049679 0.840997 0.527021 0.482576
H7    H     H_    0.008068 0.770570 0.569672 0.081234
O11   O     O_2   0.006774 0.897138 0.484055 -0.518891
C48   C     C_2   0.948966 0.160040 0.469433 0.339760
H8    H     H_    0.987413 0.230682 0.425205 0.101909
O12   O     O_2   0.994654 0.105586 0.509435 -0.501794
C49   C     C_2   0.800886 0.958873 0.435636 0.609585
H9    H     H_    0.859624 0.983978 0.390950 0.079080
O13   O     O_2   0.763598 0.868339 0.466983 -0.514598
C50   C     C_2   0.201248 0.037161 0.576975 0.603466
H10   H     H_    0.236062 0.118210 0.551812 0.075458
O14   O     O_2   0.141033 0.008711 0.633706 -0.501803
F5    F     F_    0.418027 0.863888 0.345796 -0.582944
F6    F     F_    0.582403 0.137611 0.657654 -0.548789
C51   C     C_2   0.116298 0.305402 0.683458 0.443136
H11   H     H_    0.053596 0.241213 0.654986 0.098053
O15   O     O_2   0.117317 0.325439 0.762175 -0.511221
C52   C     C_2   0.883291 0.694656 0.316469 0.431642
H12   H     H_    0.946351 0.758786 0.344577 0.081423
O16   O     O_2   0.881587 0.674260 0.237707 -0.513061
C53   C     C_2   0.712588 0.745040 0.253510 0.482152
H13   H     H_    0.771151 0.820867 0.257392 0.076023
O17   O     O_2   0.653943 0.726921 0.178930 -0.490552
C54   C     C_2   0.287861 0.256994 0.748931 0.467506
H14   H     H_    0.229199 0.181091 0.746338 0.111281
O18   O     O_2   0.346877 0.276389 0.823111 -0.473157

loop_
_geom_bond_atom_site_label_1
_geom_bond_atom_site_label_2
_geom_bond_distance
_ccdc_geom_bond_type
O5    Cu1   1.792826 S    
C46   O10   1.221618 D    
C45   O9    1.221402 D    
C33   H4    1.076688 S    
C34   H3    1.077049 S    
C17   C19   1.407844 A    
C41   C43   1.388342 A    
C18   F3    1.358605 S    
C35   C37   1.415111 A    
C49   H9    1.084822 S    
O5    C3    1.308776 A    
C48   O12   1.220610 D    
O1    C1    1.306278 A    
C31   C52   1.475300 S    
C25   C27   1.389914 A    
C14   C16   1.420599 A    
C15   C48   1.485832 S    
C51   H11   1.082829 S    
C2    C12   1.489156 S    
C19   C23   1.427997 A    
C23   C26   1.412577 A    
C24   C25   1.413171 A    
O4    Cu1   1.929042 S    
Cu1   N2    2.024936 S    
Cu2   N1    2.024936 S    
C3    C5    1.469578 S    
C14   C50   1.489518 S    
C4    C6    1.469578 S    
C22   C28   1.411506 A    
N1    C33   1.359590 A    
C36   C38   1.414427 A    
C46   H6    1.085122 S    
C11   C17   1.406812 A    
C12   C18   1.406247 A    
Cu1   Cu2   2.695459 S    
C16   C47   1.484524 S    
C29   C31   1.406476 A    
O2    C2    1.306551 A    
C30   C32   1.406396 A    
C29   C37   1.410287 A    
C34   C36   1.423454 A    
C33   C35   1.423222 A    
C42   C44   1.391720 A    
C48   H8    1.084765 S    
C20   C24   1.427935 A    
C51   O15   1.220834 D    
C39   C40   1.440270 A    
O4    C2    1.303643 A    
C53   H13   1.085338 S    
C47   O11   1.220730 D    
C25   F5    1.358483 S    
N1    C31   1.374631 A    
C37   C43   1.401538 A    
C38   C44   1.401407 A    
C21   C27   1.409746 A    
C13   C21   1.420889 A    
N2    C34   1.359969 A    
O7    Cu2   1.791427 S    
C14   C22   1.421514 A    
C53   O17   1.220754 D    
C27   F1    1.358406 S    
C36   C40   1.433527 A    
O6    C4    1.308770 A    
C23   C24   1.418411 A    
C49   O13   1.221435 D    
C13   C49   1.489190 S    
C54   O18   1.220787 D    
O7    C3    1.307695 A    
C17   F4    1.358363 S    
O8    C4    1.307698 A    
C30   C38   1.410264 A    
C50   O14   1.221518 D    
C29   C53   1.488693 S    
C52   O16   1.220805 D    
C43   H1    1.079985 S    
O1    Cu1   1.947302 S    
C32   C51   1.475438 S    
C40   C41   1.421773 A    
C5    C7    1.226278 T    
C11   C15   1.419838 A    
O6    Cu2   1.792823 S    
C30   C54   1.488971 S    
C50   H10   1.086079 S    
O3    C1    1.303446 A    
O8    Cu1   1.791424 S    
C35   C39   1.434648 A    
C42   C46   1.488468 S    
O3    Cu2   1.929042 S    
C39   C42   1.421956 A    
C9    C10   1.226401 T    
C18   C20   1.407488 A    
C47   H7    1.084695 S    
C19   C21   1.416762 A    
C20   C22   1.417625 A    
C41   C45   1.484853 S    
C26   F6    1.358402 S    
C26   C28   1.389890 A    
C7    C9    1.445637 S    
C44   H2    1.078872 S    
C8    C10   1.445640 S    
C13   C15   1.418452 A    
C54   H14   1.085092 S    
O2    Cu2   1.947303 S    
C45   H5    1.085796 S    
N2    C32   1.375017 A    
C1    C11   1.488224 S    
C52   H12   1.082595 S    
C6    C8    1.226280 T    
C12   C16   1.419584 A    
C28   F2    1.358404 S    
