data_mof_unit_54518.cif
_audit_creation_date              2012-10-26T18:33:26-0400
_audit_creation_method            fapswitch 2.2
_symmetry_space_group_name_H-M    P1
_symmetry_Int_Tables_number       1
_space_group_crystal_system       triclinic
_cell_length_a                    15.086428
_cell_length_b                    13.683764
_cell_length_c                    10.732663
_cell_angle_alpha                 90.08299
_cell_angle_beta                  89.676334
_cell_angle_gamma                 89.772496
_cell_volume                      2215.58629366

loop_
_atom_site_label
_atom_site_type_symbol
_atom_type_description
_atom_site_fract_x
_atom_site_fract_y
_atom_site_fract_z
_atom_type_partial_charge
C1    C     C_R   0.328569 0.500142 0.500064 0.572001
C2    C     C_R   0.045287 0.671019 0.444854 -0.132831
C3    C     C_R   0.092674 0.585965 0.474203 0.013123
C4    C     C_R   0.498814 0.499711 0.259672 0.598555
C5    C     C_R   0.046956 0.499438 0.505214 0.064963
C6    C     C_R   0.094258 0.413324 0.533856 0.015414
C7    C     C_R   0.048685 0.327823 0.564827 -0.149994
C8    C     C_R   0.956434 0.327468 0.568018 -0.121729
C9    C     C_R   0.185065 0.585858 0.473047 -0.142044
C10   C     C_R   0.231982 0.500151 0.501235 -0.002248
C11   C     C_R   0.186496 0.414143 0.531145 -0.128020
C12   C     C_3   0.584284 0.546029 0.928194 -0.274328
C13   C     C_R   0.443895 0.793119 0.578437 0.045257
C14   C     C_R   0.443413 0.207558 0.577757 0.044553
C15   C     C_R   0.555834 0.793207 0.422121 0.032441
C16   C     C_R   0.556585 0.206152 0.423241 0.047976
C17   C     C_R   0.556904 0.896200 0.420814 -0.002579
C18   C     C_R   0.557360 0.103167 0.421490 -0.004998
C19   C     C_R   0.671545 0.499648 0.502402 0.551685
C20   C     C_R   0.499389 0.948197 0.501195 -0.007364
C21   C     C_R   0.499390 0.051843 0.501205 -0.009128
C22   C     C_R   0.442363 0.896465 0.581646 -0.055139
C23   C     C_R   0.815193 0.413359 0.543964 0.254526
C24   C     C_R   0.441499 0.104244 0.580430 -0.055708
C25   C     C_R   0.614143 0.948081 0.341422 -0.142481
C26   C     C_R   0.614458 0.050642 0.341890 -0.140016
C27   C     C_R   0.383111 0.052435 0.659582 0.262966
C28   C     C_R   0.385888 0.948959 0.663507 0.265103
C29   C     C_R   0.499142 0.499938 0.740384 0.538857
C30   C     C_3   0.418558 0.562185 0.072655 0.189516
C31   C     C_3   0.489886 0.391531 0.070814 0.188960
C32   C     C_3   0.416996 0.557816 0.928306 -0.199310
C33   C     C_3   0.491601 0.393084 0.927522 -0.194776
C34   C     C_R   0.768512 0.498619 0.507940 -0.012135
C35   C     C_3   0.584955 0.543072 0.071745 -0.340017
C36   C     C_3   0.497115 0.498643 0.121652 0.093669
C37   C     C_3   0.498091 0.499429 0.878224 -0.018585
C38   C     C_3   0.244073 0.113737 0.679367 -0.117116
C39   C     C_3   0.372063 0.887827 0.858649 -0.118899
C40   C     C_3   0.277171 0.605751 0.141466 -0.123808
C41   C     C_3   0.419777 0.244886 0.119536 -0.102224
C42   C     C_3   0.752695 0.333053 0.706916 -0.111544
C43   C     C_R   0.814740 0.583916 0.476921 -0.189827
C44   C     C_R   0.906944 0.584964 0.477169 -0.002102
C45   C     C_R   0.953931 0.499031 0.507536 0.016814
C46   C     C_R   0.908211 0.412733 0.540000 0.021752
C47   C     C_R   0.952909 0.670444 0.445985 -0.123391
Cu1   Cu    Cu3+1 0.499990 0.597420 0.500010 0.917470
Cu2   Cu    Cu3+1 0.499990 0.402580 0.500010 0.966698
H1    H     H_    0.432119 0.639457 0.101021 0.083792
H2    H     H_    0.599604 0.752204 0.360989 0.113478
H3    H     H_    0.600786 0.246657 0.362756 0.124018
H4    H     H_    0.658791 0.909323 0.279077 0.095411
H5    H     H_    0.659294 0.088896 0.279843 0.100270
H6    H     H_    0.354758 0.522934 0.895554 0.152642
H7    H     H_    0.430762 0.358011 0.890095 0.163714
H8    H     H_    0.417542 0.633635 0.890829 0.084121
H9    H     H_    0.549371 0.349249 0.893918 0.082865
H10   H     H_    0.594045 0.618482 0.108479 0.120091
H11   H     H_    0.642440 0.498755 0.103994 0.107674
H12   H     H_    0.549837 0.350753 0.103617 0.074224
H13   H     H_    0.589313 0.623201 0.896340 0.141500
H14   H     H_    0.643197 0.506119 0.891206 0.113210
H15   H     H_    0.778879 0.649543 0.450758 0.129556
H16   H     H_    0.917384 0.736826 0.422440 0.107536
H17   H     H_    0.212391 0.041719 0.662041 0.157976
H18   H     H_    0.250725 0.155079 0.590532 0.088536
H19   H     H_    0.199287 0.156311 0.741444 0.136198
H20   H     H_    0.385498 0.959712 0.903228 0.152098
H21   H     H_    0.434658 0.845041 0.848743 0.088147
H22   H     H_    0.327602 0.846390 0.921869 0.128116
H23   H     H_    0.079657 0.737816 0.420693 0.106045
H24   H     H_    0.266394 0.647620 0.053991 0.096308
H25   H     H_    0.300750 0.654929 0.216838 0.115970
H26   H     H_    0.212392 0.575431 0.171424 0.154026
H27   H     H_    0.468962 0.223464 0.191181 0.109430
H28   H     H_    0.438776 0.213651 0.027401 0.103092
H29   H     H_    0.355131 0.212823 0.146839 0.152771
H30   H     H_    0.709896 0.396630 0.731641 0.116226
H31   H     H_    0.815119 0.335132 0.761613 0.097777
H32   H     H_    0.716358 0.265957 0.733929 0.140019
H33   H     H_    0.220359 0.652212 0.449244 0.121571
H34   H     H_    0.222831 0.347996 0.553670 0.118467
H35   H     H_    0.084400 0.261217 0.586773 0.096469
H36   H     H_    0.923143 0.260089 0.592217 0.154574
H37   H     H_    0.400548 0.751448 0.638732 0.162626
H38   H     H_    0.399931 0.249740 0.637870 0.157253
N1    N     N_R   0.499930 0.743810 0.499950 -0.249819
N2    N     N_R   0.499930 0.256190 0.499950 -0.247759
O1    O     O_R   0.370250 0.582280 0.500040 -0.511155
O2    O     O_3   0.329337 0.899523 0.743065 -0.568767
O3    O     O_3   0.337150 0.527689 0.122756 -0.507765
O4    O     O_3   0.410320 0.347494 0.114191 -0.493779
O5    O     O_3   0.770236 0.329296 0.577709 -0.558290
O6    O     O_R   0.370250 0.417720 0.500040 -0.500644
O7    O     O_R   0.499970 0.582270 0.317700 -0.525990
O8    O     O_R   0.499970 0.417730 0.317700 -0.480447
O9    O     O_R   0.629730 0.582260 0.499980 -0.522214
O10   O     O_R   0.629730 0.417740 0.499980 -0.457144
O11   O     O_R   0.500000 0.582270 0.682320 -0.510189
O12   O     O_R   0.500000 0.417730 0.682320 -0.520310
O13   O     O_3   0.326523 0.102593 0.739025 -0.573483

loop_
_geom_bond_atom_site_label_1
_geom_bond_atom_site_label_2
_ccdc_geom_bond_type
C30   C32   S    
C4    C36   S    
C42   H31   S    
C1    O1    A    
C18   C21   A    
C31   H12   S    
C35   C36   S    
C18   C26   A    
C24   C27   A    
C7    C8    A    
C45   C46   A    
C33   H9    S    
C25   H4    S    
C14   H38   S    
Cu2   O12   S    
C5    C6    A    
C17   C20   A    
C40   H24   S    
C35   H10   S    
C8    H36   S    
C14   C24   A    
C12   C37   S    
C4    O7    A    
C41   O4    S    
C38   H17   S    
C13   H37   S    
C31   C33   S    
C15   H2    S    
C9    C10   A    
C32   H6    S    
C44   C47   A    
C9    H33   S    
C33   H7    S    
C7    H35   S    
C30   H1    S    
C42   H30   S    
C23   C46   A    
Cu1   O1    S    
C4    O8    A    
C42   H32   S    
C32   H8    S    
C2    H23   S    
C26   H5    S    
C39   O2    S    
C19   O9    A    
C43   H15   S    
Cu1   O11   S    
C34   C43   A    
C38   H18   S    
C30   O3    S    
C6    C11   A    
C12   H14   S    
C19   O10   A    
C11   H34   S    
C25   C26   A    
C31   O4    S    
C5    C45   A    
C33   C37   S    
C35   H11   S    
C43   C44   A    
C14   N2    A    
C3    C9    A    
Cu2   O10   S    
C12   H13   S    
C1    O6    A    
C23   C34   A    
Cu1   N1    S    
C39   H20   S    
C29   O12   A    
C32   C37   S    
Cu2   O6    S    
C12   C35   S    
Cu1   Cu2   S    
C38   H19   S    
C20   C22   A    
C41   H29   S    
C44   C45   A    
C15   C17   A    
Cu1   O7    S    
C29   O11   A    
C42   O5    S    
C1    C10   S    
C16   H3    S    
Cu2   N2    S    
C3    C5    A    
C19   C34   S    
C40   H26   S    
C6    C7    A    
C2    C47   A    
Cu1   O9    S    
C27   O13   S    
C23   O5    S    
C30   C36   S    
C17   C25   A    
C2    C3    A    
C38   O13   S    
C41   H27   S    
C41   H28   S    
C13   N1    A    
C39   H21   S    
C40   H25   S    
C13   C22   A    
C28   O2    S    
C8    C46   A    
C40   O3    S    
C10   C11   A    
Cu2   O8    S    
C16   N2    A    
C20   C21   A    
C16   C18   A    
C21   C24   A    
C29   C37   S    
C27   C28   A    
C39   H22   S    
C31   C36   S    
C22   C28   A    
C47   H16   S    
C15   N1    A    
