data_mof_unit_61248.cif
_audit_creation_date              2012-12-10T17:51:27-0500
_audit_creation_method            fapswitch 2.2
_symmetry_space_group_name_H-M    P1
_symmetry_Int_Tables_number       1
_space_group_crystal_system       triclinic
_cell_length_a                    25.736707
_cell_length_b                    27.744315
_cell_length_c                    18.934166
_cell_angle_alpha                 90.05088
_cell_angle_beta                  132.891185
_cell_angle_gamma                 89.925286
_cell_volume                      9905.30696827

loop_
_atom_site_label
_atom_site_type_symbol
_atom_type_description
_atom_site_fract_x
_atom_site_fract_y
_atom_site_fract_z
_atom_type_partial_charge
C1    C     C_R   0.858173 0.750103 0.999879 0.969499
C2    C     C_3   0.188627 0.761976 0.911586 0.310029
C3    C     C_3   0.346744 0.163417 0.186978 -0.236712
C4    C     C_3   0.721570 0.374365 0.943605 -0.258308
C5    C     C_3   0.160588 0.656472 0.826922 -0.236726
C6    C     C_3   0.153256 0.336583 0.813022 -0.236712
C7    C     C_3   0.846701 0.663370 0.186892 -0.236645
C8    C     C_3   0.840621 0.336579 0.186980 -0.236717
C9    C     C_3   0.125387 0.778143 0.751241 -0.258299
C10   C     C_3   0.128156 0.212340 0.756351 -0.268180
C11   C     C_3   0.871864 0.787600 0.243688 -0.267917
C12   C     C_3   0.374613 0.721857 0.248759 -0.258308
C13   C     C_3   0.188650 0.238045 0.911580 0.311938
C14   C     C_3   0.659379 0.163421 0.813020 -0.236715
C15   C     C_3   0.628137 0.712403 0.756310 -0.267926
C16   C     C_3   0.371844 0.287660 0.243648 -0.268180
C17   C     C_3   0.811356 0.761933 0.088433 0.312023
C18   C     C_3   0.311373 0.738024 0.088414 0.310030
C19   C     C_3   0.701132 0.217419 0.934907 0.340041
C20   C     C_3   0.688644 0.738067 0.911567 0.312022
C21   C     C_3   0.311350 0.261955 0.088420 0.311938
C22   C     C_1   0.818915 0.750041 0.637904 -0.140006
C23   C     C_1   0.181086 0.249960 0.362096 -0.141605
C24   C     C_1   0.181077 0.750041 0.362079 -0.139107
C25   C     C_R   0.141827 0.249898 0.000122 0.969502
C26   C     C_1   0.818922 0.249960 0.637921 -0.137509
C27   C     C_1   0.318914 0.250040 0.637904 -0.141605
C28   C     C_1   0.681085 0.749959 0.362096 -0.140006
C29   C     C_1   0.681078 0.250040 0.362079 -0.137509
C30   C     C_1   0.318923 0.749959 0.637921 -0.139107
C31   C     C_1   0.775450 0.750020 0.550938 -0.001035
C32   C     C_1   0.224550 0.249980 0.449062 -0.001900
C33   C     C_1   0.224546 0.750020 0.449055 -0.000826
C34   C     C_1   0.775454 0.249980 0.550945 0.000047
C35   C     C_1   0.275450 0.250020 0.550938 -0.001900
C36   C     C_R   0.141812 0.750072 0.000093 0.969361
C37   C     C_1   0.724549 0.749980 0.449062 -0.001035
C38   C     C_1   0.724546 0.250020 0.449055 0.000047
C39   C     C_1   0.275454 0.749980 0.550945 -0.000826
C40   C     C_1   0.000004 0.568966 0.999940 -0.137679
C41   C     C_1   0.000001 0.431034 0.000063 -0.139298
C42   C     C_1   0.499999 0.068966 0.999937 -0.139298
C43   C     C_1   0.499996 0.931034 0.000060 -0.137679
C44   C     C_1   0.000003 0.525475 0.999971 -0.000071
C45   C     C_1   0.000002 0.474525 0.000032 -0.000494
C46   C     C_1   0.499998 0.025475 0.999967 -0.000494
C47   C     C_R   0.858304 0.250045 0.000140 0.969366
C48   C     C_1   0.499996 0.974525 0.000028 -0.000071
C49   C     C_R   0.129274 0.750025 0.258516 0.818962
C50   C     C_R   0.870725 0.249976 0.741484 0.824042
C51   C     C_R   0.870710 0.750025 0.741453 0.819685
C52   C     C_R   0.129290 0.249976 0.258547 0.814582
C53   C     C_R   0.629275 0.250024 0.258516 0.824042
C54   C     C_R   0.370726 0.749975 0.741484 0.818962
C55   C     C_R   0.370710 0.250024 0.741453 0.814582
C56   C     C_R   0.629290 0.749975 0.258547 0.819685
C57   C     C_R   0.000000 0.620754 0.999974 0.824181
C58   C     C_R   0.358173 0.250102 0.999878 0.969502
C59   C     C_R   0.000001 0.379246 0.000028 0.819040
C60   C     C_R   0.499999 0.120754 0.999972 0.819040
C61   C     C_R   0.500000 0.879246 0.000026 0.824181
C62   C     C_R   0.999973 0.879282 0.999974 0.814463
C63   C     C_R   0.000026 0.120718 0.000028 0.819631
C64   C     C_R   0.499974 0.379282 0.999972 0.819631
C65   C     C_R   0.500027 0.620718 0.000026 0.814463
C66   C     C_1   0.999937 0.931052 0.999941 -0.141508
C67   C     C_1   0.000062 0.068948 0.000063 -0.139854
C68   C     C_1   0.499938 0.431052 0.999937 -0.139854
C69   C     C_R   0.641827 0.749897 0.000121 0.969499
C70   C     C_1   0.500063 0.568948 0.000059 -0.141508
C71   C     C_1   0.999968 0.974533 0.999972 -0.001783
C72   C     C_1   0.000031 0.025467 0.000033 -0.001345
C73   C     C_1   0.499969 0.474533 0.999967 -0.001345
C74   C     C_1   0.500032 0.525467 0.000028 -0.001783
C75   C     C_3   0.266246 0.782560 0.065133 0.340058
C76   C     C_3   0.779160 0.205799 0.023989 0.310041
C77   C     C_3   0.733646 0.782619 0.934929 0.340010
C78   C     C_3   0.266370 0.217398 0.065105 0.339973
C79   C     C_3   0.720840 0.294201 0.976011 0.310041
C80   C     C_R   0.641696 0.249955 0.999860 0.969365
C81   C     C_3   0.233754 0.717440 0.934866 0.340058
C82   C     C_3   0.233629 0.282602 0.934895 0.339973
C83   C     C_3   0.766354 0.717382 0.065072 0.340013
C84   C     C_3   0.722798 0.261942 0.911569 0.311928
C85   C     C_3   0.244947 0.705789 0.023922 0.311943
C86   C     C_3   0.244823 0.294181 0.024001 0.310140
C87   C     C_3   0.755154 0.705825 0.975953 0.309973
C88   C     C_3   0.255053 0.794211 0.976078 0.311941
C89   C     C_3   0.777202 0.238058 0.088431 0.311928
C90   C     C_3   0.744846 0.794175 0.024047 0.309968
C91   C     C_R   0.358188 0.749928 0.999907 0.969361
C92   C     C_3   0.255177 0.205819 0.975999 0.310141
C93   C     C_3   0.801595 0.250280 0.000567 -0.355158
C94   C     C_3   0.198968 0.750284 0.000558 -0.355175
C95   C     C_3   0.198995 0.249660 0.000611 -0.355187
C96   C     C_3   0.801005 0.750340 0.999390 -0.355132
C97   C     C_3   0.301032 0.749716 0.999442 -0.355175
C98   C     C_3   0.698405 0.249720 0.999433 -0.355159
C99   C     C_3   0.698995 0.749660 0.000610 -0.355130
C100  C     C_3   0.301005 0.250340 0.999389 -0.355187
C101  C     C_3   0.627849 0.287664 0.756353 -0.268190
C102  C     C_3   0.798868 0.282581 0.065093 0.340041
C103  C     C_3   0.288043 0.628193 0.075438 -0.268226
C104  C     C_3   0.277913 0.374362 0.056409 -0.258534
C105  C     C_3   0.722023 0.625652 0.943462 -0.258298
C106  C     C_3   0.211957 0.871807 0.924561 -0.268218
C107  C     C_3   0.872151 0.212336 0.243647 -0.268190
C108  C     C_3   0.777976 0.874348 0.056534 -0.258254
C109  C     C_3   0.222087 0.125638 0.943591 -0.258535
C110  C     C_3   0.339411 0.843528 0.173077 -0.236727
C111  C     C_3   0.778430 0.125635 0.056395 -0.258310
C112  C     C_3   0.653300 0.836631 0.813110 -0.236630
H1    H     H_    0.622840 0.325863 0.768181 0.192193
H2    H     H_    0.667855 0.638718 0.906840 0.181645
H3    H     H_    0.748423 0.611530 0.015914 0.195496
H4    H     H_    0.715804 0.595041 0.900517 0.167808
H5    H     H_    0.199885 0.869876 0.970865 0.187034
H6    H     H_    0.162835 0.865874 0.848168 0.192146
H7    H     H_    0.230304 0.908988 0.930304 0.171541
H8    H     H_    0.905431 0.235486 0.239757 0.187137
H9    H     H_    0.877159 0.174136 0.231818 0.192193
H10   H     H_    0.893858 0.215227 0.318007 0.171429
H11   H     H_    0.751560 0.888480 0.984082 0.195481
H12   H     H_    0.594569 0.264514 0.760243 0.187138
H13   H     H_    0.832136 0.861279 0.093125 0.181638
H14   H     H_    0.784216 0.904952 0.099508 0.167795
H15   H     H_    0.167911 0.138694 0.906945 0.181256
H16   H     H_    0.248490 0.111539 0.016058 0.195385
H17   H     H_    0.215891 0.095014 0.900687 0.168217
H18   H     H_    0.325321 0.873710 0.124374 0.192613
H19   H     H_    0.383772 0.822294 0.190882 0.192327
H20   H     H_    0.359108 0.859541 0.241268 0.168118
H21   H     H_    0.732230 0.111550 0.983934 0.195474
H22   H     H_    0.760993 0.138728 0.093072 0.181456
H23   H     H_    0.606142 0.284772 0.681993 0.171429
H24   H     H_    0.815162 0.094992 0.099280 0.167922
H25   H     H_    0.639143 0.845473 0.855607 0.192410
H26   H     H_    0.612771 0.812301 0.752697 0.192613
H27   H     H_    0.651632 0.870759 0.781153 0.168002
H28   H     H_    0.387264 0.187767 0.247353 0.192606
H29   H     H_    0.360897 0.154556 0.144483 0.192365
H30   H     H_    0.348433 0.129303 0.218984 0.168179
H31   H     H_    0.739007 0.361272 0.906927 0.181456
H32   H     H_    0.767770 0.388450 0.016066 0.195473
H33   H     H_    0.684838 0.405008 0.900720 0.167922
H34   H     H_    0.337166 0.634126 0.151829 0.192148
H35   H     H_    0.116228 0.677706 0.809119 0.192327
H36   H     H_    0.174678 0.626290 0.875624 0.192612
H37   H     H_    0.140891 0.640460 0.758729 0.168118
H38   H     H_    0.139103 0.345444 0.855517 0.192365
H39   H     H_    0.112736 0.312233 0.752647 0.192606
H40   H     H_    0.151567 0.370696 0.781016 0.168179
H41   H     H_    0.887230 0.687702 0.247297 0.192623
H42   H     H_    0.860853 0.654522 0.144392 0.192413
H43   H     H_    0.848371 0.629245 0.218858 0.168007
H44   H     H_    0.860555 0.312242 0.247367 0.192606
H45   H     H_    0.300113 0.630123 0.029131 0.187036
H46   H     H_    0.783923 0.345469 0.144503 0.192301
H47   H     H_    0.871016 0.370682 0.218970 0.168131
H48   H     H_    0.121276 0.741907 0.723093 0.195463
H49   H     H_    0.174252 0.796481 0.777413 0.181542
H50   H     H_    0.079450 0.799578 0.689941 0.167851
H51   H     H_    0.145047 0.174150 0.768162 0.192230
H52   H     H_    0.165299 0.235524 0.760226 0.187134
H53   H     H_    0.075385 0.215222 0.682002 0.171433
H54   H     H_    0.834704 0.764421 0.239786 0.187145
H55   H     H_    0.854998 0.825794 0.231918 0.192151
H56   H     H_    0.269697 0.591012 0.069697 0.171543
H57   H     H_    0.924631 0.784697 0.318037 0.171236
H58   H     H_    0.325750 0.703517 0.222588 0.181544
H59   H     H_    0.378720 0.758094 0.276903 0.195467
H60   H     H_    0.420553 0.700425 0.310062 0.167854
H61   H     H_    0.716077 0.154532 0.855496 0.192301
H62   H     H_    0.639444 0.187758 0.752632 0.192605
H63   H     H_    0.628985 0.129317 0.781030 0.168130
H64   H     H_    0.645005 0.674209 0.768079 0.192148
H65   H     H_    0.665295 0.735583 0.760212 0.187147
H66   H     H_    0.575369 0.715305 0.681962 0.171238
H67   H     H_    0.251511 0.388461 0.983942 0.195384
H68   H     H_    0.334701 0.264476 0.239774 0.187134
H69   H     H_    0.354953 0.325850 0.231838 0.192230
H70   H     H_    0.424615 0.284778 0.317998 0.171433
H71   H     H_    0.332089 0.361306 0.093054 0.181256
H72   H     H_    0.284109 0.404986 0.099313 0.168217
O1    O     O_3   0.000000 0.750010 0.000000 -0.505499
O2    O     O_R   0.645150 0.722120 0.055700 -0.616994
O3    O     O_R   0.645150 0.277880 0.055700 -0.621391
O4    O     O_R   0.354850 0.722120 0.944300 -0.616630
O5    O     O_R   0.075530 0.722150 0.212560 -0.632520
O6    O     O_R   0.924470 0.277850 0.787440 -0.633365
O7    O     O_R   0.924470 0.722150 0.787440 -0.633071
O8    O     O_R   0.075530 0.277850 0.212560 -0.631659
O9    O     O_R   0.575530 0.222150 0.212560 -0.633365
O10   O     O_R   0.424470 0.777850 0.787440 -0.632520
O11   O     O_R   0.424470 0.222150 0.787440 -0.631659
O12   O     O_3   1.000000 0.249990 0.000000 -0.505503
O13   O     O_R   0.575530 0.777850 0.212560 -0.633071
O14   O     O_R   0.997120 0.643740 0.055720 -0.633669
O15   O     O_R   0.002880 0.356260 0.944280 -0.633122
O16   O     O_R   0.002880 0.643740 0.944280 -0.633551
O17   O     O_R   0.997120 0.356260 0.055720 -0.632226
O18   O     O_R   0.497120 0.143740 0.055720 -0.633122
O19   O     O_R   0.502880 0.856260 0.944280 -0.633669
O20   O     O_R   0.502880 0.143740 0.944280 -0.632226
O21   O     O_R   0.497120 0.856260 0.055720 -0.633551
O22   O     O_R   0.941380 0.856290 0.944290 -0.631747
O23   O     O_3   0.500000 0.250010 0.000000 -0.505503
O24   O     O_R   0.058620 0.143710 0.055710 -0.632288
O25   O     O_R   0.058620 0.856290 0.055710 -0.631756
O26   O     O_R   0.941380 0.143710 0.944290 -0.633196
O27   O     O_R   0.441380 0.356290 0.944290 -0.632288
O28   O     O_R   0.558620 0.643710 0.055710 -0.631747
O29   O     O_R   0.558620 0.356290 0.055710 -0.633196
O30   O     O_R   0.441380 0.643710 0.944290 -0.631756
O31   O     O_R   0.137030 0.777870 0.212550 -0.632354
O32   O     O_R   0.862970 0.222130 0.787450 -0.633654
O33   O     O_R   0.862970 0.777870 0.787450 -0.632829
O34   O     O_3   0.500000 0.749990 0.000000 -0.505499
O35   O     O_R   0.137030 0.222130 0.212550 -0.631968
O36   O     O_R   0.637030 0.277870 0.212550 -0.633654
O37   O     O_R   0.362970 0.722130 0.787450 -0.632354
O38   O     O_R   0.362970 0.277870 0.787450 -0.631968
O39   O     O_R   0.637030 0.722130 0.212550 -0.632829
O40   O     O_R   0.910580 0.722150 0.055750 -0.621137
O41   O     O_R   0.089420 0.277850 0.944250 -0.621096
O42   O     O_R   0.089420 0.722150 0.944250 -0.621390
O43   O     O_R   0.910580 0.277850 0.055750 -0.616631
O44   O     O_R   0.410580 0.222150 0.055750 -0.621096
O45   O     O_R   0.854850 0.777880 0.944300 -0.616996
O46   O     O_R   0.589420 0.777850 0.944250 -0.621140
O47   O     O_R   0.589420 0.222150 0.944250 -0.616632
O48   O     O_R   0.410580 0.777850 0.055750 -0.621390
O49   O     O_3   0.699729 0.273512 0.821349 -0.605317
O50   O     O_3   0.234495 0.660685 0.047103 -0.605221
O51   O     O_3   0.235586 0.338893 0.049938 -0.607459
O52   O     O_3   0.764367 0.661119 0.949970 -0.607928
O53   O     O_3   0.265505 0.839315 0.952897 -0.605221
O54   O     O_3   0.800270 0.226488 0.178651 -0.605318
O55   O     O_3   0.735634 0.838880 0.050032 -0.607934
O56   O     O_R   0.145150 0.222120 0.055700 -0.617033
O57   O     O_3   0.264414 0.161107 0.950062 -0.607459
O58   O     O_3   0.279123 0.815332 0.132692 -0.587046
O59   O     O_3   0.814306 0.161061 0.049897 -0.607709
O60   O     O_3   0.721674 0.816451 0.869449 -0.587251
O61   O     O_3   0.278361 0.183584 0.130621 -0.587182
O62   O     O_3   0.685694 0.338939 0.950103 -0.607709
O63   O     O_3   0.220877 0.684669 0.867307 -0.587045
O64   O     O_3   0.221639 0.316416 0.869379 -0.587182
O65   O     O_3   0.778326 0.683550 0.130552 -0.587253
O66   O     O_3   0.852529 0.316374 0.130606 -0.587035
O67   O     O_R   0.145150 0.777880 0.055700 -0.616630
O68   O     O_3   0.121691 0.774909 0.822098 -0.607769
O69   O     O_3   0.121375 0.226448 0.821376 -0.605327
O70   O     O_3   0.878638 0.773506 0.178650 -0.605264
O71   O     O_3   0.378309 0.725091 0.177902 -0.607768
O72   O     O_3   0.647470 0.183626 0.869394 -0.587036
O73   O     O_3   0.621363 0.726494 0.821349 -0.605262
O74   O     O_3   0.378625 0.273552 0.178623 -0.605327
O75   O     O_R   0.854850 0.222120 0.944300 -0.621392
O76   O     O_R   0.354850 0.277880 0.944300 -0.617033
Zn1   Zn    Zn3+2 0.083740 0.789820 0.079610 1.002883
Zn2   Zn    Zn3+2 0.004120 0.289800 0.920380 0.999332
Zn3   Zn    Zn3+2 0.004120 0.710200 0.920380 0.999411
Zn4   Zn    Zn3+2 0.995880 0.289800 0.079620 1.002999
Zn5   Zn    Zn3+2 0.495880 0.210200 0.079620 0.999332
Zn6   Zn    Zn3+2 0.504120 0.789800 0.920380 0.999556
Zn7   Zn    Zn3+2 0.504120 0.210200 0.920380 1.002999
Zn8   Zn    Zn3+2 0.495880 0.789800 0.079620 0.999411
Zn9   Zn    Zn3+2 0.916260 0.210180 0.920390 0.999299
Zn10  Zn    Zn3+2 0.916260 0.789820 0.920390 1.002702
Zn11  Zn    Zn3+2 0.083740 0.210180 0.079610 1.002954
Zn12  Zn    Zn3+2 0.583740 0.289820 0.079610 0.999299
Zn13  Zn    Zn3+2 0.416260 0.710180 0.920390 1.002883
Zn14  Zn    Zn3+2 0.416260 0.289820 0.920390 1.002954
Zn15  Zn    Zn3+2 0.583740 0.710180 0.079610 1.002703
Zn16  Zn    Zn3+2 0.995880 0.710200 0.079620 0.999558

loop_
_geom_bond_atom_site_label_1
_geom_bond_atom_site_label_2
_ccdc_geom_bond_type
C83   C87   S    
C91   O4    A    
O30   Zn13  S    
C10   H51   S    
C54   O10   A    
O47   Zn7   S    
C106  H7    S    
O27   Zn14  S    
C53   O9    A    
C73   C74   S    
O31   Zn1   S    
C79   C98   S    
C55   O11   A    
C6    H40   S    
C3    H29   S    
O17   Zn4   S    
O26   Zn9   S    
C26   C34   T    
C8    H46   S    
C78   O61   S    
O15   Zn2   S    
O8    Zn4   S    
C107  H8    S    
C28   C56   S    
C51   O7    A    
C12   H60   S    
C104  H72   S    
C51   O33   A    
C30   C54   S    
O39   Zn15  S    
C8    O66   S    
C18   C75   S    
C29   C53   S    
C20   C77   S    
C13   C95   S    
C1    O40   A    
C5    H35   S    
C64   C68   S    
O56   Zn11  S    
C6    O64   S    
C19   C76   S    
C7    H42   S    
C14   H61   S    
C26   C50   S    
C42   C46   T    
C79   C84   S    
C57   O14   A    
C16   H70   S    
C21   O74   S    
O20   Zn7   S    
C104  H67   S    
C49   O5    A    
O4    Zn13  S    
C4    H33   S    
C16   H68   S    
O33   Zn10  S    
C77   O60   S    
C20   C87   S    
C24   C49   S    
C36   O67   A    
C5    H37   S    
O12   Zn11  S    
C67   C72   T    
C52   O8    A    
C81   O63   S    
C65   O28   A    
C104  H71   S    
C105  H4    S    
C50   O6    A    
C109  H15   S    
C104  O51   S    
C66   C71   T    
C10   O69   S    
C59   O15   A    
C106  O53   S    
O10   Zn6   S    
C29   C38   T    
C70   C74   T    
C11   H54   S    
O34   Zn8   S    
C40   C44   T    
C108  O55   S    
C79   C102  S    
O37   Zn13  S    
C18   C97   S    
C109  O57   S    
C108  H13   S    
C12   H59   S    
O11   Zn7   S    
C43   C48   T    
C103  H34   S    
C91   O48   A    
C88   C97   S    
C15   O73   S    
C1    C96   S    
C20   O73   S    
O76   Zn14  S    
C53   O36   A    
C103  H56   S    
C12   O71   S    
C83   C99   S    
C106  H6    S    
C11   H55   S    
C112  H27   S    
C9    H50   S    
C3    H30   S    
O41   Zn2   S    
C5    O63   S    
C1    O45   A    
O36   Zn12  S    
C112  H25   S    
C4    H31   S    
O45   Zn10  S    
C19   C98   S    
C60   O20   A    
O43   Zn4   S    
O23   Zn14  S    
C63   C67   S    
C101  H23   S    
C10   H52   S    
O40   Zn16  S    
C107  O54   S    
C46   C48   S    
C77   C90   S    
C18   C85   S    
C22   C31   T    
C62   C66   S    
C85   O50   S    
C101  H12   S    
C79   O62   S    
C112  H26   S    
C64   O29   A    
C2    C94   S    
C76   O59   S    
C58   C100  S    
C41   C59   S    
O44   Zn5   S    
O1    Zn16  S    
C47   O75   A    
O12   Zn2   S    
C21   C100  S    
O2    Zn15  S    
C103  H45   S    
O16   Zn3   S    
C12   H58   S    
C9    H48   S    
C78   C92   S    
C90   C99   S    
C82   C86   S    
C13   C82   S    
C43   C61   S    
C87   O52   S    
C31   C37   S    
C36   O42   A    
C17   C83   S    
O7    Zn3   S    
C111  H24   S    
O38   Zn14  S    
C9    H49   S    
C17   O70   S    
C32   C35   S    
C4    H32   S    
C14   H63   S    
C2    O68   S    
C76   C93   S    
C62   O25   A    
C106  H5    S    
C16   O74   S    
C85   C94   S    
C110  O58   S    
C109  H16   S    
O23   Zn12  S    
C7    H41   S    
O21   Zn8   S    
C50   O32   A    
C78   C95   S    
O24   Zn11  S    
C13   O69   S    
C87   C96   S    
C9    O68   S    
C89   C102  S    
C47   C93   S    
C47   O43   A    
C110  H19   S    
C64   O27   A    
C17   C96   S    
C33   C39   S    
C91   C97   S    
C21   C78   S    
C110  H20   S    
C4    O62   S    
O1    Zn10  S    
O67   Zn1   S    
C55   O38   A    
C6    H39   S    
C90   O55   S    
C60   O18   A    
C59   O17   A    
O23   Zn5   S    
O5    Zn16  S    
C7    O65   S    
O3    Zn12  S    
C11   H57   S    
O34   Zn13  S    
C34   C38   S    
C63   O24   A    
O22   Zn10  S    
C13   C92   S    
C101  O49   S    
C105  H2    S    
C105  O52   S    
C25   C95   S    
C2    C88   S    
C108  H11   S    
C107  H9    S    
C80   O47   A    
C42   C60   S    
C19   C84   S    
C69   C99   S    
O32   Zn9   S    
C14   O72   S    
C58   O44   A    
C44   C45   S    
C92   C100  S    
C56   O13   A    
O46   Zn6   S    
O28   Zn15  S    
C11   O70   S    
C49   O31   A    
C21   C86   S    
C52   O35   A    
C111  O59   S    
C40   C57   S    
C92   O57   S    
C80   C98   S    
C16   H69   S    
C82   C100  S    
C89   O54   S    
C105  H3    S    
O1    Zn3   S    
C17   C90   S    
C24   C33   T    
O14   Zn16  S    
C54   O37   A    
O19   Zn6   S    
O75   Zn9   S    
C93   C102  S    
O34   Zn15  S    
C56   O39   A    
C111  H22   S    
O25   Zn1   S    
C111  H21   S    
C18   O71   S    
C103  O50   S    
C3    O61   S    
C76   C89   S    
C77   C96   S    
C86   O51   S    
C25   O56   A    
C82   O64   S    
C89   C98   S    
C27   C35   T    
C23   C32   T    
O6    Zn2   S    
O13   Zn8   S    
C15   H65   S    
C84   O49   S    
C68   C73   T    
O9    Zn5   S    
C65   O30   A    
C57   O16   A    
C75   O58   S    
C69   O46   A    
C61   O19   A    
C109  H17   S    
O1    Zn1   S    
C23   C52   S    
C20   C99   S    
C81   C97   S    
C28   C37   T    
C10   H53   S    
C88   O53   S    
O42   Zn3   S    
O29   Zn12  S    
C25   O41   A    
O34   Zn6   S    
C80   O3    A    
C102  O66   S    
C30   C39   T    
C110  H18   S    
C112  O60   S    
O35   Zn11  S    
C84   C93   S    
C75   C88   S    
O12   Zn9   S    
C101  H1    S    
C8    H44   S    
O18   Zn5   S    
C81   C85   S    
C86   C95   S    
C6    H38   S    
O48   Zn8   S    
C19   O72   S    
C71   C72   S    
C36   C94   S    
C7    H43   S    
C75   C94   S    
C14   H62   S    
O23   Zn7   S    
C15   H66   S    
C58   O76   A    
C5    H36   S    
C41   C45   T    
C27   C55   S    
C2    C81   S    
C3    H28   S    
C63   O26   A    
C107  H10   S    
C108  H14   S    
C8    H47   S    
C69   O2    A    
C62   O22   A    
C83   O65   S    
C65   C70   S    
O12   Zn4   S    
C61   O21   A    
C22   C51   S    
C15   H64   S    
