data_mof_unit_53318.cif
_audit_creation_date              2012-12-10T18:38:11-0500
_audit_creation_method            fapswitch 2.2
_symmetry_space_group_name_H-M    P1
_symmetry_Int_Tables_number       1
_space_group_crystal_system       triclinic
_cell_length_a                    15.062488
_cell_length_b                    15.363218
_cell_length_c                    27.709269
_cell_angle_alpha                 90.68209
_cell_angle_beta                  105.523247
_cell_angle_gamma                 82.500664
_cell_volume                      6123.62554282

loop_
_atom_site_label
_atom_site_type_symbol
_atom_type_description
_atom_site_fract_x
_atom_site_fract_y
_atom_site_fract_z
_atom_type_partial_charge
C1    C     C_R   0.441975 0.662396 0.493654 0.872826
C2    C     C_R   0.467957 0.581459 0.122464 -0.113399
C3    C     C_R   0.507700 0.498540 0.647683 -0.058756
C4    C     C_R   0.492945 0.499151 0.352374 -0.040295
C5    C     C_R   0.488143 0.577528 0.023409 0.004351
C6    C     C_R   0.513189 0.413754 0.976471 0.005411
C7    C     C_R   0.499007 0.416107 0.025167 0.055127
C8    C     C_R   0.503988 0.575065 0.975168 0.054585
C9    C     C_R   0.488487 0.498083 0.048772 0.079478
C10   C     C_R   0.513611 0.493278 0.951323 0.080719
C11   C     C_R   0.467438 0.657538 0.046147 -0.188062
C12   C     C_R   0.557916 0.337494 0.508392 0.871289
C13   C     C_R   0.531209 0.333881 0.952927 -0.186726
C14   C     C_R   0.456229 0.660761 0.094591 -0.001887
C15   C     C_R   0.541456 0.331055 0.904268 -0.004959
C16   C     C_R   0.502001 0.499967 0.594131 0.872501
C17   C     C_R   0.498137 0.499591 0.405882 0.869243
C18   C     C_R   0.512764 0.651926 0.950220 -0.207276
C19   C     C_R   0.492864 0.339090 0.050895 -0.207345
C20   C     C_R   0.405392 0.755178 0.493824 -0.053835
C21   C     C_R   0.590912 0.245627 0.523844 -0.067875
C22   C     C_R   0.279528 0.874226 0.468446 -0.136822
C23   C     C_R   0.523407 0.491302 0.901758 -0.044023
C24   C     C_R   0.696247 0.136487 0.580957 -0.135322
C25   C     C_R   0.312655 0.785264 0.469440 -0.216285
C26   C     C_R   0.677351 0.219662 0.557738 -0.200268
C27   C     C_R   0.463582 0.813701 0.519328 -0.244151
C28   C     C_R   0.526482 0.186660 0.511429 -0.231910
C29   C     C_R   0.431526 0.903385 0.519672 0.087116
C30   C     C_R   0.540151 0.106667 0.537330 0.079225
C31   C     C_R   0.338342 0.934898 0.492690 0.135767
C32   C     C_R   0.626957 0.079871 0.572593 0.143234
C33   C     C_R   0.493337 0.963123 0.542104 0.080001
C34   C     C_R   0.478554 0.500448 0.098311 -0.045731
C35   C     C_R   0.469532 0.051835 0.527271 0.064891
C36   C     C_R   0.375811 0.083344 0.503498 -0.272047
C37   C     C_R   0.577422 0.937488 0.579069 -0.326483
C38   C     C_R   0.308996 0.026416 0.488539 -0.030925
C39   C     C_R   0.640933 0.997024 0.597378 -0.042609
C40   C     C_R   0.526655 0.569147 0.826767 0.517168
C41   C     C_R   0.477458 0.423227 0.173912 0.509423
C42   C     C_R   0.846430 0.640347 0.574099 0.426983
C43   C     C_R   0.150997 0.365532 0.422323 0.403214
C44   C     C_R   0.758797 0.611622 0.565445 -0.012147
C45   C     C_R   0.524006 0.570546 0.876717 -0.019226
C46   C     C_R   0.243996 0.381553 0.438364 -0.013926
C47   C     C_R   0.791139 0.515368 0.502612 -0.099436
C48   C     C_R   0.205088 0.493412 0.492178 -0.101855
C49   C     C_R   0.884111 0.534752 0.513746 -0.063913
C50   C     C_R   0.112139 0.473832 0.481047 -0.060683
C51   C     C_R   0.910410 0.598677 0.550105 0.018077
C52   C     C_R   0.086460 0.408361 0.445563 0.023358
C53   C     C_R   0.951720 0.492887 0.490500 0.128799
C54   C     C_R   0.044180 0.516468 0.503805 0.126957
C55   C     C_R   0.066179 0.580679 0.540098 -0.248384
C56   C     C_R   0.480075 0.421292 0.123944 -0.016823
C57   C     C_R   0.930467 0.426895 0.455250 -0.248188
C58   C     C_R   0.000851 0.620438 0.562739 -0.160776
C59   C     C_R   0.996480 0.385555 0.433529 -0.171233
C60   C     C_R   0.527530 0.413778 0.825438 0.494463
C61   C     C_R   0.471853 0.579107 0.173972 0.488397
C62   C     C_R   0.598363 0.504562 0.733952 -0.089299
C63   C     C_R   0.404988 0.483651 0.266375 -0.102421
C64   C     C_R   0.592394 0.506956 0.683062 -0.179681
C65   C     C_R   0.410568 0.482967 0.317246 -0.217068
C66   C     C_R   0.429173 0.487560 0.663995 -0.205145
C67   C     C_R   0.521409 0.649680 0.901757 -0.124363
C68   C     C_R   0.569730 0.515439 0.335850 -0.215624
C69   C     C_R   0.435416 0.485121 0.714955 -0.088215
C70   C     C_R   0.563932 0.515944 0.284927 -0.095361
C71   C     C_R   0.519976 0.493553 0.749879 0.309078
C72   C     C_R   0.481523 0.500332 0.250204 0.321870
C73   C     C_2   0.313904 0.325322 0.418904 0.381650
C74   C     C_2   0.698708 0.643899 0.598081 0.404963
C75   C     C_3   0.829398 0.788655 0.588983 0.107511
C76   C     C_3   0.874037 0.823496 0.550651 -0.413570
C77   C     C_3   0.830910 0.917372 0.533650 -0.883634
C78   C     C_R   0.484829 0.341706 0.099487 -0.131348
C79   C     C_3   0.116606 0.340249 0.337680 0.141138
C80   C     C_3   0.017522 0.384356 0.313506 -0.415249
C81   C     C_3   0.006675 0.415574 0.259918 -0.904614
C82   C     C_2   0.424826 0.747811 0.112749 0.492351
C83   C     C_2   0.569896 0.243814 0.885245 0.499167
C84   C     C_2   0.211037 0.066718 0.467781 0.404307
C85   C     C_2   0.716095 0.970193 0.643691 0.389217
C86   C     C_R   0.531726 0.410663 0.876981 -0.112930
H1    H     H_    0.363089 0.480993 0.637506 0.167136
H2    H     H_    0.591017 0.872893 0.596734 0.148952
H3    H     H_    0.022524 0.668348 0.590985 0.194521
H4    H     H_    0.976251 0.334416 0.407173 0.192528
H5    H     H_    0.229887 0.544193 0.517247 0.151204
H6    H     H_    0.764034 0.470184 0.474264 0.151000
H7    H     H_    0.133959 0.601429 0.552635 0.143358
H8    H     H_    0.863428 0.404360 0.443805 0.142146
H9    H     H_    0.374654 0.476946 0.727413 0.148631
H10   H     H_    0.623340 0.528426 0.272332 0.143107
H11   H     H_    0.525421 0.710813 0.883836 0.201282
H12   H     H_    0.634067 0.527846 0.362139 0.161434
H13   H     H_    0.482838 0.280483 0.117952 0.199268
H14   H     H_    0.350334 0.470100 0.328951 0.149547
H15   H     H_    0.654182 0.514727 0.671535 0.197250
H16   H     H_    0.341260 0.471486 0.239464 0.139556
H17   H     H_    0.663780 0.511039 0.761061 0.152822
H18   H     H_    0.454428 0.719225 0.025804 0.180364
H19   H     H_    0.542288 0.271728 0.972536 0.178734
H20   H     H_    0.514606 0.715243 0.967282 0.159561
H21   H     H_    0.493112 0.275169 0.034601 0.158295
H22   H     H_    0.372952 0.349876 0.412203 0.126349
H23   H     H_    0.464288 0.205202 0.481622 0.184959
H24   H     H_    0.624707 0.658772 0.583740 0.104537
H25   H     H_    0.839248 0.833768 0.620878 0.184891
H26   H     H_    0.753089 0.790752 0.572586 0.105777
H27   H     H_    0.949843 0.822540 0.567725 0.241899
H28   H     H_    0.863705 0.781312 0.517287 0.220214
H29   H     H_    0.755017 0.920010 0.516195 0.261331
H30   H     H_    0.863618 0.940746 0.505618 0.280577
H31   H     H_    0.842432 0.961822 0.566023 0.264892
H32   H     H_    0.133299 0.284986 0.313992 0.192827
H33   H     H_    0.167189 0.387350 0.337860 0.100831
H34   H     H_    0.535534 0.789071 0.536533 0.135036
H35   H     H_    0.967492 0.337017 0.313105 0.239424
H36   H     H_    0.000812 0.441905 0.335670 0.222564
H37   H     H_    0.055188 0.463989 0.259478 0.262157
H38   H     H_    0.934404 0.447509 0.243555 0.272135
H39   H     H_    0.021068 0.359069 0.236512 0.268907
H40   H     H_    0.379451 0.753282 0.137410 0.112653
H41   H     H_    0.614926 0.237514 0.860397 0.117334
H42   H     H_    0.196373 0.131652 0.450135 0.139905
H43   H     H_    0.729021 0.902279 0.656807 0.087435
H44   H     H_    0.729030 0.264363 0.567458 0.170468
H45   H     H_    0.266470 0.740387 0.449562 0.163981
H46   H     H_    0.209267 0.894615 0.446305 0.194079
H47   H     H_    0.765223 0.117815 0.605097 0.196335
H48   H     H_    0.352431 0.153111 0.498928 0.174774
N1    N     N_R   0.525843 0.491965 0.802091 -0.350003
N2    N     N_R   0.475861 0.500998 0.197976 -0.349083
N3    N     N_R   0.731710 0.552720 0.528410 -0.155507
N4    N     N_R   0.268290 0.447280 0.471590 -0.155147
O1    O     O_R   0.383110 0.605620 0.485680 -0.611792
O2    O     O_2   0.479171 0.347765 0.198840 -0.554993
O3    O     O_2   0.474946 0.653185 0.200616 -0.573656
O4    O     O_2   0.521803 0.340506 0.798117 -0.563477
O5    O     O_2   0.305418 0.248541 0.409350 -0.591136
O6    O     O_2   0.732569 0.655698 0.642515 -0.549213
O7    O     O_3   0.873140 0.704452 0.608762 -0.605844
O8    O     O_3   0.123685 0.304491 0.385745 -0.623405
O9    O     O_2   0.447379 0.814995 0.099152 -0.555102
O10   O     O_2   0.545241 0.177336 0.898317 -0.549895
O11   O     O_2   0.146167 0.031019 0.472811 -0.572000
O12   O     O_R   0.616890 0.394380 0.514320 -0.607039
O13   O     O_2   0.759669 0.023220 0.669758 -0.552474
O14   O     O_R   0.531900 0.639510 0.503910 -0.642582
O15   O     O_R   0.468100 0.360490 0.496090 -0.632552
O16   O     O_R   0.425620 0.483050 0.562130 -0.608834
O17   O     O_R   0.574380 0.516950 0.437870 -0.613134
O18   O     O_R   0.574410 0.516930 0.580360 -0.639083
O19   O     O_R   0.425590 0.483070 0.419640 -0.653957
O20   O     O_2   0.527378 0.644603 0.802453 -0.543026
Zn1   Zn    Zn3+2 0.400660 0.477380 0.487830 0.934677
Zn2   Zn    Zn3+2 0.599340 0.522620 0.512170 0.939534

loop_
_geom_bond_atom_site_label_1
_geom_bond_atom_site_label_2
_ccdc_geom_bond_type
C24   H47   S    
C84   H42   S    
C21   C26   A    
C63   C65   A    
C34   C56   A    
C44   N3    A    
C23   C45   A    
C27   C29   A    
C47   H6    S    
C37   H2    S    
C35   C36   A    
C12   O15   A    
C55   H7    S    
O14   Zn2   S    
C82   O9    D    
C47   C49   A    
C80   H36   S    
C3    C64   A    
C75   O7    S    
C75   H26   S    
C50   C54   A    
O12   Zn2   S    
C30   C35   A    
C81   H37   S    
C40   O20   S    
C24   C26   A    
C26   H44   S    
C5    C11   A    
C77   H31   S    
C71   N1    S    
C4    C65   A    
C11   C14   A    
C43   C52   A    
C57   C59   A    
C66   C69   A    
C20   C25   A    
C79   H32   S    
C29   C33   A    
C56   C78   A    
C1    O14   A    
C32   C39   A    
C24   C32   A    
C69   C71   A    
C82   H40   S    
C41   O2    S    
C62   C64   A    
C60   O4    S    
N4    Zn1   S    
C49   C51   A    
C22   C25   A    
C79   H33   S    
C16   O18   A    
C50   C52   A    
C11   H18   S    
C77   H30   S    
C17   O19   A    
C1    O1    A    
C2    C61   A    
C42   C51   A    
C46   N4    A    
C81   H39   S    
C84   O11   D    
C2    C34   A    
C48   C50   A    
O1    Zn1   S    
C85   O13   D    
O19   Zn1   S    
C64   H15   S    
C42   C44   A    
C63   H16   S    
C58   H3    S    
C79   O8    S    
C68   H12   S    
C80   H35   S    
C40   C45   A    
C37   C39   A    
C40   N1    A    
C22   C31   A    
C81   H38   S    
C12   O12   A    
O18   Zn2   S    
C76   C77   S    
C13   H19   S    
C66   H1    S    
C4    C68   A    
C60   C86   A    
C73   H22   S    
C15   C83   S    
C18   C67   A    
C53   C54   A    
C12   C21   S    
C23   C86   A    
C33   C37   A    
C79   C80   S    
C59   H4    S    
O15   Zn1   S    
C19   C78   A    
C70   H10   S    
C75   C76   S    
C18   H20   S    
C41   C56   A    
C5    C9    A    
C52   C59   A    
C85   H43   S    
C48   H5    S    
C76   H28   S    
C27   H34   S    
C47   N3    A    
C76   H27   S    
C51   C58   A    
C44   C74   S    
C60   N1    A    
C15   C86   A    
C4    C17   S    
C61   O3    S    
C21   C28   A    
C7    C19   A    
C57   H8    S    
C13   C15   A    
C16   O16   A    
C9    C34   A    
C28   H23   S    
C45   C67   A    
C3    C66   A    
C39   C85   S    
C17   O17   A    
C62   H17   S    
C73   O5    D    
C7    C9    A    
C74   O6    D    
C54   C55   A    
C1    C20   S    
C53   C57   A    
N3    Zn2   S    
C22   H46   S    
O17   Zn2   S    
C8    C10   A    
C65   H14   S    
C83   H41   S    
C80   C81   S    
C69   H9    S    
C36   H48   S    
C74   H24   S    
C5    C8    A    
C6    C7    A    
C20   C27   A    
C10   C23   A    
C75   H25   S    
C31   C38   A    
C48   N4    A    
C28   C30   A    
C38   C84   S    
O16   Zn1   S    
C29   C31   A    
C43   O8    S    
C6    C13   A    
C30   C32   A    
C25   H45   S    
C49   C53   A    
C36   C38   A    
C33   C35   A    
C62   C71   A    
C46   C73   S    
C2    C14   A    
C43   C46   A    
C8    C18   A    
C72   N2    S    
C6    C10   A    
C67   H11   S    
C83   O10   D    
C63   C72   A    
C68   C70   A    
C55   C58   A    
C78   H13   S    
C14   C82   S    
C70   C72   A    
C77   H29   S    
C42   O7    S    
C41   N2    A    
C3    C16   S    
C61   N2    A    
C19   H21   S    
