data_mof_unit_16306.cif
_audit_creation_date              2012-12-10T19:03:04-0500
_audit_creation_method            fapswitch 2.2
_symmetry_space_group_name_H-M    P1
_symmetry_Int_Tables_number       1
_space_group_crystal_system       triclinic
_cell_length_a                    10.737494
_cell_length_b                    10.836401
_cell_length_c                    9.551262
_cell_angle_alpha                 90.547937
_cell_angle_beta                  89.865264
_cell_angle_gamma                 90.376413
_cell_volume                      1111.26692994

loop_
_atom_site_label
_atom_site_type_symbol
_atom_type_description
_atom_site_fract_x
_atom_site_fract_y
_atom_site_fract_z
_atom_type_partial_charge
C1    C     C_R   0.496886 0.262437 0.499345 0.793556
C2    C     C_3   0.878292 0.497816 0.499166 0.165736
C3    C     C_3   0.929093 0.620478 0.562110 -0.384641
C4    C     C_3   0.929216 0.483583 0.347603 -0.370978
C5    C     C_R   0.473623 0.065481 0.623361 0.123937
C6    C     C_R   0.483139 0.129531 0.497922 -0.102785
C7    C     C_R   0.474993 0.063178 0.371106 -0.227265
C8    C     C_R   0.475849 0.934444 0.371967 -0.224190
C9    C     C_R   0.484968 0.871102 0.499623 -0.103739
C10   C     C_R   0.474527 0.938422 0.624462 0.128058
C11   C     C_3   0.552277 0.936505 0.753890 -0.492955
C12   C     C_R   0.259862 0.498460 0.499931 0.750545
C13   C     C_3   0.550555 0.076304 0.752672 -0.455041
C14   C     C_R   0.604887 0.531737 0.073786 0.263228
C15   C     C_R   0.400611 0.456527 0.074086 -0.093431
C16   C     C_R   0.400485 0.456793 0.925389 -0.088828
C17   C     C_R   0.605483 0.530054 0.926414 0.260240
C18   C     C_3   0.674770 0.649094 0.920652 -0.520338
C19   C     C_3   0.671526 0.652747 0.079250 -0.502977
C20   C     C_R   0.497765 0.737822 0.500340 0.798194
C21   C     C_R   0.740206 0.498873 0.499729 0.753357
C22   C     C_3   0.070991 0.388634 0.587436 -0.383195
C23   C     C_3   0.927141 0.388707 0.587113 -0.378786
C24   C     C_3   0.072809 0.620321 0.562268 -0.377979
C25   C     C_3   0.071762 0.482916 0.347675 -0.378300
C26   C     C_3   0.121933 0.497529 0.499428 0.169030
Cu1   Cu    Cu3+1 0.499990 0.499980 0.640670 0.928677
Cu2   Cu    Cu3+1 0.500010 0.500020 0.359330 0.927284
H1    H     H_    0.104794 0.396346 0.697268 0.162392
H2    H     H_    0.897377 0.561626 0.282697 0.160733
H3    H     H_    0.108349 0.699601 0.500224 0.150408
H4    H     H_    0.895072 0.699911 0.500165 0.148709
H5    H     H_    0.474660 0.110005 0.271429 0.164494
H6    H     H_    0.475704 0.885401 0.272644 0.161003
H7    H     H_    0.500402 0.897669 0.844345 0.195193
H8    H     H_    0.646635 0.898057 0.734669 0.193419
H9    H     H_    0.643642 0.118492 0.733168 0.194790
H10   H     H_    0.319426 0.422622 0.129053 0.135557
H11   H     H_    0.105404 0.299516 0.543813 0.148054
H12   H     H_    0.319160 0.423254 0.870084 0.135271
H13   H     H_    0.770126 0.637701 0.877510 0.183739
H14   H     H_    0.619124 0.722254 0.872118 0.216598
H15   H     H_    0.765415 0.646108 0.126200 0.183053
H16   H     H_    0.612846 0.728280 0.122412 0.210241
H17   H     H_    0.891798 0.299702 0.543115 0.147016
H18   H     H_    0.892643 0.396235 0.696839 0.168043
H19   H     H_    0.107004 0.632843 0.671454 0.166532
H20   H     H_    0.894761 0.633080 0.671106 0.159202
H21   H     H_    0.106647 0.559674 0.281156 0.169330
H22   H     H_    0.105218 0.394842 0.300302 0.156592
H23   H     H_    0.893687 0.396546 0.298812 0.164003
N1    N     N_R   0.500800 0.500930 0.147930 -0.183598
N2    N     N_R   0.500800 0.500890 0.852020 -0.182393
O1    O     O_R   0.500000 0.319640 0.618810 -0.578337
O2    O     O_R   0.500010 0.319680 0.381230 -0.584241
O3    O     O_R   0.317690 0.499960 0.618790 -0.593601
O4    O     O_R   0.317700 0.500000 0.381210 -0.594707
O5    O     O_R   0.499990 0.680320 0.618770 -0.574457
O6    O     O_R   0.500000 0.680360 0.381190 -0.582154
O7    O     O_R   0.682300 0.500000 0.618790 -0.586786
O8    O     O_R   0.682310 0.500040 0.381210 -0.586262
H24   H     H_    0.497593 0.117223 0.841653 0.195751

loop_
_geom_bond_atom_site_label_1
_geom_bond_atom_site_label_2
_ccdc_geom_bond_type
C2    C4    S    
C1    O1    A    
Cu1   N2    S    
C15   H10   S    
C6    C7    A    
C23   H17   S    
C22   H1    S    
C11   C13   S    
C9    C10   A    
C9    C20   S    
C21   O8    A    
Cu2   O8    S    
Cu1   O3    S    
C2    C21   S    
C11   H7    S    
C4    C25   S    
C1    O2    A    
Cu1   O1    S    
C4    H2    S    
C7    C8    A    
C23   H18   S    
C8    H6    S    
C15   N1    A    
C20   O6    A    
Cu2   N1    S    
C14   C17   A    
C3    C24   S    
C12   O3    A    
C13   H9    S    
C16   H12   S    
C5    C6    A    
C12   O4    A    
C11   H8    S    
Cu2   O2    S    
C19   H15   S    
C17   C18   S    
C2    C3    S    
Cu1   O7    S    
C18   H14   S    
C3    H4    S    
C24   C26   S    
C25   H21   S    
C24   H3    S    
C10   C11   S    
C7    H5    S    
C4    H23   S    
C20   O5    A    
C15   C16   A    
C17   N2    A    
C3    H20   S    
C5    C10   A    
C19   H16   S    
Cu2   O4    S    
C21   O7    A    
C18   C19   S    
C22   C26   S    
Cu2   O6    S    
C2    C23   S    
C16   N2    A    
C1    C6    S    
C22   H11   S    
C25   C26   S    
C25   H22   S    
C24   H19   S    
C5    C13   S    
C14   C19   S    
C22   C23   S    
C14   N1    A    
C13   H24   S    
C18   H13   S    
C12   C26   S    
C8    C9    A    
Cu1   Cu2   S    
Cu1   O5    S    
