data_mof_unit_48360.cif
_audit_creation_date              2012-12-10T18:58:38-0500
_audit_creation_method            fapswitch 2.2
_symmetry_space_group_name_H-M    P1
_symmetry_Int_Tables_number       1
_space_group_crystal_system       triclinic
_cell_length_a                    10.624462
_cell_length_b                    9.832102
_cell_length_c                    17.441802
_cell_angle_alpha                 90.218367
_cell_angle_beta                  90.04017
_cell_angle_gamma                 90.030614
_cell_volume                      1821.97054408

loop_
_atom_site_label
_atom_site_type_symbol
_atom_type_description
_atom_site_fract_x
_atom_site_fract_y
_atom_site_fract_z
_atom_type_partial_charge
C1    C     C_R   0.260276 0.499967 0.500096 1.015574
C2    C     C_R   0.739763 0.500036 0.499986 1.009720
C3    C     C_1   0.593940 0.490182 0.966187 -0.057692
C4    C     C_1   0.597780 0.490360 0.034426 -0.056954
C5    C     C_R   0.065123 0.451140 0.564986 0.217126
C6    C     C_R   0.935049 0.549025 0.435191 0.217000
C7    C     C_R   0.934983 0.451187 0.564956 0.204988
C8    C     C_R   0.065165 0.548831 0.435198 0.206343
C9    C     C_R   0.502733 0.499630 0.353100 0.942767
C10   C     C_R   0.502148 0.500192 0.646870 0.942202
C11   C     C_R   0.872086 0.500117 0.500048 -0.274135
C12   C     C_R   0.128009 0.499920 0.500090 -0.277050
C13   C     C_R   0.587784 0.616769 0.845662 0.163000
C14   C     C_R   0.571322 0.368315 0.155506 0.177288
C15   C     C_R   0.577955 0.618166 0.154136 0.183004
C16   C     C_R   0.538734 0.371865 0.847236 0.189697
C17   C     C_R   0.558409 0.618609 0.767391 -0.167074
C18   C     C_R   0.538159 0.373235 0.232648 -0.199640
C19   C     C_R   0.544949 0.619578 0.231428 -0.154177
C20   C     C_R   0.510847 0.377402 0.769473 -0.170921
C21   C     C_R   0.520409 0.499732 0.729579 -0.094296
C22   C     C_R   0.524528 0.497857 0.270653 -0.088792
C23   C     C_R   0.570008 0.072376 0.552208 -0.046564
C24   C     C_R   0.429997 0.927626 0.447799 -0.046984
C25   C     C_R   0.430005 0.071582 0.447798 -0.057984
C26   C     C_R   0.570001 0.928414 0.552211 -0.053894
C27   C     C_R   0.576892 0.492080 0.885250 0.058436
C28   C     C_R   0.588450 0.491893 0.115727 0.071330
H1    H     H_    0.566643 0.711463 0.734874 0.171542
H2    H     H_    0.524002 0.278634 0.263166 0.169039
H3    H     H_    0.537266 0.716252 0.261150 0.173663
H4    H     H_    0.481937 0.285400 0.739856 0.172236
H5    H     H_    0.625979 0.127293 0.593915 0.156907
H6    H     H_    0.374006 0.872710 0.406105 0.158029
H7    H     H_    0.374041 0.125871 0.406097 0.138149
H8    H     H_    0.625946 0.874127 0.593933 0.132777
N1    N     N_R   0.500000 0.857200 0.500000 -0.085086
N2    N     N_R   0.500000 0.142800 0.500000 -0.085741
O1    O     O_R   0.316770 0.614620 0.500000 -0.595954
O2    O     O_R   0.683230 0.385380 0.500000 -0.598782
O3    O     O_R   0.683230 0.614620 0.500000 -0.599257
O4    O     O_R   0.316770 0.385380 0.500000 -0.596775
O5    O     O_R   0.500010 0.614710 0.389120 -0.607265
O6    O     O_R   0.499990 0.385290 0.610880 -0.605338
O7    O     O_R   0.499990 0.614710 0.610880 -0.636021
O8    O     O_R   0.500010 0.385290 0.389120 -0.636549
Zn1   Zn    Zn3+2 0.500000 0.653120 0.500000 0.998655
Zn2   Zn    Zn3+2 0.500000 0.346880 0.500000 0.998402
C29   C     C_3   0.629498 0.744669 0.888553 -0.394355
C30   C     C_3   0.649730 0.871765 0.839813 -0.878272
H9    H     H_    0.721785 0.852489 0.794961 0.274540
H10   H     H_    0.559846 0.904176 0.812987 0.253945
H11   H     H_    0.683843 0.955922 0.877047 0.255869
H12   H     H_    0.557763 0.769101 0.932734 0.218380
H13   H     H_    0.719748 0.722770 0.918326 0.218315
C31   C     C_3   0.586000 0.229639 0.118192 -0.451271
C32   C     C_3   0.702727 0.156451 0.148035 -0.808526
H14   H     H_    0.787746 0.220109 0.138920 0.275766
H15   H     H_    0.693073 0.133679 0.210035 0.262655
H16   H     H_    0.715072 0.059128 0.116477 0.246256
H17   H     H_    0.501090 0.167014 0.129893 0.211791
H18   H     H_    0.594723 0.236652 0.055343 0.225104
C33   C     C_3   0.601390 0.752934 0.114843 -0.418038
C34   C     C_3   0.477768 0.821501 0.092989 -0.867875
H19   H     H_    0.422037 0.754177 0.054547 0.269235
H20   H     H_    0.421718 0.844957 0.145117 0.271789
H21   H     H_    0.497721 0.918049 0.062473 0.248281
H22   H     H_    0.655222 0.821094 0.153883 0.220559
H23   H     H_    0.660343 0.740058 0.062853 0.208173
C35   C     C_3   0.528466 0.236160 0.887460 -0.426517
C36   C     C_3   0.405506 0.224376 0.932196 -0.833686
H24   H     H_    0.398315 0.305072 0.976589 0.263011
H25   H     H_    0.324018 0.232782 0.892555 0.281587
H26   H     H_    0.401546 0.123923 0.960991 0.246034
H27   H     H_    0.531370 0.151711 0.845025 0.210050
H28   H     H_    0.610709 0.220956 0.925640 0.205788
Br1   Br    Br    0.156865 0.389506 0.654170 -0.449034
Br2   Br    Br    0.843656 0.611185 0.346051 -0.462697
Br3   Br    Br    0.843362 0.389394 0.654092 -0.477176
Br4   Br    Br    0.156968 0.610365 0.346054 -0.474627

loop_
_geom_bond_atom_site_label_1
_geom_bond_atom_site_label_2
_ccdc_geom_bond_type
C14   C31   S    
C17   H1    S    
C14   C18   A    
C19   H3    S    
C15   C28   A    
C15   C19   A    
O1    Zn1   S    
C9    C22   S    
C32   H15   S    
C2    O3    A    
C29   H12   S    
C31   C32   S    
C23   C26   A    
C33   H23   S    
C23   H5    S    
C30   H10   S    
C35   C36   S    
C18   H2    S    
N1    Zn1   S    
N2    Zn2   S    
C16   C20   A    
C16   C27   A    
C9    O8    A    
C1    C12   S    
C2    C11   S    
C4    C28   S    
C24   N1    A    
C5    C7    A    
O7    Zn1   S    
C10   C21   S    
O8    Zn2   S    
C9    O5    A    
C30   H11   S    
C10   O6    A    
C34   H21   S    
C19   C22   A    
C16   C35   S    
C24   C25   A    
C5    C12   A    
C6    C11   A    
C36   H25   S    
C32   H16   S    
C6    C8    A    
C29   H13   S    
C24   H6    S    
C34   H20   S    
C7    C11   A    
C25   N2    A    
C8    C12   A    
C10   O7    A    
C30   H9    S    
O3    Zn1   S    
O4    Zn2   S    
C25   H7    S    
C13   C29   S    
C26   H8    S    
C35   H28   S    
C31   H18   S    
C5    Br1   S    
C3    C4    T    
C7    Br3   S    
C20   H4    S    
O2    Zn2   S    
C33   H22   S    
C18   C22   A    
C36   H26   S    
C26   N1    A    
C23   N2    A    
C13   C17   A    
C34   H19   S    
C3    C27   S    
C36   H24   S    
C32   H14   S    
C17   C21   A    
C6    Br2   S    
C1    O1    A    
C33   C34   S    
C2    O2    A    
C1    O4    A    
C20   C21   A    
C29   C30   S    
C35   H27   S    
C8    Br4   S    
C15   C33   S    
C31   H17   S    
C13   C27   A    
C14   C28   A    
O5    Zn1   S    
O6    Zn2   S    
