data_mof_unit_5039.cif
_audit_creation_date              2012-10-26T20:51:58-0400
_audit_creation_method            fapswitch 2.2
_symmetry_space_group_name_H-M    P1
_symmetry_Int_Tables_number       1
_space_group_crystal_system       triclinic
_cell_length_a                    8.779761
_cell_length_b                    15.998591
_cell_length_c                    14.787974
_cell_angle_alpha                 89.907568
_cell_angle_beta                  96.979788
_cell_angle_gamma                 90.381093
_cell_volume                      2061.73504039

loop_
_atom_site_label
_atom_site_type_symbol
_atom_type_description
_atom_site_fract_x
_atom_site_fract_y
_atom_site_fract_z
_atom_type_partial_charge
C1    C     C_R   0.500566 0.340946 0.500101 0.534386
C2    C     C_R   0.795941 0.501559 0.521983 0.551345
C3    C     C_2   0.042751 0.480185 0.471005 -0.024951
C4    C     C_2   0.957249 0.519816 0.528995 -0.024952
C5    C     C_R   0.370083 0.953798 0.515419 -0.105356
C6    C     C_R   0.629913 0.046202 0.484579 -0.105355
C7    C     C_R   0.504373 0.912614 0.499441 0.042322
C8    C     C_R   0.495623 0.087386 0.500556 0.042322
C9    C     C_R   0.636122 0.958853 0.483729 0.017126
C10   C     C_R   0.363873 0.041147 0.516268 0.017126
C11   C     C_1   0.503007 0.823018 0.499668 -0.064560
C12   C     C_R   0.499432 0.659054 0.499899 0.534383
C13   C     C_1   0.496989 0.176982 0.500331 -0.064561
C14   C     C_1   0.498793 0.251959 0.500167 -0.043347
C15   C     C_1   0.501204 0.748041 0.499832 -0.043347
C16   C     C_R   0.637821 0.513680 0.960997 0.013541
C17   C     C_R   0.362179 0.486320 0.039002 0.013541
C18   C     C_3   0.985184 0.407192 0.407865 -0.258576
C19   C     C_3   0.088455 0.329715 0.421673 -0.308005
C20   C     C_3   0.016773 0.254726 0.368212 -0.464678
C21   C     C_3   0.014812 0.592807 0.592139 -0.258579
C22   C     C_3   0.911562 0.670291 0.578312 -0.308008
C23   C     C_R   0.498902 0.500155 0.902813 0.007142
C24   C     C_3   0.983228 0.745274 0.631792 -0.464668
C25   C     C_3   0.215720 0.081555 0.534219 -0.407669
C26   C     C_3   0.784274 0.918445 0.465777 -0.407669
C27   C     C_3   0.789568 0.526222 0.119095 -0.400579
C28   C     C_3   0.210432 0.473778 0.880904 -0.400579
C29   C     C_3   0.783268 0.528598 0.917020 -0.398444
C30   C     C_3   0.216732 0.471402 0.082980 -0.398444
C31   C     C_R   0.501098 0.499844 0.097187 0.007142
C32   C     C_R   0.360613 0.486802 0.941981 0.016312
C33   C     C_R   0.639387 0.513198 0.058019 0.016312
C34   C     C_1   0.499627 0.500097 0.802432 0.118520
C35   C     C_1   0.500373 0.499902 0.197568 0.118520
C36   C     C_R   0.204059 0.498442 0.478017 0.551349
Cu1   Cu    Cu3+1 0.500040 0.500000 0.589220 0.952686
Cu2   Cu    Cu3+1 0.499960 0.500000 0.410780 0.952684
H1    H     H_    0.269424 0.917648 0.527409 0.105582
H2    H     H_    0.007322 0.729545 0.705315 0.158368
H3    H     H_    0.091680 0.764461 0.605719 0.152389
H4    H     H_    0.902500 0.798636 0.624146 0.148646
H5    H     H_    0.892092 0.686863 0.504775 0.159506
H6    H     H_    0.799193 0.657027 0.602425 0.196787
H7    H     H_    0.019745 0.571386 0.663982 0.149153
H8    H     H_    0.130779 0.614960 0.581334 0.176637
H9    H     H_    0.222095 0.150765 0.534850 0.138875
H10   H     H_    0.122263 0.062345 0.480709 0.120028
H11   H     H_    0.185491 0.060717 0.601486 0.130037
H12   H     H_    0.730571 0.082352 0.472588 0.105580
H13   H     H_    0.777900 0.849235 0.465145 0.138873
H14   H     H_    0.814501 0.939283 0.398509 0.130038
H15   H     H_    0.877734 0.937656 0.519286 0.120027
H16   H     H_    0.778823 0.523739 0.192874 0.138358
H17   H     H_    0.871514 0.476501 0.105855 0.123133
H18   H     H_    0.838509 0.588546 0.105682 0.131673
H19   H     H_    0.221177 0.476261 0.807125 0.138359
H20   H     H_    0.161491 0.411455 0.894318 0.131673
H21   H     H_    0.128486 0.523499 0.894145 0.123132
H22   H     H_    0.886506 0.541398 0.965589 0.118838
H23   H     H_    0.908353 0.235531 0.394316 0.152387
H24   H     H_    0.807616 0.472791 0.876712 0.134386
H25   H     H_    0.767648 0.583450 0.870773 0.135187
H26   H     H_    0.113493 0.458601 0.034411 0.118838
H27   H     H_    0.232352 0.416550 0.129226 0.135186
H28   H     H_    0.192384 0.527209 0.123288 0.134386
H29   H     H_    0.992621 0.270450 0.294692 0.158369
H30   H     H_    0.097517 0.201370 0.375840 0.148649
H31   H     H_    0.200799 0.342985 0.397531 0.196794
H32   H     H_    0.107978 0.313148 0.495210 0.159511
H33   H     H_    0.869231 0.385030 0.418689 0.176629
H34   H     H_    0.980214 0.428616 0.336021 0.149153
N1    N     N_1   0.500050 0.499980 0.276720 -0.200917
N2    N     N_1   0.499950 0.500020 0.723280 -0.200917
O1    O     O_R   0.500070 0.380310 0.575330 -0.482770
O2    O     O_R   0.499930 0.619690 0.424670 -0.482769
O3    O     O_R   0.500000 0.380310 0.424640 -0.504398
O4    O     O_R   0.500000 0.619690 0.575360 -0.504397
O5    O     O_R   0.274870 0.500000 0.557960 -0.510529
O6    O     O_R   0.725130 0.500000 0.442040 -0.510525
O7    O     O_R   0.274790 0.500000 0.407270 -0.496191
O8    O     O_R   0.725210 0.500000 0.592730 -0.496188

loop_
_geom_bond_atom_site_label_1
_geom_bond_atom_site_label_2
_ccdc_geom_bond_type
Cu1   N2    S    
C29   H25   S    
C8    C13   S    
C24   H3    S    
C30   H26   S    
C24   H4    S    
C20   H29   S    
C19   C20   S    
C6    C9    A    
C27   H16   S    
Cu2   O2    S    
C28   H19   S    
C27   C33   S    
C7    C11   S    
Cu1   O5    S    
C27   H17   S    
C1    O3    A    
C3    C18   S    
C18   C19   S    
C20   H23   S    
C11   C15   T    
C22   H6    S    
C12   O4    A    
C31   C33   A    
C25   H9    S    
Cu1   O1    S    
C21   C22   S    
C17   C30   S    
C9    C26   S    
C21   H7    S    
C18   H34   S    
C1    O1    A    
C28   C32   S    
C5    C7    A    
C27   H18   S    
C6    C8    A    
C16   C29   S    
C2    C4    S    
Cu1   Cu2   S    
C26   H14   S    
C16   C33   A    
C22   H5    S    
C29   H22   S    
C36   O7    A    
C23   C34   S    
C6    H12   S    
C25   H10   S    
C30   H28   S    
C34   N2    T    
C10   C25   S    
C16   C23   A    
C12   O2    A    
Cu2   O7    S    
C17   C31   A    
C31   C35   S    
Cu1   O8    S    
C2    O8    A    
C3    C4    D    
C26   H15   S    
C21   H8    S    
C28   H21   S    
C18   H33   S    
C7    C9    A    
C19   H31   S    
C29   H24   S    
C35   N1    T    
C20   H30   S    
C36   O5    A    
Cu2   O3    S    
C28   H20   S    
Cu1   O4    S    
C23   C32   A    
C5    H1    S    
C12   C15   S    
C5    C10   A    
C26   H13   S    
C4    C21   S    
Cu2   O6    S    
C3    C36   S    
C24   H2    S    
C22   C24   S    
C25   H11   S    
C30   H27   S    
C2    O6    A    
C8    C10   A    
C17   C32   A    
C19   H32   S    
C1    C14   S    
C13   C14   T    
Cu2   N1    S    
