data_mof_unit_66725.cif
_audit_creation_date              2012-12-11T14:04:21-0500
_audit_creation_method            fapswitch 2.2
_symmetry_space_group_name_H-M    P1
_symmetry_Int_Tables_number       1
_space_group_crystal_system       triclinic
_cell_length_a                    20.330713
_cell_length_b                    21.685584
_cell_length_c                    8.64021
_cell_angle_alpha                 89.750287
_cell_angle_beta                  104.008266
_cell_angle_gamma                 90.157897
_cell_volume                      3695.99802206

loop_
_atom_site_label
_atom_site_type_symbol
_atom_type_description
_atom_site_fract_x
_atom_site_fract_y
_atom_site_fract_z
_atom_type_partial_charge
Ba1   Ba    Ba6+2 0.999900 0.456810 0.844860 1.931771
Ba2   Ba    Ba6+2 0.999900 0.543190 0.344860 1.927058
Ba3   Ba    Ba6+2 0.499900 0.956810 0.844860 1.931778
Ba4   Ba    Ba6+2 0.499900 0.043190 0.344860 1.927062
C1    C     C_3   0.055247 0.168135 0.562003 1.139345
C2    C     C_R   0.202069 0.283752 0.380981 0.617850
C3    C     C_R   0.693083 0.224474 0.888552 0.648393
C4    C     C_R   0.702071 0.783755 0.380981 0.617839
C5    C     C_R   0.224397 0.725317 0.055053 -0.018884
C6    C     C_R   0.230896 0.279999 0.548997 0.009190
C7    C     C_R   0.724397 0.225316 0.055052 -0.018888
C8    C     C_R   0.730897 0.780000 0.548997 0.009194
C9    C     C_R   0.201305 0.680880 0.151406 -0.058552
C10   C     C_R   0.206497 0.323005 0.645879 -0.081894
C11   C     C_R   0.701305 0.180880 0.151406 -0.058549
C12   C     C_3   0.048338 0.833131 0.051848 1.163050
C13   C     C_R   0.706496 0.823004 0.645881 -0.081940
C14   C     C_R   0.150314 0.638169 0.085107 0.100723
C15   C     C_R   0.156257 0.366290 0.579596 0.092621
C16   C     C_R   0.650314 0.138169 0.085107 0.100725
C17   C     C_R   0.656255 0.866288 0.579599 0.092514
C18   C     C_R   0.822659 0.262266 0.283804 -0.038266
C19   C     C_R   0.820504 0.735613 0.786785 0.010656
C20   C     C_R   0.322657 0.762267 0.283807 -0.038305
C21   C     C_R   0.320503 0.235613 0.786785 0.010651
C22   C     C_R   0.873369 0.305186 0.350647 0.009226
C23   C     C_3   0.555257 0.668148 0.561990 1.139301
C24   C     C_R   0.868870 0.691056 0.856600 0.072575
C25   C     C_R   0.373367 0.805188 0.350650 0.009308
C26   C     C_R   0.368870 0.191056 0.856600 0.072578
C27   C     C_R   0.850119 0.361806 0.101178 0.050412
C28   C     C_R   0.850639 0.638330 0.601891 0.017182
C29   C     C_R   0.350118 0.861806 0.101179 0.050378
C30   C     C_R   0.350639 0.138329 0.601892 0.017182
C31   C     C_R   0.794803 0.322730 0.040764 0.068387
C32   C     C_R   0.799139 0.680635 0.535925 0.034090
C33   C     C_R   0.294803 0.822730 0.040765 0.068380
C34   C     C_3   0.548338 0.333131 0.051848 1.163050
C35   C     C_R   0.299139 0.180634 0.535926 0.034091
C36   C     C_R   0.781667 0.269935 0.126410 0.108992
C37   C     C_R   0.784561 0.732135 0.623623 0.094679
C38   C     C_R   0.281666 0.769935 0.126412 0.109001
C39   C     C_R   0.284560 0.232134 0.623623 0.094666
C40   C     C_3   0.008900 0.218133 0.996607 0.525810
C41   C     C_3   0.990889 0.773439 0.515357 0.504937
C42   C     C_3   0.508899 0.718136 0.996604 0.525851
C43   C     C_3   0.490888 0.273439 0.515357 0.504938
C44   C     C_R   0.889253 0.352705 0.256501 -0.135148
C45   C     C_R   0.135968 0.687504 0.827353 -0.007252
C46   C     C_R   0.885300 0.643997 0.762306 -0.144301
C47   C     C_R   0.389252 0.852706 0.256503 -0.135067
C48   C     C_R   0.385300 0.143997 0.762306 -0.144298
C49   C     C_3   0.003153 0.147343 0.984140 1.190619
C50   C     C_3   0.967318 0.837342 0.446072 1.210387
C51   C     C_3   0.503155 0.647346 0.984112 1.190588
C52   C     C_3   0.467318 0.337342 0.446073 1.210387
C53   C     C_3   0.222372 0.479869 0.353532 0.229364
C54   C     C_3   0.225695 0.510638 0.875242 0.279992
C55   C     C_3   0.722372 0.979868 0.353532 0.229365
C56   C     C_R   0.146909 0.322915 0.318448 -0.002020
C57   C     C_3   0.725694 0.010639 0.875241 0.279999
C58   C     C_3   0.294724 0.489711 0.455013 0.662172
C59   C     C_3   0.285412 0.554382 0.880010 0.575476
C60   C     C_3   0.794724 0.989710 0.455012 0.662182
C61   C     C_3   0.785412 0.054382 0.880011 0.575470
C62   C     C_3   0.783780 0.541797 0.943318 0.884659
C63   C     C_3   0.784516 0.457332 0.444842 0.892899
C64   C     C_3   0.283781 0.041797 0.943318 0.884653
C65   C     C_3   0.284516 0.957332 0.444842 0.892894
C66   C     C_3   0.729427 0.571521 0.017765 1.408268
C67   C     C_R   0.635968 0.187504 0.827353 -0.007256
C68   C     C_3   0.729915 0.426728 0.518320 1.393156
C69   C     C_3   0.229428 0.071521 0.017766 1.408281
C70   C     C_3   0.229915 0.926729 0.518321 1.393158
C71   C     C_3   0.004942 0.220835 0.501542 0.692345
C72   C     C_3   0.023159 0.767007 0.079034 0.852695
C73   C     C_3   0.504921 0.720822 0.501490 0.692340
C74   C     C_3   0.523159 0.267007 0.079034 0.852696
C75   C     C_R   0.115186 0.644217 0.925536 -0.352193
C76   C     C_R   0.125438 0.364693 0.417185 -0.272704
C77   C     C_R   0.615186 0.144217 0.925536 -0.352194
C78   C     C_R   0.646909 0.822916 0.318449 -0.001969
C79   C     C_R   0.625436 0.864690 0.417189 -0.272670
C80   C     C_R   0.193082 0.724474 0.888552 0.648392
Cl1   Cl    Cl    0.317148 0.432269 0.606325 -0.601858
Cl2   Cl    Cl    0.756578 0.438784 0.242185 -0.587620
Cl3   Cl    Cl    0.255012 0.060609 0.740172 -0.577945
Cl4   Cl    Cl    0.256577 0.938784 0.242185 -0.587620
Cl5   Cl    Cl    0.721960 0.652931 0.983581 -0.439811
Cl6   Cl    Cl    0.723385 0.345266 0.485097 -0.432589
Cl7   Cl    Cl    0.221961 0.152931 0.983582 -0.439821
Cl8   Cl    Cl    0.223387 0.845266 0.485100 -0.432600
Cl9   Cl    Cl    0.116355 0.161501 0.446425 -0.459978
Cl10  Cl    Cl    0.096986 0.834505 0.906977 -0.520943
Cl11  Cl    Cl    0.616357 0.661515 0.446392 -0.460000
Cl12  Cl    Cl    0.312556 0.591606 0.066829 -0.559674
Cl13  Cl    Cl    0.596986 0.334505 0.906978 -0.520944
Cl14  Cl    Cl    0.986477 0.113042 0.157857 -0.351479
Cl15  Cl    Cl    0.984072 0.897460 0.591010 -0.205953
Cl16  Cl    Cl    0.486500 0.613030 0.157835 -0.351429
Cl17  Cl    Cl    0.484073 0.397460 0.591011 -0.205956
Cl18  Cl    Cl    0.013274 0.095559 0.552702 -0.261466
Cl19  Cl    Cl    0.979762 0.886102 0.986327 -0.283478
Cl20  Cl    Cl    0.513321 0.595558 0.552784 -0.261435
Cl21  Cl    Cl    0.479762 0.386102 0.986326 -0.283480
Cl22  Cl    Cl    0.929825 0.248572 0.012251 -0.677477
Cl23  Cl    Cl    0.817147 0.932267 0.606323 -0.601849
Cl24  Cl    Cl    0.956054 0.761721 0.680437 -0.826718
Cl25  Cl    Cl    0.429826 0.748567 0.012294 -0.677479
Cl26  Cl    Cl    0.456054 0.261721 0.680438 -0.826718
Cl27  Cl    Cl    0.935877 0.124500 0.821329 -0.425891
Cl28  Cl    Cl    0.878714 0.834789 0.353360 -0.520420
Cl29  Cl    Cl    0.435870 0.624508 0.821314 -0.425936
Cl30  Cl    Cl    0.378713 0.334789 0.353362 -0.520427
Cl31  Cl    Cl    0.812553 0.091606 0.066830 -0.559670
Cl32  Cl    Cl    0.355388 0.486365 0.337272 -0.336610
Cl33  Cl    Cl    0.263492 0.612294 0.729666 -0.594205
Cl34  Cl    Cl    0.855387 0.986364 0.337269 -0.336589
Cl35  Cl    Cl    0.763494 0.112293 0.729665 -0.594199
Cl36  Cl    Cl    0.755012 0.560608 0.740171 -0.577948
F1    F     F_    0.042061 0.273094 0.487849 -0.775021
F2    F     F_    0.667137 0.452848 0.453187 -0.483479
F3    F     F_    0.167008 0.044405 0.954481 -0.480984
F4    F     F_    0.167137 0.952847 0.453187 -0.483476
F5    F     F_    0.744000 0.563883 0.178979 -0.636977
F6    F     F_    0.743661 0.434481 0.679336 -0.641249
F7    F     F_    0.244000 0.063883 0.178979 -0.636974
F8    F     F_    0.243661 0.934481 0.679337 -0.641249
F9    F     F_    0.089920 0.179819 0.717119 -0.614837
F10   F     F_    0.090666 0.855438 0.190387 -0.505830
F11   F     F_    0.589934 0.679865 0.717085 -0.614899
F12   F     F_    0.068030 0.740314 0.208048 -0.685313
F13   F     F_    0.590666 0.355438 0.190387 -0.505831
F14   F     F_    0.218598 0.756843 0.781893 -0.615334
F15   F     F_    0.226303 0.250425 0.274863 -0.642292
F16   F     F_    0.718598 0.256843 0.781892 -0.615333
F17   F     F_    0.726307 0.750429 0.274863 -0.642290
F18   F     F_    0.063076 0.123148 0.963407 -0.515244
F19   F     F_    0.000833 0.853462 0.333033 -0.571857
F20   F     F_    0.563075 0.623159 0.963335 -0.515280
F21   F     F_    0.500832 0.353462 0.333033 -0.571858
F22   F     F_    0.542006 0.773086 0.487641 -0.775047
F23   F     F_    0.568030 0.240314 0.208049 -0.685313
F24   F     F_    0.847026 0.566585 0.006940 -0.763646
F25   F     F_    0.847883 0.432750 0.508386 -0.761258
F26   F     F_    0.347026 0.066585 0.006941 -0.763646
F27   F     F_    0.347883 0.932750 0.508386 -0.761267
F28   F     F_    0.667008 0.544404 0.954482 -0.480994
H1    H     H_    0.298676 0.535736 0.511142 0.091904
H2    H     H_    0.813549 0.773190 0.862213 0.110564
H3    H     H_    0.315810 0.724060 0.358448 0.110970
H4    H     H_    0.313549 0.273189 0.862213 0.110563
H5    H     H_    0.760949 0.336789 0.930387 0.201441
H6    H     H_    0.768848 0.669728 0.419138 0.209662
H7    H     H_    0.260950 0.836789 0.930387 0.201443
H8    H     H_    0.268848 0.169726 0.419140 0.209662
H9    H     H_    0.224284 0.676208 0.276955 0.133553
H10   H     H_    0.226456 0.325129 0.773003 0.113379
H11   H     H_    0.724284 0.176208 0.276955 0.133554
H12   H     H_    0.328863 0.527714 0.858583 0.166235
H13   H     H_    0.726455 0.825128 0.773005 0.113402
H14   H     H_    0.929216 0.384930 0.307989 0.069779
H15   H     H_    0.923431 0.610449 0.815839 0.072747
H16   H     H_    0.429214 0.884931 0.307991 0.069795
H17   H     H_    0.423431 0.110449 0.815838 0.072746
H18   H     H_    0.074324 0.612750 0.874836 0.072514
H19   H     H_    0.084370 0.395996 0.366863 0.061167
H20   H     H_    0.574324 0.112750 0.874836 0.072514
H21   H     H_    0.584366 0.895992 0.366867 0.061189
H22   H     H_    0.021372 0.236352 0.887364 0.078362
H23   H     H_    0.798677 0.035734 0.511141 0.091908
H24   H     H_    0.971004 0.738159 0.422967 0.029322
H25   H     H_    0.521361 0.736364 0.887360 0.078321
H26   H     H_    0.471004 0.238159 0.422967 0.029322
H27   H     H_    0.185095 0.486030 0.426237 0.001495
H28   H     H_    0.243162 0.472473 0.961691 0.082851
H29   H     H_    0.685095 0.986030 0.426237 0.001496
H30   H     H_    0.743160 0.972474 0.961693 0.082854
H31   H     H_    0.218302 0.431776 0.309570 0.001958
H32   H     H_    0.183186 0.535996 0.904569 -0.008365
H33   H     H_    0.718300 0.931776 0.309569 0.001943
H34   H     H_    0.828863 0.027713 0.858588 0.166236
H35   H     H_    0.683184 0.035997 0.904563 -0.008372
H36   H     H_    0.972778 0.208894 0.382176 0.001734
H37   H     H_    0.023306 0.738408 0.973370 -0.184229
H38   H     H_    0.472738 0.708844 0.382177 0.001873
H39   H     H_    0.523306 0.238408 0.973370 -0.184228
H40   H     H_    0.815811 0.224059 0.358445 0.110982
O1    O     O_2   0.866180 0.413660 0.823810 -0.383816
O2    O     O_3   0.062045 0.770431 0.563685 -0.476152
O3    O     O_3   0.559396 0.733915 0.132852 -0.554883
O4    O     O_3   0.562045 0.270431 0.563685 -0.476152
O5    O     O_3   0.077880 0.530130 0.092320 -0.503802
O6    O     O_3   0.077880 0.469870 0.592320 -0.478980
O7    O     O_3   0.577880 0.030130 0.092320 -0.503804
O8    O     O_3   0.577880 0.969870 0.592320 -0.478981
O9    O     O_3   0.922050 0.469730 0.097400 -0.465693
O10   O     O_3   0.922050 0.530270 0.597400 -0.463522
O11   O     O_3   0.422050 0.969730 0.097400 -0.465695
O12   O     O_2   0.866180 0.586340 0.323810 -0.391424
O13   O     O_3   0.422050 0.030270 0.597400 -0.463522
O14   O     O_3   0.976760 0.360270 0.628090 -0.405324
O15   O     O_3   0.976760 0.639730 0.128090 -0.442245
O16   O     O_3   0.476760 0.860270 0.628090 -0.405353
O17   O     O_3   0.476760 0.139730 0.128090 -0.442245
O18   O     O_2   0.869163 0.301258 0.673634 -0.341709
O19   O     O_2   0.868533 0.694234 0.182237 -0.387649
O20   O     O_2   0.369167 0.801255 0.673645 -0.341736
O21   O     O_2   0.368533 0.194235 0.182237 -0.387652
O22   O     O_3   0.782299 0.476741 0.957322 -0.522213
O23   O     O_2   0.366180 0.913660 0.823810 -0.383822
O24   O     O_3   0.782634 0.522417 0.458503 -0.512314
O25   O     O_3   0.282299 0.976741 0.957323 -0.522212
O26   O     O_3   0.282634 0.022417 0.458503 -0.512312
O27   O     O_3   0.963665 0.230599 0.609472 -0.612393
O28   O     O_3   0.957952 0.769019 0.110293 -0.595214
O29   O     O_3   0.463671 0.730602 0.609471 -0.612413
O30   O     O_3   0.457952 0.269019 0.110293 -0.595214
O31   O     O_2   0.133470 0.412980 0.865660 -0.496171
O32   O     O_2   0.133470 0.587020 0.365660 -0.447113
O33   O     O_2   0.633470 0.912980 0.865660 -0.496179
O34   O     O_2   0.366180 0.086340 0.323810 -0.391425
O35   O     O_2   0.633470 0.087020 0.365660 -0.447114
O36   O     O_3   0.022720 0.360150 0.061220 -0.498679
O37   O     O_3   0.022720 0.639850 0.561220 -0.527070
O38   O     O_3   0.522720 0.860150 0.061220 -0.498678
O39   O     O_3   0.522720 0.139850 0.561220 -0.527070
O40   O     O_2   0.130101 0.304665 0.985648 -0.402774
O41   O     O_2   0.139559 0.683174 0.510780 -0.320587
O42   O     O_2   0.630104 0.804669 0.985649 -0.402793
O43   O     O_2   0.639559 0.183174 0.510779 -0.320588
O44   O     O_3   0.205357 0.487872 0.720092 -0.648738
O45   O     O_3   0.211359 0.518652 0.219612 -0.635891
O46   O     O_3   0.705358 0.987871 0.720092 -0.648731
O47   O     O_3   0.711359 0.018652 0.219612 -0.635890
O48   O     O_3   0.059391 0.233916 0.132863 -0.554962
P1    P     P_3+3 0.859590 0.433890 0.993820 1.210894
P2    P     P_3+3 0.089231 0.694095 0.615783 1.221750
P3    P     P_3+3 0.591304 0.808840 0.119175 1.156401
P4    P     P_3+3 0.589231 0.194095 0.615783 1.221749
P5    P     P_3+3 0.916530 0.697614 0.067906 1.134343
P6    P     P_3+3 0.918981 0.300157 0.563419 1.186257
P7    P     P_3+3 0.416530 0.197614 0.067906 1.134341
P8    P     P_3+3 0.418982 0.800157 0.563421 1.186265
P9    P     P_3+3 0.859590 0.566110 0.493820 1.204676
P10   P     P_3+3 0.359590 0.933890 0.993820 1.210888
P11   P     P_3+3 0.359590 0.066110 0.493820 1.204674
P12   P     P_3+3 0.140130 0.433190 0.695710 1.022603
P13   P     P_3+3 0.140130 0.566810 0.195710 1.030184
P14   P     P_3+3 0.640130 0.933190 0.695710 1.022583
P15   P     P_3+3 0.640130 0.066810 0.195710 1.030184
P16   P     P_3+3 0.091303 0.308839 0.119176 1.156328

loop_
_geom_bond_atom_site_label_1
_geom_bond_atom_site_label_2
_ccdc_geom_bond_type
Ba4   O7    S    
C70   F4    S    
O37   P2    S    
C58   H1    S    
O27   P6    S    
Ba2   O9    S    
C20   C38   A    
C33   H7    S    
C23   Cl11  S    
Ba1   O10   S    
O2    P2    S    
Ba3   P14   S    
O47   P15   S    
C42   O3    S    
O1    P1    D    
C21   C39   A    
C32   C37   A    
O45   P13   S    
C53   C58   S    
C3    C7    A    
C80   F14   S    
C55   C60   S    
C8    C37   S    
C9    C14   A    
C10   H10   S    
Ba1   O36   S    
O13   P11   S    
C28   C32   A    
O23   P10   D    
Ba2   P9    S    
C52   Cl17  S    
Ba1   Ba2   S    
O19   P5    D    
C3    C67   A    
C59   Cl33  S    
Ba4   O34   S    
O4    P4    S    
C62   F24   S    
Ba1   O14   S    
O10   P9    S    
O14   P6    S    
C12   C72   S    
C23   Cl20  S    
C33   C38   A    
C60   Cl34  S    
C63   C68   S    
Ba4   O39   S    
C70   Cl8   S    
C43   O4    S    
C55   H33   S    
C5    C9    A    
C20   C25   A    
C73   F22   S    
O11   P10   S    
C53   H27   S    
C7    C11   A    
C40   C49   S    
C77   H20   S    
Ba4   O11   S    
C70   F8    S    
C17   C79   A    
C14   C75   A    
C69   F3    S    
O7    P15   S    
C42   C51   S    
C63   F25   S    
O26   P11   S    
Ba3   P10   S    
O5    P13   S    
C62   O22   S    
C12   F10   S    
C6    C39   S    
C76   H19   S    
C41   Cl24  S    
C22   C44   A    
O32   P13   D    
C49   Cl27  S    
C1    F9    S    
C27   P1    S    
C57   H30   S    
Ba3   O33   S    
O6    P12   S    
C16   C77   A    
Ba2   O32   S    
Ba3   O16   S    
C61   Cl31  S    
O21   P7    D    
O42   P3    D    
O18   P6    D    
C31   H5    S    
O9    P1    S    
C59   H12   S    
O48   P16   S    
C34   Cl13  S    
C71   H36   S    
C9    H9    S    
O16   P8    S    
C15   P12   S    
C40   H22   S    
C61   H34   S    
O3    P3    S    
C11   C16   A    
C58   Cl1   S    
C55   O47   S    
C57   H35   S    
O28   P5    S    
C32   H6    S    
C30   C35   A    
O44   P12   S    
O22   P1    S    
C2    C56   A    
Ba4   O17   S    
C69   Cl7   S    
C6    C10   A    
Ba2   P13   S    
C17   P14   S    
C53   H31   S    
C24   C46   A    
O24   P9    S    
C16   P15   S    
C35   C39   A    
O46   P14   S    
C34   C74   S    
Ba3   O23   S    
Ba1   P1    S    
C64   C69   S    
C69   F7    S    
C59   Cl12  S    
Ba3   O7    S    
C51   F20   S    
C49   F18   S    
C68   F6    S    
O43   P4    D    
Ba2   O6    S    
C1    C71   S    
Ba1   O5    S    
Ba4   P11   S    
C11   H11   S    
C2    F15   S    
C20   H3    S    
C57   C61   S    
C48   H17   S    
C68   Cl6   S    
O34   P11   D    
C72   O28   S    
C12   Cl19  S    
C1    Cl9   S    
C50   F19   S    
C55   H29   S    
C4    C8    A    
C18   C36   A    
C78   P3    S    
C5    C38   S    
C42   H25   S    
C50   Cl28  S    
C65   C70   S    
Ba1   O31   S    
C63   O24   S    
O30   P7    S    
C54   C59   S    
C64   O25   S    
Ba3   O38   S    
C28   C46   A    
C65   Cl4   S    
C13   H13   S    
C29   P10   S    
C73   O29   S    
C52   F21   S    
C66   F5    S    
C19   H2    S    
C41   C50   S    
C73   H38   S    
C27   C44   A    
C21   H4    S    
C65   F27   S    
Ba2   O12   S    
C50   Cl15  S    
C66   Cl5   S    
C66   F28   S    
C24   P5    S    
C23   F11   S    
O8    P14   S    
Ba3   Ba4   S    
Ba4   O35   S    
C41   H24   S    
C64   F26   S    
C45   C80   A    
C60   Cl23  S    
C29   C33   A    
C25   C47   A    
O35   P15   D    
C21   C26   A    
Ba4   O8    S    
C26   C48   A    
C1    Cl18  S    
C56   C76   A    
C63   Cl2   S    
O38   P3    S    
C68   F2    S    
C46   H15   S    
C71   F1    S    
C30   C48   A    
C10   C15   A    
C54   H28   S    
Ba2   O15   S    
O20   P8    D    
Ba4   P15   S    
C45   P2    S    
C23   C73   S    
Ba1   P12   S    
O12   P9    D    
C2    C6    A    
C53   O45   S    
C22   P6    S    
O15   P5    S    
C51   Cl16  S    
C40   Cl22  S    
C49   Cl14  S    
C29   C47   A    
C43   Cl26  S    
C51   Cl29  S    
C35   H8    S    
C12   Cl10  S    
Ba3   O8    S    
C19   C37   A    
C67   C77   A    
C28   P9    S    
C26   P7    S    
Ba2   O5    S    
C67   P4    S    
C60   H23   S    
C40   O48   S    
Ba1   O6    S    
O29   P8    S    
C3    F16   S    
C74   F23   S    
C74   O30   S    
C8    C13   A    
C72   F12   S    
C7    C36   S    
C47   H16   S    
C62   C66   S    
C34   Cl21  S    
Ba3   O13   S    
O39   P4    S    
C79   H21   S    
C71   O27   S    
C25   P8    S    
O25   P10   S    
C31   C36   A    
C27   C31   A    
C75   H18   S    
C18   H40   S    
C15   C76   A    
C13   C17   A    
C61   Cl35  S    
C43   H26   S    
C54   O44   S    
C58   Cl32  S    
O36   P16   S    
C5    C80   A    
C45   C75   A    
C41   O2    S    
C4    C78   A    
C44   H14   S    
O33   P14   D    
C54   H32   S    
C78   C79   A    
C18   C22   A    
C42   Cl25  S    
C57   O46   S    
C30   P11   S    
C56   P16   S    
C64   Cl3   S    
C52   Cl30  S    
O31   P12   D    
C4    F17   S    
C62   Cl36  S    
C74   H39   S    
C14   P13   S    
O40   P16   D    
O41   P2    D    
O17   P7    S    
C34   F13   S    
C19   C24   A    
C72   H37   S    
Ba2   O37   S    
C43   C52   S    
C65   O26   S    
Ba1   O1    S    
