data_mof_unit_32649.cif
_audit_creation_date              2012-12-10T18:15:25-0500
_audit_creation_method            fapswitch 2.2
_symmetry_space_group_name_H-M    P1
_symmetry_Int_Tables_number       1
_space_group_crystal_system       triclinic
_cell_length_a                    12.726084
_cell_length_b                    12.930809
_cell_length_c                    23.010304
_cell_angle_alpha                 93.396658
_cell_angle_beta                  103.220065
_cell_angle_gamma                 80.673334
_cell_volume                      3636.49466254

loop_
_atom_site_label
_atom_site_type_symbol
_atom_type_description
_atom_site_fract_x
_atom_site_fract_y
_atom_site_fract_z
_atom_type_partial_charge
C1    C     C_R   0.438814 0.690486 0.487120 0.939832
C2    C     C_R   0.407488 0.381206 0.862237 0.646795
C3    C     C_R   0.555606 0.355279 0.753178 0.322727
C4    C     C_R   0.503767 0.498107 0.611091 1.071133
C5    C     C_R   0.580008 0.390401 0.701668 0.281033
C6    C     C_R   0.517148 0.483652 0.675189 -0.350836
C7    C     C_R   0.460282 0.556314 0.709525 0.422639
C8    C     C_R   0.450454 0.526787 0.764951 -0.208308
C9    C     C_R   0.494270 0.426345 0.785902 0.063973
C10   C     C_R   0.430310 0.512784 0.221838 -0.147932
C11   C     C_R   0.431468 0.543339 0.281228 0.388310
C12   C     C_R   0.689550 0.416678 0.052299 -0.114120
C13   C     C_R   0.498701 0.478951 0.326857 -0.104606
C14   C     C_R   0.561820 0.385712 0.312763 -0.285258
C15   C     C_R   0.558921 0.355772 0.253603 -0.040862
C16   C     C_R   0.561165 0.307922 0.506520 0.961557
C17   C     C_R   0.493564 0.419423 0.208049 0.216983
C18   C     C_R   0.715632 0.055233 0.463116 0.478702
C19   C     C_R   0.597234 0.195776 0.501785 -0.172581
C20   C     C_R   0.290438 0.843111 0.461915 -0.123528
C21   C     C_R   0.258277 0.949867 0.451652 -0.102397
C22   C     C_R   0.337104 0.013624 0.452594 -0.032575
C23   C     C_R   0.688717 0.421558 0.992166 -0.107819
C24   C     C_R   0.448373 0.969892 0.461755 0.135372
C25   C     C_R   0.475421 0.861183 0.457009 0.101837
C26   C     C_R   0.533632 0.030676 0.473863 -0.107218
C27   C     C_R   0.634871 0.989749 0.458500 -0.037513
C28   C     C_R   0.497840 0.499678 0.389282 0.903957
C29   C     C_R   0.651999 0.884267 0.439882 -0.091066
C30   C     C_R   0.575291 0.819874 0.441516 -0.129670
C31   C     C_R   0.524049 0.127221 0.504958 0.404310
C32   C     C_R   0.692919 0.159517 0.481829 -0.325064
C33   C     C_R   0.400488 0.798518 0.467277 -0.078188
C34   C     C_R   0.594425 0.408228 0.948915 -0.008397
C35   C     C_R   0.085340 0.347220 0.413015 -0.299371
C36   C     C_R   0.804931 0.599033 0.585235 0.084859
C37   C     C_R   0.909848 0.571379 0.619794 -0.118187
C38   C     C_R   0.988217 0.510052 0.593788 -0.028700
C39   C     C_R   0.965461 0.489797 0.531780 0.061806
C40   C     C_R   0.407913 0.372362 0.107119 0.587162
C41   C     C_R   0.853949 0.494493 0.504372 0.209928
C42   C     C_R   0.045869 0.453206 0.497654 -0.104295
C43   C     C_R   0.013009 0.388675 0.447481 0.045875
C44   C     C_R   0.905076 0.369599 0.429781 -0.137941
C45   C     C_R   0.501579 0.385071 0.966260 -0.004576
C46   C     C_R   0.825625 0.425128 0.456544 -0.182510
C47   C     C_R   0.150865 0.487250 0.506470 0.406950
C48   C     C_R   0.188954 0.375221 0.423233 0.507474
C49   C     C_R   0.592742 0.405182 0.130426 0.534779
C50   C     C_R   0.595764 0.399360 0.070280 -0.000738
C51   C     C_R   0.501454 0.381026 0.027326 -0.056687
C52   C     C_R   0.406658 0.362323 0.045275 -0.164594
C53   C     C_R   0.407930 0.369916 0.922615 -0.119247
C54   C     C_R   0.316818 0.345079 0.939981 -0.185221
C55   C     C_R   0.314845 0.339075 0.000359 0.452951
C56   C     C_R   0.589688 0.420438 0.888508 0.573042
H1    H     H_    0.411683 0.583282 0.793239 0.207110
H2    H     H_    0.229326 0.795918 0.465203 0.192255
H3    H     H_    0.311036 0.096286 0.444787 0.201058
H4    H     H_    0.173049 0.983858 0.445451 0.190566
H5    H     H_    0.761460 0.437864 0.979787 0.215974
H6    H     H_    0.593137 0.738716 0.427810 0.192553
H7    H     H_    0.417382 0.253381 0.353297 0.374422
H8    H     H_    0.880544 0.316613 0.392598 0.180645
H9    H     H_    0.057117 0.297146 0.375154 0.220800
H10   H     H_    0.231718 0.744450 0.570176 0.394363
H11   H     H_    0.741916 0.640926 0.606034 0.176141
H12   H     H_    0.762949 0.429755 0.084653 0.212232
H13   H     H_    0.065686 0.480126 0.621867 0.209517
H14   H     H_    0.929020 0.593660 0.666667 0.191144
H15   H     H_    0.744910 0.407306 0.441132 0.191569
H16   H     H_    0.246004 0.330902 0.906009 0.237960
H17   H     H_    0.164620 0.189690 0.074234 0.404282
H18   H     H_    0.739953 0.247736 0.836380 0.402617
H19   H     H_    0.862353 0.251568 0.727173 0.405072
H20   H     H_    0.434160 0.795619 0.624969 0.392616
H21   H     H_    0.382573 0.562420 0.185887 0.192607
H22   H     H_    0.210061 0.632306 0.320340 0.395707
H23   H     H_    0.612028 0.335132 0.347746 0.151314
H24   H     H_    0.608561 0.284009 0.243048 0.175057
H25   H     H_    0.749003 0.213229 0.479970 0.213807
H26   H     H_    0.726053 0.849036 0.426538 0.219006
H27   H     H_    0.977108 0.886697 0.470235 0.388583
H28   H     H_    0.374102 0.057872 0.612282 0.407729
N1    N     N_R   0.499055 0.395035 0.147303 -0.359100
N2    N     N_R   0.497440 0.406371 0.846697 -0.323808
N3    N     N_R   0.222200 0.444670 0.469780 -0.200995
N4    N     N_R   0.776960 0.554790 0.529910 -0.151762
O1    O     O_R   0.366740 0.627150 0.485570 -0.533308
O2    O     O_R   0.410990 0.482290 0.406510 -0.514137
O3    O     O_R   0.589070 0.517660 0.425810 -0.674251
O4    O     O_2   0.318947 0.363258 0.127545 -0.430355
O5    O     O_2   0.434782 0.739194 0.323804 -0.297746
O6    O     O_2   0.283994 0.712076 0.240231 -0.249423
O7    O     O_3   0.278531 0.652316 0.345170 -0.537759
O8    O     O_2   0.821910 0.978798 0.378303 -0.290075
O9    O     O_2   0.911804 0.097888 0.453273 -0.302542
O10   O     O_3   0.909325 0.908912 0.484890 -0.524429
O11   O     O_2   0.491955 0.217018 0.610256 -0.247192
O12   O     O_2   0.681476 0.425255 0.171853 -0.528872
O13   O     O_2   0.329234 0.210618 0.531330 -0.327069
O14   O     O_3   0.424880 0.038066 0.585260 -0.534645
O15   O     O_2   0.205274 0.246275 0.327997 -0.285675
O16   O     O_2   0.252165 0.420074 0.325511 -0.279261
O17   O     O_3   0.391075 0.277989 0.389794 -0.577670
O18   O     O_2   0.072424 0.664241 0.561983 -0.320194
O19   O     O_2   0.223073 0.544571 0.621408 -0.276871
O20   O     O_3   0.261606 0.675350 0.554830 -0.499137
O21   O     O_2   0.131625 0.391561 0.041279 -0.225028
O22   O     O_2   0.125514 0.261675 0.959384 -0.262858
O23   O     O_2   0.675912 0.448055 0.871508 -0.523406
O24   O     O_3   0.233546 0.201788 0.064566 -0.472014
O25   O     O_2   0.487585 0.185082 0.782328 -0.204542
O26   O     O_2   0.633288 0.152493 0.727928 -0.142488
O27   O     O_3   0.681338 0.208608 0.840176 -0.488543
O28   O     O_2   0.694470 0.266604 0.631045 -0.253535
O29   O     O_2   0.760490 0.430049 0.669692 -0.294513
O30   O     O_3   0.795372 0.278241 0.741807 -0.501599
O31   O     O_2   0.302059 0.721613 0.686653 -0.218420
O32   O     O_2   0.481102 0.753198 0.743437 -0.232120
O33   O     O_3   0.457835 0.719145 0.629626 -0.563988
O34   O     O_2   0.317992 0.368421 0.819514 -0.490154
O35   O     O_R   0.544830 0.662520 0.504870 -0.634319
O36   O     O_R   0.410930 0.482340 0.574190 -0.537029
O37   O     O_R   0.589010 0.517710 0.593490 -0.564572
O38   O     O_R   0.455170 0.337480 0.495130 -0.536136
O39   O     O_R   0.633260 0.372850 0.514430 -0.624288
S1    S     S_3+6 0.356094 0.665504 0.296710 0.049884
S2    S     S_3+6 0.842523 0.011889 0.443139 0.022534
S3    S     S_3+6 0.439890 0.152113 0.558829 0.065056
S4    S     S_3+6 0.259917 0.330166 0.365479 0.062017
S5    S     S_3+6 0.177990 0.592799 0.561281 0.065039
S6    S     S_3+6 0.196338 0.299748 0.015565 0.105148
S7    S     S_3+6 0.589631 0.221653 0.774557 0.161276
S8    S     S_3+6 0.708663 0.340973 0.683766 0.102689
S9    S     S_3+6 0.422929 0.690886 0.692415 0.094365
Zn1   Zn    Zn3+2 0.381090 0.476380 0.487110 1.143981
Zn2   Zn    Zn3+2 0.618910 0.523620 0.512890 0.993159

loop_
_geom_bond_atom_site_label_1
_geom_bond_atom_site_label_2
_ccdc_geom_bond_type
O38   Zn1   S    
C34   C56   A    
C27   C29   A    
H28   O14   S    
O24   S6    S    
C19   C31   A    
C18   S2    S    
C36   H11   S    
C1    C33   S    
C7    C8    A    
C39   C41   A    
O28   S8    D    
C53   C54   A    
C36   N4    A    
O18   S5    D    
C32   H25   S    
C12   H12   S    
O35   Zn2   S    
C26   C27   A    
C29   C30   A    
C4    O37   A    
C45   C51   A    
C17   N1    S    
H20   O33   S    
C21   C22   A    
C36   C37   A    
C24   C26   A    
C31   S3    S    
C38   C39   A    
C9    N2    S    
C19   C32   A    
C10   C17   A    
C4    O36   A    
C5    S8    S    
O7    S1    S    
C8    C9    A    
O16   S4    D    
C41   C46   A    
C48   S4    S    
O39   Zn2   S    
H7    O17   S    
C35   C43   A    
C56   O23   S    
C52   C55   A    
O13   S3    D    
C38   H13   S    
C45   C53   A    
C26   C31   A    
C13   C14   A    
H19   O30   S    
N3    Zn1   S    
C35   C48   A    
C10   H21   S    
C44   C46   A    
C39   C42   A    
C2    O34   S    
O21   S6    D    
C51   C52   A    
C49   N1    A    
O36   Zn1   S    
C24   C25   A    
C21   H4    S    
C4    C6    S    
C22   H3    S    
C55   S6    S    
H27   O10   S    
C44   H8    S    
O32   S9    D    
C47   N3    A    
C40   N1    A    
C43   C44   A    
C1    O35   A    
C37   C38   A    
C3    C9    A    
C8    H1    S    
O3    Zn2   S    
C56   N2    A    
C15   H24   S    
C12   C23   A    
C23   H5    S    
H22   O7    S    
C23   C34   A    
C50   C51   A    
O26   S7    D    
C48   N3    A    
C13   C28   S    
C34   C45   A    
C14   H23   S    
C40   O4    S    
N4    Zn2   S    
C46   H15   S    
O17   S4    S    
C20   C33   A    
O1    Zn1   S    
O25   S7    D    
C30   H6    S    
C22   C24   A    
C18   C32   A    
C42   C43   A    
C20   H2    S    
O29   S8    D    
O2    Zn1   S    
H17   O24   S    
C25   C30   A    
C15   C17   A    
C41   N4    A    
C54   C55   A    
C1    O1    A    
O11   S3    D    
C18   C27   A    
O14   S3    S    
H10   O20   S    
O19   S5    D    
C3    C5    A    
C2    C53   A    
C12   C50   A    
C6    C7    A    
O27   S7    S    
O6    S1    D    
O37   Zn2   S    
O31   S9    D    
C47   S5    S    
C3    S7    S    
C11   S1    S    
O5    S1    D    
O9    S2    D    
C7    S9    S    
C40   C52   A    
C49   O12   S    
C11   C13   A    
C5    C6    A    
O15   S4    D    
C16   C19   S    
H18   O27   S    
O10   S2    S    
C2    N2    A    
C28   O3    A    
C42   C47   A    
O33   S9    S    
C16   O39   A    
O20   S5    S    
C10   C11   A    
C29   H26   S    
C54   H16   S    
C20   C21   A    
C49   C50   A    
C35   H9    S    
C14   C15   A    
O22   S6    D    
C28   O2    A    
C37   H14   S    
C16   O38   A    
O30   S8    S    
C25   C33   A    
O8    S2    D    
