data_mof_unit_56089.cif
_audit_creation_date              2012-12-10T20:30:11-0500
_audit_creation_method            fapswitch 2.2
_symmetry_space_group_name_H-M    P1
_symmetry_Int_Tables_number       1
_space_group_crystal_system       triclinic
_cell_length_a                    9.876703
_cell_length_b                    10.66582
_cell_length_c                    13.057466
_cell_angle_alpha                 90.290961
_cell_angle_beta                  69.993301
_cell_angle_gamma                 90.094856
_cell_volume                      1292.48906714

loop_
_atom_site_label
_atom_site_type_symbol
_atom_type_description
_atom_site_fract_x
_atom_site_fract_y
_atom_site_fract_z
_atom_type_partial_charge
C1    C     C_R   0.503668 0.739764 0.492537 0.982219
C2    C     C_R   0.429072 0.498578 0.985731 0.051782
C3    C     C_R   0.435762 0.551900 0.885369 -0.050657
C4    C     C_R   0.531455 0.536618 0.033235 0.103530
C5    C     C_R   0.623042 0.640211 0.989988 0.093887
C6    C     C_R   0.608979 0.706200 0.902447 -0.279898
C7    C     C_R   0.515509 0.663957 0.850521 0.360781
C8    C     C_R   0.543771 0.475564 0.123905 -0.209943
C9    C     C_R   0.722028 0.625285 0.135481 -0.172619
C10   C     C_R   0.362396 0.490828 0.823696 -0.182750
C11   C     C_R   0.384329 0.935657 0.486178 0.086656
C12   C     C_R   0.418944 0.499152 0.704744 0.987063
C13   C     C_R   0.512182 0.871150 0.471708 -0.180432
C14   C     C_R   0.644663 0.936954 0.435573 0.384964
C15   C     C_R   0.641372 0.066990 0.439636 -0.245117
C16   C     C_R   0.508281 0.128841 0.477133 -0.164009
C17   C     C_R   0.382441 0.063255 0.488635 0.102112
C18   C     C_3   0.238689 0.068560 0.577192 -0.388316
C19   C     C_3   0.240269 0.926514 0.574260 -0.450806
C20   C     C_R   0.907275 0.595213 0.548911 0.310839
C21   C     C_R   0.953585 0.412255 0.443227 -0.125368
C22   C     C_R   0.097503 0.412235 0.443217 -0.104498
C23   C     C_R   0.501428 0.259996 0.496414 0.913602
C24   C     C_R   0.049615 0.594972 0.549218 0.211124
C25   C     C_3   0.002736 0.629242 0.666842 -0.518275
C26   C     C_3   0.849580 0.630143 0.666405 -0.486845
C27   C     C_R   0.580045 0.501669 0.295677 0.841558
C28   C     C_R   0.721550 0.680908 0.039228 -0.148771
C29   C     C_R   0.627774 0.526060 0.179843 -0.055506
C30   C     C_R   0.253330 0.402388 0.874272 0.368501
C31   C     C_R   0.228717 0.367594 0.981429 -0.151457
C32   C     C_R   0.318483 0.411039 0.035547 -0.231264
H1    H     H_    0.786439 0.666170 0.179587 0.184331
H2    H     H_    0.741731 0.118577 0.419157 0.191192
H3    H     H_    0.244444 0.108099 0.654543 0.251712
H4    H     H_    0.154526 0.110176 0.548923 0.212948
H5    H     H_    0.246000 0.883639 0.650157 0.235032
H6    H     H_    0.157388 0.886163 0.543666 0.215967
H7    H     H_    0.919206 0.340011 0.399068 0.147387
H8    H     H_    0.171519 0.339946 0.399048 0.144191
H9    H     H_    0.023290 0.553494 0.717841 0.264515
H10   H     H_    0.041191 0.723437 0.680803 0.207017
H11   H     H_    0.781772 0.555085 0.717708 0.229094
H12   H     H_    0.670138 0.791480 0.874640 0.186770
H13   H     H_    0.801296 0.725387 0.678356 0.245699
H14   H     H_    0.791189 0.760589 0.007316 0.155114
H15   H     H_    0.480471 0.393821 0.158580 0.131277
H16   H     H_    0.295782 0.377336 0.117435 0.148900
H17   H     H_    0.144529 0.300917 0.021230 0.180671
N1    N     N_R   0.856940 0.500860 0.500710 -0.108409
N2    N     N_R   0.142580 0.500820 0.500710 -0.099169
O1    O     O_R   0.385310 0.683210 0.499990 -0.625913
O2    O     O_R   0.614650 0.683240 0.500000 -0.540687
O3    O     O_R   0.328390 0.499940 0.653610 -0.564454
O4    O     O_R   0.557730 0.499980 0.653620 -0.606758
O5    O     O_R   0.385350 0.316760 0.500000 -0.607736
O6    O     O_R   0.614690 0.316790 0.500010 -0.628322
O7    O     O_R   0.442270 0.500020 0.346380 -0.616809
O8    O     O_R   0.671610 0.500060 0.346390 -0.611965
Zn1   Zn    Zn3+2 0.346870 0.499980 0.499990 0.985560
Zn2   Zn    Zn3+2 0.653130 0.500020 0.500010 1.000249
Cl1   Cl    Cl    0.150014 0.326238 0.805916 -0.656214
Cl2   Cl    Cl    0.485556 0.765696 0.754360 -0.666316
Cl3   Cl    Cl    0.815558 0.864243 0.390523 -0.636962

loop_
_geom_bond_atom_site_label_1
_geom_bond_atom_site_label_2
_ccdc_geom_bond_type
C25   H10   S    
C2    C4    A    
O6    Zn2   S    
C6    C7    A    
C19   H6    S    
C27   C29   S    
C5    C28   A    
C11   C13   A    
C18   H3    S    
C10   C30   A    
C15   H2    S    
C31   C32   A    
C21   H7    S    
C9    C29   A    
C4    C8    A    
C22   H8    S    
C24   N2    A    
C17   C18   S    
C8    H15   S    
C14   Cl3   S    
C23   O5    A    
C3    C10   A    
O3    Zn1   S    
C21   C22   A    
C9    H1    S    
C32   H16   S    
C28   H14   S    
C30   C31   A    
C10   C12   S    
O1    Zn1   S    
C31   H17   S    
C8    C29   A    
O4    Zn2   S    
C21   N1    A    
C26   H11   S    
C2    C3    A    
C16   C23   S    
C3    C7    A    
C30   Cl1   S    
C22   N2    A    
C5    C6    A    
C1    O1    A    
C12   O3    A    
O8    Zn2   S    
C12   O4    A    
C1    C13   S    
C27   O8    A    
O7    Zn1   S    
C15   C16   A    
C16   C17   A    
C20   C24   A    
C24   C25   S    
C6    H12   S    
O2    Zn2   S    
C2    C32   A    
C18   C19   S    
C7    Cl2   S    
C25   H9    S    
C23   O6    A    
N1    Zn2   S    
C1    O2    A    
C14   C15   A    
C11   C19   S    
C20   N1    A    
N2    Zn1   S    
C19   H5    S    
C26   H13   S    
C25   C26   S    
C13   C14   A    
C18   H4    S    
C11   C17   A    
O5    Zn1   S    
C9    C28   A    
C4    C5    A    
C20   C26   S    
C27   O7    A    
