data_mof_unit_9018.cif
_audit_creation_date              2012-12-11T15:53:47-0500
_audit_creation_method            fapswitch 2.2
_symmetry_space_group_name_H-M    P1
_symmetry_Int_Tables_number       1
_space_group_crystal_system       triclinic
_cell_length_a                    10.628326
_cell_length_b                    10.757152
_cell_length_c                    17.047044
_cell_angle_alpha                 80.59247
_cell_angle_beta                  99.160019
_cell_angle_gamma                 118.715141
_cell_volume                      1678.97558584

loop_
_atom_site_label
_atom_site_type_symbol
_atom_type_description
_atom_site_fract_x
_atom_site_fract_y
_atom_site_fract_z
_atom_type_partial_charge
C1    C     C_R   0.384352 0.284098 0.631999 0.554728
C2    C     C_R   0.392245 0.828675 0.674159 -0.134967
C3    C     C_R   0.375967 0.850795 0.749832 -0.149953
C4    C     C_3   0.132482 0.458752 0.795590 -0.200568
C5    C     C_3   0.150803 0.434207 0.713678 -0.027157
C6    C     C_R   0.314052 0.691626 0.647256 0.001057
C7    C     C_1   0.823460 0.656718 0.705937 -0.034671
C8    C     C_1   0.851472 0.684892 0.773618 -0.032610
C9    C     C_1   0.364620 0.232810 0.714239 -0.054598
C10   C     C_1   0.333801 0.186032 0.781484 -0.051178
C11   C     C_1   0.336141 0.663871 0.277703 -0.057507
C12   C     C_R   0.369223 0.654299 0.586221 0.534628
C13   C     C_1   0.323451 0.673215 0.206963 -0.042566
C14   C     C_R   0.804833 0.652167 0.151038 0.017298
C15   C     C_R   0.787060 0.529215 0.201666 0.026874
C16   C     C_R   0.776518 0.522630 0.280954 0.035768
C17   C     C_R   0.768677 0.745472 0.260322 -0.146527
C18   C     C_R   0.777117 0.751635 0.178557 -0.141026
C19   C     C_3   0.872455 0.447748 0.218873 -0.264547
C20   C     C_3   0.858247 0.440362 0.306502 -0.270805
C21   C     C_R   0.783698 0.636832 0.313136 0.015930
C22   C     C_R   0.334654 0.180755 0.155181 0.013213
C23   C     C_R   0.776853 0.618729 0.626817 0.545388
C24   C     C_R   0.260280 0.243533 0.179166 0.096434
C25   C     C_R   0.274482 0.266725 0.256992 -0.003115
C26   C     C_R   0.445945 0.176404 0.290672 -0.157288
C27   C     C_R   0.439748 0.161630 0.210211 -0.164450
C28   C     C_3   0.110222 0.229902 0.166541 0.173289
C29   C     C_3   0.130564 0.260934 0.253136 -0.182807
C30   C     C_R   0.350770 0.215111 0.315151 0.013317
C31   C     C_R   0.892463 0.702298 0.855775 0.544616
C32   C     C_R   0.281955 0.750578 0.882841 0.568717
C33   C     C_R   0.286792 0.118391 0.858349 0.540328
C34   C     C_R   0.355411 0.235231 0.396658 0.559544
C35   C     C_R   0.882461 0.688547 0.081744 0.555067
C36   C     C_R   0.313057 0.700863 0.123834 0.579757
C37   C     C_R   0.287060 0.110609 0.083570 0.562262
C38   C     C_R   0.365396 0.653895 0.360732 0.547140
C39   C     C_R   0.762979 0.617575 0.396527 0.548118
C40   C     C_R   0.280711 0.736579 0.798832 0.001013
C41   C     C_R   0.182402 0.611552 0.763976 -0.005128
C42   C     C_R   0.198456 0.589402 0.689182 0.011439
Cr1   Cr    Cr6+3 0.608440 0.389080 0.519680 1.013819
Cr2   Cr    Cr6+3 0.288640 0.400090 0.490760 1.002295
Cr3   Cr    Cr6+3 0.602940 0.710800 0.489510 1.020670
Cr4   Cr    Cr6+3 0.052530 0.947560 0.964210 1.017881
Cr5   Cr    Cr6+3 0.059970 0.626800 0.992920 1.000228
Cr6   Cr    Cr6+3 0.373320 0.938440 0.995370 1.006900
H1    H     H_    0.813477 0.341838 0.195255 0.126625
H2    H     H_    0.962644 0.501288 0.341656 0.141553
H3    H     H_    0.505095 0.119703 0.193462 0.140473
H4    H     H_    0.139607 0.365942 0.259894 0.139759
H5    H     H_    0.236069 0.402621 0.714064 0.157250
H6    H     H_    0.986391 0.511762 0.204749 0.169219
O1    O     O_R   0.754020 0.497590 0.609930 -0.526389
O2    O     O_R   0.295080 0.533620 0.397890 -0.510803
O3    O     O_R   0.485280 0.746620 0.388440 -0.513258
O4    O     O_R   0.720550 0.696220 0.420010 -0.504940
O5    O     O_3   0.500010 0.499990 0.499980 -0.268836
O6    O     O_R   0.163320 0.092900 0.874450 -0.501788
O7    O     O_R   0.934650 0.822080 0.882840 -0.489459
O8    O     O_R   0.915520 0.604140 0.893670 -0.525926
O9    O     O_R   0.191760 0.638110 0.923230 -0.503708
O10   O     O_R   0.406180 0.826930 0.920660 -0.511888
O11   O     O_R   0.358620 0.062870 0.901950 -0.519709
O12   O     O_R   0.481420 0.271390 0.600630 -0.488666
O13   O     O_R   0.163910 0.085460 0.050210 -0.510948
O14   O     O_R   0.935200 0.815170 0.045770 -0.494560
O15   O     O_R   0.916120 0.596690 0.069430 -0.526852
O16   O     O_R   0.192310 0.631200 0.086170 -0.478325
O17   O     O_R   0.406770 0.819480 0.096420 -0.518665
O18   O     O_R   0.359170 0.055960 0.064880 -0.511897
O19   O     O_3   0.161940 0.837600 0.984160 -0.273215
O20   O     O_R   0.263810 0.254550 0.589590 -0.500214
O21   O     O_R   0.300820 0.531200 0.560890 -0.522273
O22   O     O_R   0.491480 0.744020 0.564270 -0.514912
O23   O     O_R   0.726290 0.693800 0.583010 -0.489813
O24   O     O_R   0.747830 0.500190 0.434090 -0.517962
O25   O     O_R   0.475680 0.273800 0.437630 -0.499771
O26   O     O_R   0.257620 0.257160 0.413750 -0.521224
H7    H     H_    0.476744 0.914565 0.641007 0.153010
H8    H     H_    0.789596 0.330651 0.333188 0.141255
H9    H     H_    0.518696 0.150472 0.333686 0.131194
N1    N     N_3   0.993066 0.086915 0.153529 -0.598435
H10   H     H_    0.958795 0.082180 0.092646 0.250269
H11   H     H_    0.903878 0.072900 0.179648 0.194163
N2    N     N_3   0.099446 0.341856 0.109050 -0.600332
H12   H     H_    0.110541 0.325693 0.052222 0.237370
H13   H     H_    0.996101 0.331341 0.107793 0.221610
H14   H     H_    0.057465 0.170864 0.293187 0.136093
H15   H     H_    0.445898 0.953235 0.772292 0.143111
H16   H     H_    0.018940 0.405846 0.810636 0.162708
H17   H     H_    0.209750 0.443723 0.843438 0.131796
N3    N     N_3   0.013984 0.341721 0.670937 -0.608873
H18   H     H_    0.033895 0.342580 0.612695 0.253337
H19   H     H_    0.941511 0.382996 0.666578 0.255650
H20   H     H_    0.755538 0.827291 0.282072 0.140489
H21   H     H_    0.774363 0.839257 0.138506 0.140461

loop_
_geom_bond_atom_site_label_1
_geom_bond_atom_site_label_2
_ccdc_geom_bond_type
N2    H12   S    
C16   C21   A    
C20   H8    S    
C28   N1    S    
C11   C13   T    
C41   C42   A    
C31   O7    A    
C19   C20   S    
C5    C42   S    
Cr5   O8    S    
C5    N3    S    
C33   O11   A    
C7    C8    T    
Cr1   O24   S    
C15   C19   S    
Cr3   O3    S    
C26   C27   A    
C26   H9    S    
Cr3   O22   S    
C1    O20   A    
C5    H5    S    
C28   C29   S    
N1    H11   S    
Cr5   O9    S    
Cr6   O10   S    
C4    C41   S    
Cr2   O5    S    
Cr1   O25   S    
C15   C16   A    
C3    H15   S    
C14   C18   A    
Cr5   O15   S    
C20   H2    S    
C34   O26   A    
C27   H3    S    
C24   C25   A    
Cr6   O11   S    
C9    C10   T    
C36   O17   A    
Cr1   O5    S    
C31   O8    A    
C2    C6    A    
Cr6   O18   S    
C29   H14   S    
C36   O16   A    
C1    O12   A    
C25   C29   S    
Cr3   O4    S    
C30   C34   S    
Cr4   O7    S    
C39   O24   A    
Cr2   O26   S    
C1    C9    S    
N1    H10   S    
C32   O10   A    
C13   C36   S    
C14   C35   S    
C39   O4    A    
C17   C21   A    
Cr2   O21   S    
N3    H19   S    
Cr5   O16   S    
Cr4   O14   S    
C34   O25   A    
C38   O3    A    
Cr2   O2    S    
C21   C39   S    
C16   C20   S    
C28   N2    S    
C17   C18   A    
C23   O23   A    
Cr2   O20   S    
Cr5   O19   S    
C19   H6    S    
Cr1   O1    S    
C40   C41   A    
C3    C40   A    
C26   C30   A    
C33   O6    A    
C22   C27   A    
C12   O22   A    
C22   C24   A    
C12   O21   A    
Cr6   O17   S    
C25   C30   A    
Cr3   O5    S    
Cr4   O6    S    
C8    C31   S    
C19   H1    S    
Cr6   O19   S    
C24   C28   S    
C32   O9    A    
C4    C5    S    
C2    H7    S    
C23   O1    A    
N2    H13   S    
C2    C3    A    
Cr4   O13   S    
C6    C12   S    
C22   C37   S    
C35   O14   A    
Cr1   O12   S    
C7    C23   S    
C37   O13   A    
C10   C33   S    
C32   C40   S    
N3    H18   S    
C4    H17   S    
C38   O2    A    
C35   O15   A    
C6    C42   A    
C37   O18   A    
C14   C15   A    
C11   C38   S    
Cr3   O23   S    
C18   H21   S    
C17   H20   S    
Cr4   O19   S    
C4    H16   S    
C29   H4    S    
