data_mof_unit_31657.cif
_audit_creation_date              2012-12-10T19:47:25-0500
_audit_creation_method            fapswitch 2.2
_symmetry_space_group_name_H-M    P1
_symmetry_Int_Tables_number       1
_space_group_crystal_system       triclinic
_cell_length_a                    10.820877
_cell_length_b                    10.849499
_cell_length_c                    12.724204
_cell_angle_alpha                 93.042315
_cell_angle_beta                  92.699384
_cell_angle_gamma                 89.752759
_cell_volume                      1490.07235623

loop_
_atom_site_label
_atom_site_type_symbol
_atom_type_description
_atom_site_fract_x
_atom_site_fract_y
_atom_site_fract_z
_atom_type_partial_charge
C1    C     C_R   0.262006 0.496460 0.500823 0.788158
C2    C     C_R   0.737994 0.503540 0.499177 0.788157
C3    C     C_R   0.493758 0.871734 0.498376 -0.063937
C4    C     C_R   0.506242 0.128266 0.501624 -0.063937
C5    C     C_R   0.444374 0.934382 0.411392 0.024080
C6    C     C_R   0.555625 0.065618 0.588608 0.024082
C7    C     C_R   0.228168 0.199073 0.741393 -0.096247
C8    C     C_R   0.771831 0.800929 0.258611 -0.096249
C9    C     C_R   0.174563 0.258603 0.654764 0.027182
C10   C     C_R   0.825436 0.741398 0.345238 0.027182
C11   C     C_R   0.129089 0.380676 0.670597 0.028924
C12   C     C_R   0.870911 0.619325 0.329404 0.028924
C13   C     C_R   0.136898 0.439064 0.771818 -0.118688
C14   C     C_R   0.863102 0.560939 0.228182 -0.118690
C15   C     C_R   0.189677 0.378209 0.856721 -0.163055
C16   C     C_R   0.810323 0.621796 0.143280 -0.163054
C17   C     C_R   0.235272 0.258516 0.841521 -0.167132
C18   C     C_R   0.764727 0.741488 0.158481 -0.167132
C19   C     C_R   0.937654 0.453838 0.582594 -0.239037
C20   C     C_R   0.062346 0.546162 0.417406 -0.239037
C21   C     C_R   0.871619 0.504742 0.498362 -0.083125
C22   C     C_R   0.128381 0.495258 0.501638 -0.083125
C23   C     C_R   0.504336 0.261921 0.500680 0.789673
C24   C     C_R   0.495663 0.738079 0.499319 0.789674
C25   C     C_R   0.934380 0.553555 0.415574 -0.016911
C26   C     C_R   0.065620 0.446445 0.584426 -0.016911
C27   C     C_2   0.470335 0.461833 0.030821 -0.290399
C28   C     C_2   0.529666 0.538167 0.969179 -0.290397
C29   C     C_1   0.523259 0.526185 0.852896 0.230295
C30   C     C_1   0.476741 0.473815 0.147104 0.230294
C31   C     C_R   0.813740 0.218065 0.757719 -0.143981
C32   C     C_R   0.186258 0.781935 0.242282 -0.143981
C33   C     C_R   0.743556 0.172705 0.669149 -0.100526
C34   C     C_R   0.256443 0.827296 0.330852 -0.100528
C35   C     C_R   0.623923 0.127351 0.680137 0.073803
C36   C     C_R   0.376076 0.872649 0.319863 0.073803
C37   C     C_R   0.575223 0.128483 0.780637 -0.107777
C38   C     C_R   0.424776 0.871517 0.219364 -0.107776
C39   C     C_R   0.644840 0.176411 0.869594 0.063742
C40   C     C_R   0.355158 0.823588 0.130406 0.063742
C41   C     C_R   0.764270 0.221391 0.857195 -0.211496
C42   C     C_R   0.235728 0.778609 0.142805 -0.211496
C43   C     C_R   0.547628 0.937960 0.586081 -0.157519
C44   C     C_R   0.452372 0.062039 0.413919 -0.157523
Cu1   Cu    Cu3+1 0.492140 0.492110 0.395880 0.989498
Cu2   Cu    Cu3+1 0.507860 0.507890 0.604120 0.989498
H1    H     H_    0.820103 0.257208 0.924806 0.123059
H2    H     H_    0.179894 0.742792 0.075195 0.123059
H3    H     H_    0.100968 0.531674 0.785010 0.132183
H4    H     H_    0.899033 0.468330 0.214988 0.132183
H5    H     H_    0.194314 0.423698 0.934585 0.132946
H6    H     H_    0.805688 0.576309 0.065415 0.132946
H7    H     H_    0.888967 0.417097 0.646198 0.158739
H8    H     H_    0.111033 0.582903 0.353802 0.158740
H9    H     H_    0.584194 0.613380 0.006210 0.186729
H10   H     H_    0.415806 0.386620 0.993789 0.186729
H11   H     H_    0.907592 0.248822 0.749829 0.146441
H12   H     H_    0.092406 0.751179 0.250173 0.146442
H13   H     H_    0.783709 0.169398 0.592646 0.148714
H14   H     H_    0.216290 0.830604 0.407355 0.148716
H15   H     H_    0.484260 0.090254 0.789402 0.155366
H16   H     H_    0.515739 0.909744 0.210598 0.155365
H17   H     H_    0.588178 0.889769 0.651906 0.161142
H18   H     H_    0.411822 0.110231 0.348095 0.161142
H19   H     H_    0.275056 0.211109 0.907711 0.182251
H20   H     H_    0.724943 0.788896 0.092292 0.182252
H21   H     H_    0.262985 0.105621 0.732048 0.165549
H22   H     H_    0.737013 0.894381 0.267956 0.165549
N1    N     N_1   0.480320 0.480250 0.239400 -0.153950
N2    N     N_1   0.519680 0.519750 0.760600 -0.153950
O1    O     O_R   0.313000 0.493330 0.412070 -0.582797
O2    O     O_R   0.687000 0.506670 0.587930 -0.582797
O3    O     O_R   0.326280 0.506660 0.587930 -0.565890
O4    O     O_R   0.673720 0.493340 0.412070 -0.565890
O5    O     O_R   0.493370 0.312980 0.412070 -0.584195
O6    O     O_R   0.506630 0.687020 0.587930 -0.584194
O7    O     O_R   0.506650 0.326310 0.587930 -0.569035
O8    O     O_R   0.493350 0.673690 0.412070 -0.569035
C45   C     C_2   0.596034 0.177200 0.976160 0.360944
H23   H     H_    0.651437 0.215022 0.043514 0.063962
O9    O     O_2   0.493748 0.135906 0.990313 -0.552689
C46   C     C_2   0.403963 0.822798 0.023841 0.360946
H24   H     H_    0.348560 0.784977 0.956486 0.063961
O10   O     O_2   0.506250 0.864092 0.009687 -0.552689
C47   C     C_2   0.163028 0.191387 0.549963 0.310267
H25   H     H_    0.122400 0.235694 0.482175 0.085582
O11   O     O_2   0.198076 0.084631 0.538046 -0.560842
C48   C     C_2   0.836970 0.808612 0.450040 0.310267
H26   H     H_    0.877598 0.764304 0.517828 0.085582
O12   O     O_2   0.801923 0.915368 0.461958 -0.560842

loop_
_geom_bond_atom_site_label_1
_geom_bond_atom_site_label_2
_ccdc_geom_bond_type
Cu1   O1    S    
C32   H12   S    
Cu2   O6    S    
C43   H17   S    
C39   C41   A    
C47   H25   S    
C44   H18   S    
C3    C43   A    
C1    O1    A    
C28   C29   S    
C19   C21   A    
C20   C25   A    
C5    C36   S    
C6    C35   S    
C7    C9    A    
C19   C26   A    
C9    C47   S    
C7    C17   A    
C31   C33   A    
Cu1   O8    S    
C15   H5    S    
Cu2   O2    S    
C2    O4    A    
C19   H7    S    
C40   C42   A    
C1    C22   S    
C33   H13   S    
C27   C30   S    
C34   H14   S    
C3    C24   S    
C2    O2    A    
C28   H9    S    
C47   O11   D    
Cu1   N1    S    
C40   C46   S    
C20   H8    S    
C23   O5    A    
C45   O9    D    
C4    C23   S    
C27   H10   S    
C24   O6    A    
C4    C44   A    
C11   C26   S    
Cu1   Cu2   S    
C8    C18   A    
Cu1   O4    S    
C39   C45   S    
C10   C48   S    
C2    C21   S    
C41   H1    S    
C42   H2    S    
C23   O7    A    
C9    C11   A    
C10   C12   A    
C13   H3    S    
C4    C6    A    
C5    C44   A    
C48   O12   D    
C8    H22   S    
C46   O10   D    
C6    C43   A    
C13   C15   A    
C14   C16   A    
C30   N1    T    
C29   N2    T    
C24   O8    A    
C15   C17   A    
C21   C25   A    
C31   C41   A    
C35   C37   A    
C8    C10   A    
C16   H6    S    
C20   C22   A    
C3    C5    A    
Cu2   O7    S    
C37   H15   S    
C18   H20   S    
C17   H19   S    
C12   C25   S    
Cu1   O5    S    
C1    O3    A    
C31   H11   S    
C36   C38   A    
C12   C14   A    
C37   C39   A    
C38   C40   A    
C11   C13   A    
C14   H4    S    
C33   C35   A    
C34   C36   A    
Cu2   N2    S    
C7    H21   S    
C45   H23   S    
C48   H26   S    
C16   C18   A    
C46   H24   S    
C22   C26   A    
C27   C28   D    
C32   C42   A    
Cu2   O3    S    
C32   C34   A    
C38   H16   S    
