data_mof_unit_11518.cif
_audit_creation_date              2012-12-10T17:21:19-0500
_audit_creation_method            fapswitch 2.2
_symmetry_space_group_name_H-M    P1
_symmetry_Int_Tables_number       1
_space_group_crystal_system       triclinic
_cell_length_a                    9.628545
_cell_length_b                    10.868789
_cell_length_c                    13.886421
_cell_angle_alpha                 93.679822
_cell_angle_beta                  85.263374
_cell_angle_gamma                 89.125859
_cell_volume                      1444.96493639

loop_
_atom_site_label
_atom_site_type_symbol
_atom_type_description
_atom_site_fract_x
_atom_site_fract_y
_atom_site_fract_z
_atom_type_partial_charge
C1    C     C_R   0.499250 0.736724 0.490776 0.787074
C2    C     C_1   0.464516 0.495958 0.785418 -0.205333
C3    C     C_R   0.234492 0.890360 0.486564 -0.188851
C4    C     C_R   0.113761 0.956270 0.521538 -0.185364
C5    C     C_R   0.122065 0.071578 0.570052 0.228145
C6    C     C_R   0.252550 0.124940 0.575068 -0.138555
C7    C     C_R   0.374055 0.065431 0.528057 0.046046
C8    C     C_R   0.367969 0.939953 0.497558 0.077221
C9    C     C_R   0.495132 0.870760 0.476881 -0.177270
C10   C     C_R   0.620631 0.933687 0.454244 0.137268
C11   C     C_R   0.620433 0.061958 0.470888 -0.206574
C12   C     C_R   0.477716 0.499948 0.682671 0.827860
C13   C     C_R   0.499468 0.128129 0.507311 -0.152691
C14   C     C_R   0.875696 0.343825 0.363172 -0.146486
C15   C     C_R   0.957692 0.274886 0.289892 0.158171
C16   C     C_R   0.101164 0.273553 0.293180 -0.283291
C17   C     C_R   0.162404 0.342783 0.364841 -0.139933
C18   C     C_R   0.083795 0.423300 0.433107 0.198101
C19   C     C_R   0.934812 0.423636 0.432627 0.122817
C20   C     C_R   0.919114 0.571134 0.567424 0.215265
C21   C     C_R   0.067451 0.570910 0.564854 -0.064010
C22   C     C_R   0.500014 0.262798 0.505068 0.787975
C23   C     C_R   0.522089 0.501230 0.317430 0.795785
C24   C     C_1   0.533819 0.506469 0.214851 -0.185159
C25   C     C_2   0.548165 0.514555 0.025021 -0.170012
C26   C     C_2   0.438162 0.485590 0.975239 0.192245
C27   C     C_1   0.452198 0.491429 0.871855 -0.013801
C28   C     C_1   0.542006 0.510615 0.128427 0.014043
Cu1   Cu    Cu3+1 0.359340 0.500010 0.500010 0.919859
Cu2   Cu    Cu3+1 0.640660 0.499990 0.499990 0.907474
H1    H     H_    0.766896 0.331801 0.364815 0.214358
H2    H     H_    0.166917 0.217382 0.239801 0.148732
H3    H     H_    0.272104 0.329704 0.363035 0.207753
H4    H     H_    0.120695 0.625874 0.617151 0.170797
H5    H     H_    0.645309 0.541924 0.987584 0.128363
H6    H     H_    0.220065 0.804342 0.445739 0.178680
H7    H     H_    0.013682 0.916469 0.511911 0.148329
H8    H     H_    0.257720 0.213111 0.615206 0.158659
H9    H     H_    0.714358 0.111887 0.453742 0.172038
N1    N     N_R   0.852210 0.498790 0.499090 -0.218546
N2    N     N_R   0.148080 0.498710 0.499060 -0.223324
O1    O     O_R   0.381190 0.680360 0.500010 -0.581670
O2    O     O_R   0.618760 0.680340 0.500000 -0.607941
O3    O     O_R   0.364420 0.499990 0.637850 -0.574802
O4    O     O_R   0.601990 0.499960 0.637840 -0.593327
O5    O     O_R   0.381240 0.319660 0.500000 -0.601881
O6    O     O_R   0.618810 0.319640 0.499990 -0.599032
O7    O     O_R   0.398010 0.500040 0.362160 -0.588114
O8    O     O_R   0.635580 0.500010 0.362150 -0.593173
C29   C     C_3   0.301311 0.446675 0.023742 -0.815429
H10   H     H_    0.224293 0.426989 0.969715 0.222944
H11   H     H_    0.317223 0.361863 0.062383 0.226365
H12   H     H_    0.257656 0.521392 0.076404 0.234114
C30   C     C_3   0.899402 0.202149 0.205834 -0.394764
C31   C     C_3   0.740751 0.205288 0.204676 -0.877881
H13   H     H_    0.689732 0.168271 0.271038 0.245995
H14   H     H_    0.703320 0.300969 0.198296 0.260966
H15   H     H_    0.710554 0.147792 0.141054 0.250051
H16   H     H_    0.944078 0.239144 0.137417 0.210364
H17   H     H_    0.935990 0.104767 0.204750 0.208489
C32   C     C_3   0.752380 0.864378 0.410173 -0.350057
C33   C     C_3   0.846071 0.934629 0.339611 -0.911709
H18   H     H_    0.784063 0.966551 0.281892 0.271790
H19   H     H_    0.896381 0.013238 0.376888 0.260801
H20   H     H_    0.930621 0.871836 0.305215 0.248685
H21   H     H_    0.813052 0.834126 0.469169 0.213181
H22   H     H_    0.722532 0.781184 0.366475 0.225876
C34   C     C_3   0.991266 0.139091 0.611506 -0.873900
H23   H     H_    0.923029 0.154870 0.552622 0.235925
H24   H     H_    0.934843 0.083243 0.665788 0.234865
H25   H     H_    0.014204 0.230060 0.647223 0.229546
C35   C     C_3   0.837656 0.640368 0.653751 -0.352565
C36   C     C_3   0.912395 0.746492 0.704482 -0.965175
H26   H     H_    0.994124 0.710803 0.747933 0.259136
H27   H     H_    0.958646 0.808710 0.651052 0.263308
H28   H     H_    0.836249 0.801087 0.755243 0.259111
H29   H     H_    0.742083 0.682478 0.631946 0.258607
H30   H     H_    0.809357 0.573426 0.708862 0.217447

loop_
_geom_bond_atom_site_label_1
_geom_bond_atom_site_label_2
_ccdc_geom_bond_type
C8    C9    A    
C31   H13   S    
Cu1   O1    S    
C36   H26   S    
Cu2   O4    S    
C14   H1    S    
C2    C12   S    
C7    C8    A    
C30   H17   S    
C25   C28   S    
C26   C27   S    
C33   H18   S    
C26   C29   S    
C5    C6    A    
C20   N1    A    
C23   O8    A    
C15   C16   A    
C18   C19   A    
C35   H30   S    
C35   H29   S    
C34   H23   S    
C32   H21   S    
C1    O2    A    
C16   C17   A    
C29   H11   S    
C23   C24   S    
C6    H8    S    
C2    C27   T    
C9    C10   A    
C33   H19   S    
C22   O6    A    
C36   H27   S    
C17   H3    S    
C5    C34   S    
C17   C18   A    
C30   H16   S    
C29   H12   S    
Cu1   O7    S    
C15   C30   S    
Cu2   O6    S    
C1    C9    S    
C3    C8    A    
C19   N1    A    
C18   N2    A    
C35   C36   S    
C21   H4    S    
C25   C26   D    
Cu1   Cu2   S    
C32   H22   S    
C29   H10   S    
Cu2   N1    S    
C20   C21   A    
C11   H9    S    
C25   H5    S    
C21   N2    A    
C22   O5    A    
Cu2   O8    S    
C31   H14   S    
Cu1   O3    S    
C36   H28   S    
Cu2   O2    S    
C10   C32   S    
C3    C4    A    
C30   C31   S    
C23   O7    A    
C33   H20   S    
Cu1   N2    S    
C14   C19   A    
C24   C28   T    
C4    C5    A    
C6    C7    A    
C12   O4    A    
C16   H2    S    
Cu1   O5    S    
C12   O3    A    
C11   C13   A    
C3    H6    S    
C34   H25   S    
C13   C22   S    
C32   C33   S    
C10   C11   A    
C1    O1    A    
C7    C13   A    
C4    H7    S    
C34   H24   S    
C31   H15   S    
C14   C15   A    
C20   C35   S    
