data_mof_unit_5611.cif
_audit_creation_date              2012-12-10T21:11:39-0500
_audit_creation_method            fapswitch 2.2
_symmetry_space_group_name_H-M    P1
_symmetry_Int_Tables_number       1
_space_group_crystal_system       triclinic
_cell_length_a                    17.592155
_cell_length_b                    16.724345
_cell_length_c                    10.705329
_cell_angle_alpha                 88.464826
_cell_angle_beta                  89.718364
_cell_angle_gamma                 90.454438
_cell_volume                      3148.42167527

loop_
_atom_site_label
_atom_site_type_symbol
_atom_type_description
_atom_site_fract_x
_atom_site_fract_y
_atom_site_fract_z
_atom_type_partial_charge
C1    C     C_R   0.353212 0.499762 0.498484 0.912242
C2    C     C_R   0.446944 0.166495 0.573209 -0.273138
C3    C     C_R   0.432836 0.747121 0.511246 0.029443
C4    C     C_R   0.550759 0.253343 0.427638 0.012653
C5    C     C_R   0.566388 0.750102 0.489256 -0.030141
C6    C     C_R   0.448394 0.250724 0.571771 -0.018235
C7    C     C_R   0.498487 0.876023 0.499957 0.163831
C8    C     C_R   0.498723 0.124646 0.499741 0.162160
C9    C     C_1   0.498049 0.963773 0.499940 -0.053355
C10   C     C_1   0.498209 0.036892 0.499859 -0.052132
C11   C     C_R   0.501124 0.501174 0.257791 0.913820
C12   C     C_R   0.646835 0.500127 0.499563 0.859850
C13   C     C_R   0.514650 0.498792 0.737720 0.926910
C14   C     C_R   0.596257 0.626042 0.124088 0.226988
C15   C     C_R   0.532036 0.345581 0.897381 0.246518
C16   C     C_R   0.604184 0.628444 0.868436 0.229839
C17   C     C_R   0.434244 0.375598 0.098228 0.240603
C18   C     C_R   0.613235 0.697971 0.060509 -0.204665
C19   C     C_R   0.489270 0.283227 0.952990 -0.222916
C20   C     C_R   0.616601 0.699320 0.931528 -0.197352
C21   C     C_R   0.437212 0.299264 0.047309 -0.205305
C22   C     C_R   0.564923 0.563426 0.930026 0.039644
C23   C     C_R   0.886156 0.500856 0.464076 0.112213
C24   C     C_R   0.487065 0.435554 0.054740 0.016960
C25   C     C_R   0.556605 0.564469 0.061280 0.026550
C26   C     C_R   0.521683 0.424674 0.939142 0.033914
C27   C     C_R   0.539779 0.494428 0.868242 -0.236196
C28   C     C_R   0.511429 0.502953 0.122518 -0.214142
C29   C     C_R   0.847761 0.574134 0.471260 0.193132
C30   C     C_R   0.153391 0.427828 0.452418 0.191747
C31   C     C_R   0.152991 0.572947 0.481038 0.191275
C32   C     C_R   0.846640 0.427380 0.470828 0.188931
C33   C     C_R   0.769125 0.573173 0.485132 -0.215543
C34   C     C_R   0.114239 0.500617 0.460362 0.110600
C35   C     C_R   0.231992 0.428031 0.466463 -0.211137
C36   C     C_R   0.231502 0.571707 0.494566 -0.204617
C37   C     C_R   0.768020 0.427910 0.484437 -0.209971
C38   C     C_R   0.729266 0.500443 0.491370 -0.123318
C39   C     C_R   0.270955 0.499599 0.488005 -0.137039
C40   C     C_3   0.645475 0.608265 0.234614 -0.839261
C41   C     C_3   0.594662 0.324505 0.807635 -0.849394
C42   C     C_3   0.649958 0.619246 0.751680 -0.861218
C43   C     C_3   0.368497 0.392374 0.184521 -0.866739
C44   C     C_3   0.889770 0.653125 0.465043 -0.933224
C45   C     C_1   0.966475 0.500822 0.456357 -0.027763
C46   C     C_3   0.112155 0.350093 0.430328 -0.925943
C47   C     C_3   0.111413 0.651148 0.490352 -0.925872
C48   C     C_3   0.887492 0.348592 0.464447 -0.926271
C49   C     C_1   0.033883 0.500587 0.455122 -0.027730
C50   C     C_R   0.430863 0.831379 0.511316 -0.270481
C51   C     C_R   0.551076 0.169142 0.426232 -0.271090
C52   C     C_R   0.566820 0.834275 0.488974 -0.257751
H1    H     H_    0.399689 0.251890 0.081846 0.155227
H2    H     H_    0.591898 0.139082 0.368164 0.139203
H3    H     H_    0.620349 0.866462 0.480520 0.135518
H4    H     H_    0.405689 0.134372 0.631254 0.140654
H5    H     H_    0.380099 0.714060 0.520572 0.123871
H6    H     H_    0.591180 0.287226 0.370606 0.130443
H7    H     H_    0.619955 0.719717 0.482042 0.106873
H8    H     H_    0.408396 0.282569 0.628774 0.138265
H9    H     H_    0.627466 0.645948 0.311805 0.257448
H10   H     H_    0.644711 0.543748 0.260205 0.226204
H11   H     H_    0.705706 0.623508 0.212046 0.220622
H12   H     H_    0.642153 0.750868 0.883722 0.151631
H13   H     H_    0.570609 0.295371 0.724853 0.254102
H14   H     H_    0.628552 0.377742 0.776574 0.232690
H15   H     H_    0.634134 0.281972 0.854575 0.219368
H16   H     H_    0.655657 0.555613 0.728263 0.219124
H17   H     H_    0.624006 0.655288 0.675841 0.263010
H18   H     H_    0.708872 0.641760 0.765302 0.220733
H19   H     H_    0.374477 0.357347 0.273433 0.259378
H20   H     H_    0.363224 0.456904 0.203829 0.221960
H21   H     H_    0.314476 0.374029 0.139852 0.224871
H22   H     H_    0.850386 0.704570 0.469625 0.235110
H23   H     H_    0.494850 0.222648 0.920944 0.155185
H24   H     H_    0.929642 0.656549 0.544761 0.246532
H25   H     H_    0.922265 0.658772 0.376020 0.245872
H26   H     H_    0.152003 0.299119 0.424503 0.237589
H27   H     H_    0.071747 0.337021 0.508310 0.245566
H28   H     H_    0.080262 0.354608 0.341198 0.245210
H29   H     H_    0.151043 0.702140 0.504289 0.236280
H30   H     H_    0.079123 0.663332 0.403127 0.246558
H31   H     H_    0.071389 0.647863 0.570833 0.244289
H32   H     H_    0.847379 0.296956 0.469312 0.237259
H33   H     H_    0.919755 0.345997 0.375253 0.246600
H34   H     H_    0.637974 0.747651 0.109541 0.150864
H35   H     H_    0.927518 0.342485 0.543913 0.244346
H36   H     H_    0.738990 0.629233 0.490313 0.161876
H37   H     H_    0.262789 0.372404 0.460101 0.164364
H38   H     H_    0.261779 0.627080 0.510805 0.156048
H39   H     H_    0.737040 0.371625 0.489070 0.165759
H40   H     H_    0.376832 0.861339 0.520326 0.137623
N1    N     N_R   0.500000 0.707230 0.500000 -0.086295
N2    N     N_R   0.500000 0.292770 0.500000 -0.097753
O1    O     O_R   0.389110 0.566570 0.499990 -0.629991
O2    O     O_R   0.610890 0.433430 0.500010 -0.632164
O3    O     O_R   0.610890 0.566570 0.500010 -0.650056
O4    O     O_R   0.389110 0.433430 0.499990 -0.627592
O5    O     O_R   0.499990 0.566540 0.316770 -0.601545
O6    O     O_R   0.500010 0.433460 0.683230 -0.610357
O7    O     O_R   0.500010 0.566540 0.683230 -0.598804
O8    O     O_R   0.499990 0.433460 0.316770 -0.607799
Zn1   Zn    Zn3+2 0.500000 0.588860 0.500000 0.932518
Zn2   Zn    Zn3+2 0.500000 0.411140 0.500000 0.927830

loop_
_geom_bond_atom_site_label_1
_geom_bond_atom_site_label_2
_ccdc_geom_bond_type
C43   H21   S    
O5    Zn1   S    
C43   H20   S    
C23   C45   S    
C14   C18   A    
O6    Zn2   S    
N1    Zn1   S    
C41   H15   S    
C25   C28   A    
C15   C19   A    
C26   C27   A    
C18   H34   S    
C40   H11   S    
C30   C35   A    
C23   C29   A    
C44   H25   S    
C19   C21   A    
C33   H36   S    
C24   C26   A    
C7    C52   A    
C46   H27   S    
C29   C33   A    
C42   H18   S    
C40   H10   S    
C11   O5    A    
C47   H30   S    
C44   H24   S    
C6    N2    A    
C22   C25   A    
C16   C22   A    
C5    C52   A    
C47   H31   S    
C9    C10   T    
C52   H3    S    
C16   C20   A    
N2    Zn2   S    
O7    Zn1   S    
C31   C47   S    
C42   H16   S    
C32   C48   S    
C2    C6    A    
C3    C50   A    
O1    Zn1   S    
C12   O2    A    
C31   C34   A    
C17   C24   A    
C30   C34   A    
C4    C51   A    
C6    H8    S    
C44   H22   S    
C15   C41   S    
C46   H26   S    
C5    H7    S    
C15   C26   A    
C41   H13   S    
C42   H17   S    
C17   C21   A    
C40   H9    S    
C48   H32   S    
C20   H12   S    
C35   C39   A    
C17   C43   S    
C37   C38   A    
C21   H1    S    
C45   C49   T    
C1    O1    A    
C48   H35   S    
C3    N1    A    
C32   C37   A    
O8    Zn2   S    
C8    C51   A    
C12   O3    A    
O3    Zn1   S    
C4    N2    A    
C35   H37   S    
C50   H40   S    
C22   C27   A    
O2    Zn2   S    
C29   C44   S    
C13   O7    A    
C16   C42   S    
C36   H38   S    
C7    C9    S    
C34   C49   S    
C43   H19   S    
C31   C36   A    
C30   C46   S    
C36   C39   A    
C2    C8    A    
C24   C28   A    
C7    C50   A    
C1    O4    A    
C5    N1    A    
C41   H14   S    
C33   C38   A    
C51   H2    S    
C23   C32   A    
C13   O6    A    
C19   H23   S    
C2    H4    S    
C46   H28   S    
C11   C28   S    
O4    Zn2   S    
C3    H5    S    
C11   O8    A    
C18   C20   A    
C47   H29   S    
C14   C25   A    
C12   C38   S    
C1    C39   S    
C14   C40   S    
C8    C10   S    
C4    H6    S    
C48   H33   S    
C13   C27   S    
C37   H39   S    
