data_mof_unit_8797.cif
_audit_creation_date              2012-12-10T17:29:19-0500
_audit_creation_method            fapswitch 2.2
_symmetry_space_group_name_H-M    P1
_symmetry_Int_Tables_number       1
_space_group_crystal_system       triclinic
_cell_length_a                    12.115001
_cell_length_b                    12.86826
_cell_length_c                    13.418624
_cell_angle_alpha                 83.639756
_cell_angle_beta                  111.314191
_cell_angle_gamma                 92.959378
_cell_volume                      1936.72199381

loop_
_atom_site_label
_atom_site_type_symbol
_atom_type_description
_atom_site_fract_x
_atom_site_fract_y
_atom_site_fract_z
_atom_type_partial_charge
C1    C     C_R   0.475565 0.301756 0.485140 0.983045
C2    C     C_R   0.544305 0.548781 0.971204 -0.111735
C3    C     C_R   0.516601 0.506121 0.872908 -0.242545
C4    C     C_R   0.457113 0.542079 0.018702 -0.133010
C5    C     C_R   0.336670 0.538216 0.952100 -0.300271
C6    C     C_R   0.309177 0.510323 0.847739 0.523167
C7    C     C_R   0.399926 0.468801 0.824094 0.385508
C8    C     C_R   0.487760 0.519991 0.129605 0.520980
C9    C     C_R   0.278428 0.521911 0.107147 0.191305
C10   C     C_R   0.603579 0.504835 0.825202 -0.240718
C11   C     C_R   0.542555 0.810080 0.525155 -0.358326
C12   C     C_R   0.564755 0.494953 0.707964 0.980506
C13   C     C_R   0.463389 0.192962 0.459919 -0.348541
C14   C     C_R   0.343740 0.036278 0.432926 0.503445
C15   C     C_R   0.352280 0.145071 0.418625 0.309364
C16   C     C_R   0.564616 0.135611 0.471376 0.423075
C17   C     C_R   0.560888 0.026543 0.490606 -0.235116
C18   C     C_R   0.449130 0.978081 0.477662 -0.275366
C19   C     C_R   0.443684 0.871527 0.506103 0.533798
C20   C     C_R   0.655211 0.856962 0.551474 0.176750
C21   C     C_R   0.665092 0.965004 0.528360 0.540222
C22   C     C_R   0.021556 0.622946 0.423137 0.428205
C23   C     C_R   0.525028 0.699082 0.511483 0.902727
C24   C     C_R   0.140140 0.609315 0.428767 0.431725
C25   C     C_R   0.147750 0.442010 0.525746 0.617267
C26   C     C_R   0.033254 0.456477 0.530715 -0.358489
C27   C     C_R   0.965361 0.541553 0.467823 -0.286952
C28   C     C_R   0.843015 0.545554 0.454315 0.602150
C29   C     C_R   0.869043 0.406700 0.593130 0.438519
C30   C     C_R   0.985735 0.391325 0.598666 0.369736
C31   C     C_R   0.435518 0.503535 0.292817 0.882089
C32   C     C_R   0.248578 0.543798 0.996232 0.538819
C33   C     C_R   0.398923 0.513778 0.175158 -0.396230
C34   C     C_R   0.722085 0.533759 0.885297 0.306988
C35   C     C_R   0.746893 0.580587 0.980720 0.276937
C36   C     C_R   0.656694 0.595387 0.019051 0.516011
N1    N     N_R   0.798200 0.480260 0.519790 -0.204056
N2    N     N_R   0.201820 0.519740 0.480210 -0.208094
O1    O     O_R   0.579910 0.341070 0.505280 -0.549509
O2    O     O_R   0.388440 0.353740 0.492580 -0.539650
O3    O     O_R   0.643280 0.490550 0.663120 -0.531586
O4    O     O_R   0.451810 0.503220 0.650420 -0.612231
O5    O     O_R   0.611560 0.646260 0.507420 -0.624415
O6    O     O_R   0.420090 0.658930 0.494720 -0.545746
O7    O     O_R   0.548190 0.496780 0.349580 -0.555430
O8    O     O_R   0.356720 0.509450 0.336880 -0.598042
Zn1   Zn    Zn3+2 0.627850 0.491540 0.508480 1.084869
Zn2   Zn    Zn3+2 0.372150 0.508460 0.491520 1.054439
Cl1   Cl    Cl    0.160785 0.485810 0.152625 -0.559106
Cl2   Cl    Cl    0.783305 0.785104 0.632310 -0.589917
O9    O     O_3   0.235276 0.985477 0.390225 -0.560534
C37   C     C_3   0.160219 0.005455 0.445358 -0.191994
H1    H     H_    0.102341 0.072608 0.402262 0.162999
H2    H     H_    0.208815 0.017957 0.531436 0.130711
H3    H     H_    0.101614 0.936472 0.445252 0.199404
O10   O     O_3   0.776784 0.010912 0.554663 -0.496398
C38   C     C_3   0.827208 0.989463 0.479114 -0.156228
H4    H     H_    0.763948 0.003095 0.394586 0.128319
H5    H     H_    0.861001 0.908541 0.494656 0.178211
H6    H     H_    0.904068 0.043070 0.487257 0.187184
O11   O     O_3   0.254046 0.202849 0.356193 -0.634172
C39   C     C_3   0.254097 0.220465 0.250598 -0.158975
H7    H     H_    0.259577 0.146010 0.217531 0.158964
H8    H     H_    0.327519 0.274640 0.247126 0.145390
H9    H     H_    0.169341 0.257573 0.198178 0.239000
Cl3   Cl    Cl    0.683195 0.198228 0.438623 -0.607810
O12   O     O_3   0.766041 0.588460 0.355680 -0.523824
C40   C     C_3   0.724918 0.687137 0.361309 -0.012752
H10   H     H_    0.736454 0.742118 0.297100 0.148519
H11   H     H_    0.770441 0.720938 0.438815 0.163031
H12   H     H_    0.627664 0.683650 0.339140 0.145616
Cl4   Cl    Cl    0.811900 0.325600 0.678020 -0.374406
O13   O     O_3   0.974864 0.722697 0.407720 -0.622824
C41   C     C_3   0.959549 0.773993 0.305246 -0.226768
H13   H     H_    0.934780 0.719755 0.241538 0.228973
H14   H     H_    0.037863 0.822890 0.308231 0.214647
H15   H     H_    0.887840 0.831728 0.283116 0.139826
Cl5   Cl    Cl    0.072868 0.298190 0.700851 -0.381330
O14   O     O_3   0.199636 0.694177 0.398820 -0.527107
C42   C     C_3   0.189113 0.695741 0.290246 -0.162174
H16   H     H_    0.113804 0.648308 0.241097 0.192082
H17   H     H_    0.273400 0.673674 0.285380 0.190854
H18   H     H_    0.176339 0.777422 0.252418 0.155660
O15   O     O_3   0.193932 0.506390 0.777052 -0.503979
C43   C     C_3   0.169667 0.604652 0.715693 -0.210506
H19   H     H_    0.198466 0.671663 0.765365 0.120682
H20   H     H_    0.213612 0.611931 0.655718 0.128529
H21   H     H_    0.072638 0.611679 0.673150 0.213787
O16   O     O_3   0.204521 0.348217 0.563367 -0.501378
C44   C     C_3   0.142202 0.272685 0.494532 -0.108956
H22   H     H_    0.197194 0.202053 0.518070 0.198164
H23   H     H_    0.124509 0.300428 0.408647 0.183288
H24   H     H_    0.056689 0.249390 0.503591 0.144228
O17   O     O_3   0.131841 0.561477 0.930828 -0.476981
C45   C     C_3   0.107122 0.667065 0.933654 -0.071210
H25   H     H_    0.018519 0.686257 0.872487 0.249208
H26   H     H_    0.172193 0.722056 0.914319 0.060414
H27   H     H_    0.105772 0.680755 0.013502 0.185595
O18   O     O_3   0.602954 0.490620 0.191275 -0.509606
C46   C     C_3   0.612800 0.381747 0.191243 -0.135497
H28   H     H_    0.704012 0.358333 0.243857 0.211739
H29   H     H_    0.598293 0.360364 0.109295 0.143044
H30   H     H_    0.550309 0.336926 0.223991 0.144935
Cl6   Cl    Cl    0.841120 0.518349 0.841926 -0.393473
O19   O     O_3   0.678084 0.658807 0.101065 -0.523900
C47   C     C_3   0.634089 0.759174 0.054406 -0.324020
H31   H     H_    0.656373 0.812599 0.118449 0.171171
H32   H     H_    0.535905 0.757544 0.014798 0.149973
H33   H     H_    0.675636 0.792595 0.996053 0.184413
Cl7   Cl    Cl    0.889873 0.628426 0.050344 -0.576791
Cl8   Cl    Cl    0.377261 0.344750 0.775676 -0.465437
O20   O     O_3   0.342125 0.828337 0.518634 -0.489042
C48   C     C_3   0.358287 0.820190 0.628769 -0.243735
H34   H     H_    0.272164 0.798320 0.637072 0.174195
H35   H     H_    0.386714 0.896049 0.663804 0.138491
H36   H     H_    0.422888 0.758045 0.674894 0.143998

loop_
_geom_bond_atom_site_label_1
_geom_bond_atom_site_label_2
_ccdc_geom_bond_type
C32   O17   S    
O13   C41   S    
C14   C18   A    
C45   H25   S    
C4    C8    A    
C38   H4    S    
C45   H27   S    
C43   H19   S    
C11   C19   A    
C26   C27   A    
C39   H7    S    
C41   H14   S    
C8    O18   S    
C18   C19   A    
C3    C7    A    
C5    C6    A    
C38   H5    S    
C47   H31   S    
C20   Cl2   S    
C23   O5    A    
O10   C38   S    
C34   C35   A    
C12   O4    A    
C9    C32   A    
C35   C36   A    
C16   C17   A    
C41   H15   S    
C24   N2    A    
C31   C33   S    
N1    Zn1   S    
C29   C30   A    
C39   H8    S    
C1    O2    A    
C37   H3    S    
C29   Cl4   S    
O7    Zn1   S    
C9    C33   A    
O17   C45   S    
C42   H18   S    
O20   C48   S    
C37   H2    S    
C43   H20   S    
O3    Zn1   S    
O8    Zn2   S    
C11   C20   A    
C6    O15   S    
C41   H13   S    
O9    C37   S    
C28   O12   S    
C9    Cl1   S    
O15   C43   S    
C42   H17   S    
C40   H10   S    
C38   H6    S    
C25   C26   A    
C19   O20   S    
C31   O8    A    
C46   H30   S    
C17   C21   A    
C23   O6    A    
O12   C40   S    
C2    C4    A    
C12   O3    A    
C25   N2    A    
C24   O14   S    
C44   H23   S    
C14   O9    S    
C46   H29   S    
C17   C18   A    
C15   O11   S    
C10   C34   A    
C5    C32   A    
O4    Zn2   S    
C35   Cl7   S    
C10   C12   S    
C26   C30   A    
C22   C27   A    
C13   C15   A    
C22   C24   A    
C1    C13   S    
C37   H1    S    
C44   H24   S    
O1    Zn1   S    
C48   H34   S    
C43   H21   S    
C2    C36   A    
O2    Zn2   S    
C39   H9    S    
C36   O19   S    
N2    Zn2   S    
C42   H16   S    
C21   O10   S    
C45   H26   S    
C6    C7    A    
O19   C47   S    
C25   O16   S    
O18   C46   S    
C48   H36   S    
C2    C3    A    
C3    C10   A    
C44   H22   S    
C47   H32   S    
C28   N1    A    
C40   H12   S    
C11   C23   S    
C46   H28   S    
C7    Cl8   S    
C8    C33   A    
O11   C39   S    
C34   Cl6   S    
C1    O1    A    
O14   C42   S    
C30   Cl5   S    
C4    C5    A    
C16   Cl3   S    
C20   C21   A    
C40   H11   S    
C31   O7    A    
C13   C16   A    
C29   N1    A    
C27   C28   A    
C14   C15   A    
C22   O13   S    
O16   C44   S    
O5    Zn1   S    
O6    Zn2   S    
C48   H35   S    
C47   H33   S    
