data_mof_unit_23787.cif
_audit_creation_date              2013-03-05T15:46:13-0500
_audit_creation_method            fapswitch 2.2
_symmetry_space_group_name_H-M    P1
_symmetry_Int_Tables_number       1
_space_group_crystal_system       triclinic
_cell_length_a                    10.758951
_cell_length_b                    11.026603
_cell_length_c                    9.918462
_cell_angle_alpha                 111.049369
_cell_angle_beta                  97.982395
_cell_angle_gamma                 92.343381
_cell_volume                      1082.25831647

loop_
_atom_site_label
_atom_site_type_symbol
_atom_site_description
_atom_site_fract_x
_atom_site_fract_y
_atom_site_fract_z
_atom_type_partial_charge
O1    O     O_R   0.511820 0.332340 0.577400 -0.564198
O2    O     O_R   0.474400 0.295500 0.332650 -0.589668
C1    C     C_R   0.491833 0.254051 0.440249 0.775843
O3    O     O_R   0.336400 0.518400 0.622370 -0.533139
O4    O     O_R   0.298980 0.481560 0.377620 -0.602596
C2    C     C_R   0.260104 0.495783 0.499930 0.898818
Cu1   Cu    Cu3+1 0.522160 0.521810 0.644910 1.082367
Cu2   Cu    Cu3+1 0.477840 0.478190 0.355090 1.010860
O5    O     O_R   0.525600 0.704500 0.667350 -0.511874
O6    O     O_R   0.488180 0.667660 0.422600 -0.589452
O7    O     O_R   0.701020 0.518440 0.622380 -0.579281
O8    O     O_R   0.663600 0.481600 0.377630 -0.575981
C3    C     C_R   0.511915 0.745895 0.559276 0.854797
C4    C     C_R   0.739393 0.497201 0.497769 0.786365
C5    C     C_3   0.076245 0.404976 0.582007 0.196051
H1    H     H_    0.125115 0.445364 0.697112 0.151671
C6    C     C_3   0.932256 0.411176 0.581654 -0.554633
H2    H     H_    0.881130 0.311474 0.533146 0.201042
H3    H     H_    0.915094 0.452371 0.696405 0.184777
H4    H     H_    0.913824 0.685392 0.675669 0.179541
C7    C     C_3   0.086262 0.634868 0.570103 0.263897
C8    C     C_3   0.049271 0.434898 0.338744 -0.486272
C9    C     C_3   0.121727 0.491653 0.499515 -0.114279
H5    H     H_    0.078013 0.495936 0.277755 0.218093
H6    H     H_    0.073300 0.335207 0.277815 0.194508
C10   C     C_3   0.876846 0.494675 0.494444 -0.002580
C11   C     C_3   0.941188 0.636389 0.566741 -0.440128
C12   C     C_3   0.905474 0.430980 0.334924 0.332862
H7    H     H_    0.863763 0.326908 0.292038 0.089083
H8    H     H_    0.107505 0.684037 0.494296 0.152138
H9    H     H_    0.903881 0.694325 0.501100 0.194906
H10   H     H_    0.506123 0.860529 0.368418 0.235195
H11   H     H_    0.575297 0.134238 0.615671 0.195437
C13   C     C_2   0.483061 0.113336 0.405248 0.235523
C14   C     C_2   0.528653 0.067864 0.508783 -0.213000
H12   H     H_    0.538980 0.953743 0.704529 0.203463
C15   C     C_2   0.525229 0.885879 0.591425 -0.300166
C16   C     C_2   0.519888 0.928821 0.481225 -0.087664
H13   H     H_    0.600081 0.567267 0.153653 0.134125
N1    N     N_2   0.444530 0.445420 0.137360 -0.029700
C17   C     C_2   0.517808 0.505842 0.082333 0.081402
N2    N     N_2   0.555520 0.554510 0.862630 -0.143357
C18   C     C_2   0.503765 0.478200 0.919748 0.392448
O9    O     O_3   0.853908 0.497682 0.245000 -0.566768
C19   C     C_3   0.832875 0.414096 0.095383 0.049609
H14   H     H_    0.733630 0.369708 0.064410 0.172661
H15   H     H_    0.895282 0.333207 0.069006 0.135540
C20   C     C_3   0.856169 0.493418 0.002381 -0.761797
H16   H     H_    0.959097 0.516845 0.011171 0.232957
H17   H     H_    0.815160 0.436583 0.886309 0.208617
H18   H     H_    0.811796 0.585938 0.040718 0.286648
N3    N     N_R   0.418881 0.027200 0.263823 0.130721
O10   O     O_R   0.451040 0.034938 0.145308 -0.355833
O11   O     O_R   0.318448 0.952753 0.254092 -0.344104
N4    N     N_R   0.443667 0.352629 0.825041 0.145693
O12   O     O_R   0.486142 0.248803 0.840352 -0.431254
O13   O     O_R   0.332076 0.343038 0.750702 -0.322559
N5    N     N_R   0.605893 0.680219 0.955661 0.187447
O14   O     O_R   0.696940 0.737546 0.920018 -0.332495
O15   O     O_R   0.546499 0.750813 0.057903 -0.372773
N6    N     N_R   0.104539 0.267719 0.521914 0.157013
O16   O     O_R   0.067346 0.187239 0.580627 -0.338615
O17   O     O_R   0.181639 0.229203 0.428112 -0.366947
O18   O     O_3   0.327624 0.401615 0.059299 -0.493998
C21   C     C_3   0.294980 0.278173 0.063899 0.274058
H19   H     H_    0.271872 0.286871 0.171715 0.177749
H20   H     H_    0.372322 0.213751 0.038865 0.208671
C22   C     C_3   0.178065 0.212464 0.950942 -0.747302
H21   H     H_    0.199695 0.189475 0.838847 0.318689
H22   H     H_    0.146077 0.119915 0.961974 0.212706
H23   H     H_    0.100957 0.277635 0.967756 0.226790
O19   O     O_3   0.166521 0.710173 0.704794 -0.569796
C23   C     C_3   0.124132 0.712804 0.834563 0.039858
H24   H     H_    0.055905 0.629836 0.820125 0.123949
H25   H     H_    0.079275 0.804481 0.881146 0.186139
C24   C     C_3   0.236707 0.712085 0.945035 -0.567971
H26   H     H_    0.307072 0.795604 0.964961 0.308646
H27   H     H_    0.205542 0.719769 0.049680 0.219335
H28   H     H_    0.281125 0.619716 0.902808 0.241468

loop_
_geom_bond_atom_site_label_1
_geom_bond_atom_site_label_2
_geom_bond_distance
_ccdc_geom_bond_type
N4    O12   1.300373 A    
C17   C18   1.513828 S    
C23   H24   1.103665 S    
C24   H28   1.109112 S    
N2    N5    1.395508 S    
Cu1   Cu2   2.707252 S    
H13   C17   1.084238 S    
C19   H14   1.110054 S    
O9    C19   1.417749 S    
Cu1   O7    1.968180 S    
C10   C11   1.550472 S    
C6    C10   1.557265 S    
C12   H7    1.119581 S    
C24   H27   1.110273 S    
O4    C2    1.296477 A    
O7    C4    1.301754 A    
N5    O15   1.302395 A    
C5    H1    1.107744 S    
C5    C6    1.553043 S    
C13   C14   1.340384 D    
Cu1   N2    2.033931 S    
N6    O17   1.301295 A    
O5    C3    1.300838 A    
C6    H3    1.108896 S    
C20   H18   1.106733 S    
C22   H21   1.108506 S    
C21   H20   1.112516 S    
C8    H6    1.108979 S    
H12   C15   1.087271 S    
H10   C16   1.086496 S    
C3    C15   1.456154 S    
C5    C9    1.567491 S    
C7    C11   1.557470 S    
C8    C12   1.540746 S    
C23   H25   1.111130 S    
O3    Cu1   1.977232 S    
N3    O11   1.300912 A    
C19   H15   1.115776 S    
C7    O19   1.429668 S    
C11   H9    1.113672 S    
C14   C16   1.454030 S    
C24   H26   1.109492 S    
O3    C2    1.303707 A    
C1    C13   1.459083 S    
N5    O14   1.300067 A    
C12   O9    1.418248 S    
O1    C1    1.304591 A    
C15   C16   1.333704 D    
Cu2   O8    1.977232 S    
C21   C22   1.520982 S    
C6    H2    1.113436 S    
C5    N6    1.476016 S    
C4    C10   1.484962 S    
C18   N4    1.428781 S    
N1    C17   1.304258 D    
O8    C4    1.298409 A    
N4    O13   1.297704 A    
C23   C24   1.518570 S    
C8    H5    1.114418 S    
N2    C18   1.315581 D    
N3    O10   1.300519 A    
C19   C20   1.518080 S    
Cu1   O5    1.943825 S    
C20   H16   1.110979 S    
O1    Cu1   1.944461 S    
C13   N3    1.437650 S    
O2    Cu2   1.943825 S    
O19   C23   1.415197 S    
O6    C3    1.301110 A    
O4    Cu2   1.968180 S    
H4    C11   1.108102 S    
C7    H8    1.114435 S    
C10   C12   1.564056 S    
N1    O18   1.351288 S    
O18   C21   1.410007 S    
C7    C9    1.568061 S    
O2    C1    1.298002 A    
C22   H23   1.110645 S    
C2    C9    1.487012 S    
C20   H17   1.109426 S    
H11   C14   1.084561 S    
N6    O16   1.301415 A    
Cu2   O6    1.944461 S    
C21   H19   1.103029 S    
C22   H22   1.110768 S    
C8    C9    1.562084 S    
Cu2   N1    2.033853 S    
