data_mof_unit_6039.cif
_audit_creation_date              2012-12-10T17:51:31-0500
_audit_creation_method            fapswitch 2.2
_symmetry_space_group_name_H-M    P1
_symmetry_Int_Tables_number       1
_space_group_crystal_system       triclinic
_cell_length_a                    9.930063
_cell_length_b                    10.610101
_cell_length_c                    16.777242
_cell_angle_alpha                 91.82927
_cell_angle_beta                  84.635055
_cell_angle_gamma                 91.951195
_cell_volume                      1758.1354873

loop_
_atom_site_label
_atom_site_type_symbol
_atom_type_description
_atom_site_fract_x
_atom_site_fract_y
_atom_site_fract_z
_atom_type_partial_charge
C1    C     C_R   0.504128 0.739091 0.493908 0.886459
C2    C     C_R   0.528437 0.454585 0.262736 -0.039163
C3    C     C_R   0.600378 0.882284 0.346143 0.084493
C4    C     C_R   0.480558 0.499042 0.653100 0.839703
C5    C     C_R   0.586568 0.942848 0.273945 0.206985
C6    C     C_R   0.538030 0.064575 0.275993 -0.170161
C7    C     C_R   0.509288 0.128063 0.349026 -0.191340
C8    C     C_R   0.513921 0.065398 0.421429 0.084915
C9    C     C_R   0.543581 0.937275 0.419715 0.010968
C10   C     C_R   0.514371 0.872301 0.492196 -0.066890
C11   C     C_R   0.480271 0.935155 0.565112 -0.182472
C12   C     C_R   0.342404 0.442963 0.778207 -0.171418
C13   C     C_R   0.474477 0.064089 0.567581 -0.177003
C14   C     C_R   0.491317 0.127878 0.496237 -0.062181
C15   C     C_R   0.849583 0.667152 0.603674 -0.178008
C16   C     C_R   0.497197 0.260601 0.501443 0.870189
C17   C     C_R   0.914309 0.748045 0.655804 -0.215319
C18   C     C_R   0.053474 0.745942 0.657306 0.179607
C19   C     C_R   0.128632 0.663342 0.606260 -0.177596
C20   C     C_R   0.066742 0.580826 0.552106 0.125951
C21   C     C_R   0.922405 0.581733 0.551490 0.137325
C22   C     C_R   0.935350 0.422474 0.449900 0.219935
C23   C     C_R   0.424306 0.344429 0.155115 -0.159939
C24   C     C_R   0.077766 0.423093 0.450209 -0.126062
C25   C     C_R   0.518923 0.493627 0.346967 0.873447
C26   C     C_R   0.467405 0.481221 0.738999 -0.034471
C27   C     C_R   0.583130 0.489847 0.780793 -0.196935
C28   C     C_R   0.575390 0.455438 0.859950 -0.128790
C29   C     C_R   0.451820 0.410892 0.898061 0.190253
C30   C     C_R   0.334789 0.408244 0.857637 -0.150187
C31   C     C_R   0.415455 0.393600 0.232562 -0.212904
C32   C     C_R   0.651885 0.462094 0.215000 -0.122699
C33   C     C_R   0.659716 0.415454 0.136282 -0.136728
C34   C     C_R   0.544611 0.360361 0.105456 0.185434
C35   C     C_2   0.439891 0.379783 0.982473 -0.205734
C36   C     C_2   0.545177 0.341523 0.018942 -0.211856
H1    H     H_    0.680169 0.521316 0.752044 0.162827
H2    H     H_    0.234742 0.666810 0.610898 0.213902
H3    H     H_    0.136766 0.360476 0.409648 0.159847
H4    H     H_    0.741213 0.505377 0.237991 0.190311
H5    H     H_    0.640219 0.319548 0.984769 0.153663
H6    H     H_    0.238073 0.377687 0.887259 0.140233
H7    H     H_    0.335621 0.298014 0.133189 0.148529
H8    H     H_    0.251633 0.436075 0.746992 0.167040
H9    H     H_    0.345268 0.402973 0.016765 0.158737
H10   H     H_    0.665810 0.465848 0.891178 0.136516
H11   H     H_    0.753344 0.428123 0.098341 0.140347
H12   H     H_    0.460039 0.884093 0.620166 0.154887
H13   H     H_    0.530006 0.112766 0.220833 0.179775
H14   H     H_    0.479756 0.224949 0.348716 0.145088
H15   H     H_    0.455137 0.114088 0.624683 0.153609
H16   H     H_    0.742719 0.674706 0.605816 0.210832
H17   H     H_    0.855671 0.812610 0.695239 0.178146
H18   H     H_    0.320509 0.381274 0.269279 0.168389
I1    I     I_    0.768437 0.762272 0.343953 -0.280943
I2    I     I_    0.644294 0.859403 0.159648 -0.319420
I3    I     I_    0.853454 0.295130 0.366270 -0.323753
I4    I     I_    0.151652 0.868627 0.736484 -0.396477
N1    N     N_R   0.857140 0.501200 0.500750 -0.128861
N2    N     N_R   0.142740 0.501280 0.500770 -0.125814
O1    O     O_R   0.385310 0.683220 0.500000 -0.620525
O2    O     O_R   0.614640 0.683250 0.500010 -0.614182
O3    O     O_R   0.371780 0.500010 0.615800 -0.637314
O4    O     O_R   0.601110 0.500030 0.615800 -0.639010
O5    O     O_R   0.385360 0.316750 0.499990 -0.619392
O6    O     O_R   0.614690 0.316780 0.500000 -0.578295
O7    O     O_R   0.398890 0.499970 0.384200 -0.620879
O8    O     O_R   0.628220 0.499990 0.384200 -0.576296
Zn1   Zn    Zn3+2 0.346870 0.499980 0.499990 0.952914
Zn2   Zn    Zn3+2 0.653130 0.500020 0.500010 0.987765

loop_
_geom_bond_atom_site_label_1
_geom_bond_atom_site_label_2
_ccdc_geom_bond_type
C8    C9    A    
C4    C26   S    
C6    C7    A    
C3    C9    A    
C19   H2    S    
O4    Zn2   S    
C20   N2    A    
C9    C10   A    
C4    O4    A    
C5    I2    S    
C19   C20   A    
C25   O7    A    
C24   N2    A    
C23   C34   A    
C27   C28   A    
C32   C33   A    
C3    C5    A    
C22   I3    S    
C17   C18   A    
C36   H5    S    
C7    C8    A    
C12   H8    S    
O6    Zn2   S    
C15   H16   S    
C1    O2    A    
C11   C13   A    
C4    O3    A    
C28   H10   S    
C11   H12   S    
C29   C30   A    
C25   O8    A    
N2    Zn1   S    
C27   H1    S    
O5    Zn1   S    
O8    Zn2   S    
C28   C29   A    
C33   C34   A    
C21   N1    A    
C2    C25   S    
C34   C36   S    
C32   H4    S    
C6    H13   S    
C26   C27   A    
C5    C6    A    
C33   H11   S    
C22   C24   A    
C16   O6    A    
C10   C11   A    
N1    Zn2   S    
C23   C31   A    
C35   H9    S    
C17   H17   S    
C31   H18   S    
C15   C21   A    
C24   H3    S    
C23   H7    S    
C20   C21   A    
O2    Zn2   S    
C2    C32   A    
C18   C19   A    
O1    Zn1   S    
C22   N1    A    
C15   C17   A    
C29   C35   S    
C30   H6    S    
C8    C14   A    
C16   O5    A    
C13   C14   A    
C12   C30   A    
C14   C16   S    
C13   H15   S    
C3    I1    S    
C18   I4    S    
C1    C10   S    
O3    Zn1   S    
C7    H14   S    
C12   C26   A    
C2    C31   A    
O7    Zn1   S    
C35   C36   D    
C1    O1    A    
