data_mof_unit_7690.cif
_audit_creation_date              2012-12-10T18:05:49-0500
_audit_creation_method            fapswitch 2.2
_symmetry_space_group_name_H-M    P1
_symmetry_Int_Tables_number       1
_space_group_crystal_system       triclinic
_cell_length_a                    12.784342
_cell_length_b                    13.049355
_cell_length_c                    14.897617
_cell_angle_alpha                 92.830552
_cell_angle_beta                  103.260421
_cell_angle_gamma                 81.219125
_cell_volume                      2390.44639507

loop_
_atom_site_label
_atom_site_type_symbol
_atom_type_description
_atom_site_fract_x
_atom_site_fract_y
_atom_site_fract_z
_atom_type_partial_charge
Br1   Br    Br    0.534975 0.277453 0.251386 -0.474913
Br2   Br    Br    0.849425 0.005047 0.702014 -0.362954
Br3   Br    Br    0.618633 0.290076 0.759981 -0.480123
Br4   Br    Br    0.715010 0.217819 0.132131 -0.419359
Br5   Br    Br    0.820885 0.237136 0.614882 -0.331483
C1    C     C_R   0.438591 0.691417 0.492058 0.901699
C2    C     C_R   0.456462 0.585589 0.808782 -0.249135
C3    C     C_R   0.506458 0.498749 0.769171 -0.084412
C4    C     C_R   0.501726 0.500224 0.672609 0.913091
C5    C     C_R   0.558396 0.411172 0.820739 0.217709
C6    C     C_R   0.714063 0.057997 0.619035 0.266208
C7    C     C_R   0.600721 0.197285 0.524409 -0.164853
C8    C     C_R   0.299198 0.837439 0.428604 -0.268341
C9    C     C_R   0.270285 0.942907 0.408534 0.514876
C10   C     C_R   0.344783 0.010535 0.443666 -0.141007
C11   C     C_R   0.446212 0.975053 0.503485 -0.003930
C12   C     C_R   0.552708 0.408968 0.101947 -0.020944
C13   C     C_R   0.463625 0.873678 0.537429 -0.045264
C14   C     C_R   0.531334 0.035992 0.530045 0.068147
C15   C     C_R   0.626878 0.999385 0.596745 -0.050271
C16   C     C_R   0.561808 0.308184 0.509994 0.971124
C17   C     C_R   0.631472 0.906705 0.641686 -0.155595
C18   C     C_R   0.549021 0.846097 0.615708 0.429677
C19   C     C_R   0.524164 0.132002 0.490910 -0.230478
C20   C     C_R   0.701354 0.157584 0.582298 0.286129
C21   C     C_R   0.397622 0.802241 0.489860 -0.162428
C22   C     C_R   0.085370 0.367075 0.351519 -0.221671
C23   C     C_R   0.410090 0.676769 0.035132 -0.167238
C24   C     C_R   0.798915 0.628888 0.612764 -0.113057
C25   C     C_R   0.898626 0.665714 0.630903 0.390675
C26   C     C_R   0.975671 0.623647 0.581730 -0.078618
C27   C     C_R   0.958723 0.538924 0.519729 -0.133185
C28   C     C_R   0.498148 0.499858 0.327657 1.032710
C29   C     C_R   0.853902 0.507527 0.499989 0.161716
C30   C     C_R   0.040463 0.485763 0.475121 -0.010263
C31   C     C_R   0.010454 0.416605 0.400603 0.043149
C32   C     C_R   0.907088 0.392101 0.377886 -0.307661
C33   C     C_R   0.832436 0.428692 0.430911 0.493895
C34   C     C_R   0.408764 0.674748 0.941848 -0.155098
C35   C     C_R   0.151691 0.495511 0.501621 0.530506
C36   C     C_R   0.191925 0.383208 0.378410 -0.048383
C37   C     C_R   0.533528 0.405877 0.190667 0.160339
C38   C     C_R   0.495100 0.498269 0.231556 -0.176005
C39   C     C_R   0.462777 0.591412 0.184367 0.336720
C40   C     C_R   0.460584 0.590574 0.090011 0.029361
C41   C     C_R   0.508336 0.499878 0.049463 -0.053066
C42   C     C_R   0.458500 0.587237 0.902058 0.137584
C43   C     C_R   0.509830 0.499727 0.955729 0.059097
C44   C     C_R   0.560835 0.411631 0.915142 -0.000461
C45   C     C_R   0.614918 0.327317 0.970150 -0.181794
C46   C     C_R   0.613374 0.325845 0.062886 0.317950
H1    H     H_    0.697132 0.881584 0.699507 0.195081
H2    H     H_    0.368285 0.745179 0.062679 0.174894
H3    H     H_    0.368473 0.741693 0.900668 0.167065
H4    H     H_    0.415392 0.651577 0.766604 0.146513
H5    H     H_    0.661686 0.262401 0.942548 0.230717
H6    H     H_    0.129680 0.923770 0.331558 0.344659
H7    H     H_    0.476543 0.748776 0.663818 0.308962
H8    H     H_    0.451997 0.740059 0.206421 0.342277
H9    H     H_    0.243770 0.589729 0.565834 0.358621
H10   H     H_    0.862514 0.760502 0.727311 0.346844
H11   H     H_    0.743813 0.323291 0.372696 0.356137
H12   H     H_    0.456031 0.161016 0.436756 0.181518
H13   H     H_    0.246900 0.782713 0.393971 0.170121
H14   H     H_    0.319783 0.090487 0.424016 0.159155
H15   H     H_    0.251230 0.346942 0.340857 0.173820
H16   H     H_    0.886516 0.336635 0.322234 0.188338
H17   H     H_    0.061911 0.315263 0.293659 0.188256
H18   H     H_    0.736900 0.661513 0.648716 0.188197
H19   H     H_    0.046000 0.662303 0.591492 0.220885
N1    N     N_R   0.222190 0.444670 0.452360 -0.153073
N2    N     N_R   0.776970 0.554790 0.547140 -0.119988
O1    O     O_R   0.366740 0.627160 0.477250 -0.658363
O2    O     O_3   0.551646 0.763994 0.671468 -0.774560
O3    O     O_3   0.430587 0.679881 0.232002 -0.772965
O4    O     O_3   0.191347 0.548761 0.580506 -0.772724
O5    O     O_3   0.922803 0.743425 0.695008 -0.703778
O6    O     O_3   0.741475 0.382388 0.417076 -0.696840
O7    O     O_R   0.544830 0.662520 0.507680 -0.584917
O8    O     O_R   0.410940 0.482340 0.616930 -0.593082
O9    O     O_R   0.589030 0.517700 0.647360 -0.578939
O10   O     O_R   0.455170 0.337480 0.492320 -0.619579
O11   O     O_R   0.633260 0.372840 0.522750 -0.507820
O12   O     O_R   0.410970 0.482300 0.352640 -0.609800
O13   O     O_R   0.589060 0.517660 0.383070 -0.569217
O14   O     O_3   0.172967 0.981285 0.350602 -0.734972
Zn1   Zn    Zn3+2 0.381090 0.476390 0.479680 0.983028
Zn2   Zn    Zn3+2 0.618910 0.523610 0.520320 1.055155

loop_
_geom_bond_atom_site_label_1
_geom_bond_atom_site_label_2
_ccdc_geom_bond_type
C35   N1    A    
C29   N2    A    
C14   C15   A    
C13   C21   A    
O12   Zn1   S    
C2    H4    S    
C12   C46   A    
C2    C3    A    
C40   C41   A    
C32   C33   A    
C17   H1    S    
C31   C32   A    
O8    Zn1   S    
C25   C26   A    
C34   H3    S    
C6    C20   A    
C10   C11   A    
C10   H14   S    
H6    O14   S    
C28   O13   A    
C12   C37   A    
O1    Zn1   S    
C22   H17   S    
C27   C29   A    
C25   O5    S    
C26   H19   S    
C16   O11   A    
H10   O5    S    
C3    C4    S    
C42   C43   A    
C36   N1    A    
C24   N2    A    
O11   Zn2   S    
C8    C9    A    
Br2   C6    S    
O7    Zn2   S    
N2    Zn2   S    
C24   H18   S    
C23   C40   A    
C41   C43   A    
C6    C15   A    
Br4   C46   S    
C13   C18   A    
C28   C38   S    
C27   C30   A    
C12   C41   A    
C9    O14   S    
C33   O6    S    
C23   C34   A    
C7    C16   S    
H9    O4    S    
C45   H5    S    
C35   O4    S    
C30   C31   A    
C2    C42   A    
C39   O3    S    
C38   C39   A    
C24   C25   A    
C22   C36   A    
C26   C27   A    
C9    C10   A    
C45   C46   A    
Br5   C20   S    
C11   C13   A    
C43   C44   A    
C15   C17   A    
C19   H12   S    
N1    Zn1   S    
C8    C21   A    
C37   C38   A    
C18   O2    S    
H8    O3    S    
C39   C40   A    
H7    O2    S    
C1    O1    A    
C34   C42   A    
O13   Zn2   S    
C29   C33   A    
H11   O6    S    
C23   H2    S    
C36   H15   S    
C22   C31   A    
C7    C19   A    
C7    C20   A    
C14   C19   A    
Br3   C5    S    
C1    O7    A    
C1    C21   S    
C8    H13   S    
C11   C14   A    
C32   H16   S    
C30   C35   A    
C28   O12   A    
O9    Zn2   S    
Br1   C37   S    
C16   O10   A    
C3    C5    A    
C44   C45   A    
C17   C18   A    
C5    C44   A    
C4    O8    A    
O10   Zn1   S    
C4    O9    A    
