data_mof_unit_37631.cif
_audit_creation_date              2012-12-11T14:29:27-0500
_audit_creation_method            fapswitch 2.2
_symmetry_space_group_name_H-M    P1
_symmetry_Int_Tables_number       1
_space_group_crystal_system       triclinic
_cell_length_a                    6.936474
_cell_length_b                    14.741017
_cell_length_c                    16.23382
_cell_angle_alpha                 90.470291
_cell_angle_beta                  90.304951
_cell_angle_gamma                 90.079377
_cell_volume                      1659.83803064

loop_
_atom_site_label
_atom_site_type_symbol
_atom_type_description
_atom_site_fract_x
_atom_site_fract_y
_atom_site_fract_z
_atom_type_partial_charge
O1    O     O_R   0.494400 0.416610 0.413880 -0.542726
O2    O     O_R   0.823920 0.406790 0.585520 -0.540847
O3    O     O_R   0.994250 0.583390 0.586120 -0.536390
C1    C     C_R   0.654750 0.383785 0.612280 0.724205
O4    O     O_R   0.824110 0.405730 0.414490 -0.541619
O5    O     O_R   0.994440 0.582310 0.413870 -0.537877
C2    C     C_R   0.654126 0.383289 0.386653 0.752165
O6    O     O_R   0.494210 0.417690 0.586130 -0.546014
O7    O     O_3   0.660810 0.557940 0.500000 -0.366246
V1    V     V_3+5 0.935650 0.489250 0.500000 1.436634
O8    O     O_R   0.324160 0.593210 0.414480 -0.544897
C3    C     C_R   0.155260 0.614921 0.386275 0.740086
O9    O     O_R   0.323970 0.594270 0.585510 -0.538430
C4    C     C_R   0.155409 0.616395 0.613753 0.692397
V2    V     V_3+5 0.435660 0.510750 0.500000 1.436024
O10   O     O_3   0.160630 0.442060 0.500000 -0.374011
C5    C     C_R   0.302488 0.576919 0.776899 -0.142580
C6    C     C_R   0.372613 0.555161 0.854820 -0.116803
C7    C     C_R   0.359679 0.617585 0.919117 -0.123589
C8    C     C_R   0.276441 0.702245 0.906020 -0.131388
C9    C     C_R   0.205659 0.726800 0.827344 0.068724
C10   C     C_R   0.219023 0.662768 0.761315 0.066366
C11   C     C_R   0.118931 0.812687 0.814350 -0.177123
C12   C     C_R   0.045696 0.834370 0.735094 0.081334
C13   C     C_R   0.059030 0.770501 0.669047 0.051513
C14   C     C_R   0.145712 0.684473 0.682083 -0.173627
C15   C     C_R   0.962407 0.920069 0.719667 -0.175124
C16   C     C_R   0.892239 0.942226 0.641921 -0.168042
C17   C     C_R   0.904369 0.880208 0.576499 0.023394
C18   C     C_R   0.988422 0.795142 0.590305 -0.187773
H1    H     H_    0.313370 0.525267 0.729477 0.113787
H2    H     H_    0.436088 0.489192 0.865467 0.146232
H3    H     H_    0.413124 0.600090 0.979708 0.115497
H4    H     H_    0.266766 0.747609 0.958527 0.102757
H5    H     H_    0.951506 0.971511 0.767262 0.111179
H6    H     H_    0.829142 0.008638 0.633016 0.152219
H7    H     H_    0.000028 0.748768 0.538630 0.144869
C19   C     C_2   0.985567 0.707925 0.281216 -0.097786
C20   C     C_2   0.149979 0.682676 0.319439 -0.279754
H8    H     H_    0.849835 0.678524 0.300795 0.141383
H9    H     H_    0.287144 0.711729 0.302054 0.127597
C21   C     C_2   0.973462 0.775838 0.213610 -0.140365
C22   C     C_2   0.126846 0.813437 0.176270 -0.318880
H10   H     H_    0.829437 0.794867 0.193742 0.144733
H11   H     H_    0.272003 0.794843 0.194145 0.134730
C23   C     C_2   0.765758 0.197687 0.772475 -0.222700
C24   C     C_2   0.615396 0.190140 0.824811 0.318011
H12   H     H_    0.880005 0.147401 0.773934 0.082752
C25   C     C_2   0.788489 0.272552 0.712090 -0.095943
C26   C     C_2   0.637513 0.311546 0.674017 -0.253546
H13   H     H_    0.934005 0.291655 0.695032 0.121064
H14   H     H_    0.492796 0.287519 0.685699 0.164035
C27   C     C_2   0.769150 0.187606 0.234146 0.011449
C28   C     C_2   0.621199 0.180515 0.178877 -0.344245
H15   H     H_    0.507697 0.231027 0.178654 0.140314
C29   C     C_2   0.786985 0.266081 0.292540 -0.172733
C30   C     C_2   0.635401 0.312295 0.322287 -0.321584
H16   H     H_    0.929615 0.281510 0.316912 0.168808
H17   H     H_    0.490306 0.294553 0.302660 0.158002
O11   O     O_R   0.770210 0.079270 0.910680 -0.557020
O12   O     O_R   0.440150 0.091160 0.082270 -0.531395
O13   O     O_R   0.269970 0.914530 0.082860 -0.541332
C31   C     C_R   0.609503 0.110992 0.112397 0.797753
O14   O     O_R   0.440480 0.090100 0.911240 -0.544410
O15   O     O_R   0.270310 0.913460 0.910610 -0.539816
C32   C     C_R   0.608769 0.113975 0.884709 0.632346
O16   O     O_R   0.769870 0.080340 0.082930 -0.531733
O17   O     O_3   0.603660 0.938980 0.996790 -0.370973
V3    V     V_3+5 0.328750 0.007610 0.996740 1.444845
O18   O     O_R   0.940600 0.902510 0.911180 -0.541353
C33   C     C_R   0.109170 0.880579 0.882833 0.682317
O19   O     O_R   0.940270 0.903570 0.082200 -0.531591
C34   C     C_R   0.109851 0.881370 0.109951 0.752894
V4    V     V_3+5 0.828770 0.986010 0.996670 1.444711
O20   O     O_3   0.103730 0.054750 0.996710 -0.375273
C35   C     C_2   0.830611 0.904278 0.493447 0.766730
O21   O     O_2   0.761774 0.979363 0.481152 -0.550163
O22   O     O_R   0.839306 0.841107 0.428832 -0.672522
H18   H     H_    0.784594 0.865588 0.375414 0.306277
O23   O     O_3   0.488343 0.262750 0.832883 -0.553441
C36   C     C_3   0.295308 0.235023 0.820262 -0.241638
H19   H     H_    0.226752 0.218847 0.879999 0.171863
H20   H     H_    0.280212 0.177106 0.776035 0.112111
H21   H     H_    0.214283 0.292897 0.794030 0.144763
C37   C     C_2   0.918056 0.115858 0.242214 0.806220
O24   O     O_2   0.086798 0.136715 0.253881 -0.572089
O25   O     O_R   0.863633 0.024504 0.241039 -0.657735
H22   H     H_    0.976181 0.982526 0.252136 0.290034

loop_
_geom_bond_atom_site_label_1
_geom_bond_atom_site_label_2
_ccdc_geom_bond_type
C22   C34   S    
O25   H22   S    
C7    C8    A    
C12   C15   A    
C1    O6    A    
C36   H19   S    
C20   H9    S    
C17   C35   S    
C37   O24   D    
C23   C25   S    
C16   C17   A    
C35   O22   S    
C19   C21   S    
O5    C3    A    
C19   C20   D    
C30   H17   S    
C28   C31   S    
O17   V4    S    
V2    O10   S    
C29   C30   D    
C6    C7    A    
O12   C31   A    
C28   H15   S    
O8    V2    S    
O17   V3    S    
C25   H13   S    
O18   V4    S    
C26   H14   S    
C11   C12   A    
O13   C34   A    
O18   C33   A    
O1    V2    S    
O7    V1    S    
C24   C32   S    
C8    H4    S    
O11   C32   A    
O9    C4    A    
C21   H10   S    
C24   O23   S    
C36   H20   S    
C31   O16   A    
C37   O25   S    
C23   H12   S    
V4    O20   S    
C11   C33   S    
C12   C13   A    
O19   V4    S    
C7    H3    S    
O4    C2    A    
O22   H18   S    
O23   C36   S    
C15   H5    S    
C13   C14   A    
O15   C33   A    
C4    C14   S    
O13   V3    S    
C1    C26   S    
O14   C32   A    
O2    C1    A    
C17   C18   A    
C5    C6    A    
O16   V4    S    
O14   V3    S    
C35   O21   D    
C22   H11   S    
C16   H6    S    
O3    C4    A    
O6    V2    S    
O9    V2    S    
C5    H1    S    
C6    H2    S    
C21   C22   D    
O2    V1    S    
C36   H21   S    
C27   C29   S    
O12   V3    S    
C13   C18   A    
C23   C24   D    
O1    C2    A    
O19   C34   A    
O5    V1    S    
O8    C3    A    
C27   C28   D    
C5    C10   A    
C3    C20   S    
C9    C11   A    
O7    V2    S    
O4    V1    S    
O3    V1    S    
V1    O10   S    
C19   H8    S    
O15   V3    S    
O11   V4    S    
C29   H16   S    
V3    O20   S    
C8    C9    A    
C18   H7    S    
C25   C26   D    
C10   C14   A    
C15   C16   A    
C27   C37   S    
C9    C10   A    
C2    C30   S    
