data_mof_unit_61062.cif
_audit_creation_date              2012-12-10T18:55:23-0500
_audit_creation_method            fapswitch 2.2
_symmetry_space_group_name_H-M    P1
_symmetry_Int_Tables_number       1
_space_group_crystal_system       triclinic
_cell_length_a                    19.444913
_cell_length_b                    18.138548
_cell_length_c                    17.832011
_cell_angle_alpha                 91.808906
_cell_angle_beta                  91.459241
_cell_angle_gamma                 90.323754
_cell_volume                      6284.09063352

loop_
_atom_site_label
_atom_site_type_symbol
_atom_type_description
_atom_site_fract_x
_atom_site_fract_y
_atom_site_fract_z
_atom_type_partial_charge
C1    C     C_R   0.367759 0.499815 0.500905 0.761542
C2    C     C_R   0.632244 0.500171 0.498497 0.839757
C3    C     C_R   0.851974 0.497897 0.498190 -0.028616
C4    C     C_R   0.147750 0.496501 0.503493 -0.076397
C5    C     C_R   0.707586 0.500692 0.495587 -0.185901
C6    C     C_R   0.292337 0.499036 0.502050 -0.245063
C7    C     C_R   0.964478 0.499156 0.568435 -0.171402
C8    C     C_R   0.034933 0.493999 0.433699 -0.171364
C9    C     C_R   0.036142 0.498934 0.569796 -0.178953
C10   C     C_R   0.963332 0.493894 0.432367 -0.183023
C11   C     C_R   0.071943 0.496443 0.502413 0.143461
C12   C     C_R   0.927620 0.496627 0.499702 0.143193
C13   C     C_R   0.444299 0.719905 0.471747 0.102436
C14   C     C_R   0.555950 0.279986 0.527518 0.100656
C15   C     C_R   0.556511 0.722351 0.525767 0.123909
C16   C     C_R   0.442971 0.277771 0.475490 0.122048
C17   C     C_R   0.443358 0.797217 0.470714 -0.288374
C18   C     C_R   0.556646 0.202688 0.528926 -0.287919
C19   C     C_R   0.558032 0.799669 0.524766 -0.303226
C20   C     C_R   0.441261 0.200470 0.476794 -0.298568
C21   C     C_R   0.500594 0.838553 0.498009 0.097368
C22   C     C_R   0.498949 0.161502 0.502726 0.095248
C23   C     C_R   0.531780 0.962680 0.558856 -0.173989
C24   C     C_R   0.467567 0.037437 0.442021 -0.174093
C25   C     C_R   0.468166 0.959995 0.440669 -0.180138
C26   C     C_R   0.531236 0.040124 0.560166 -0.179909
C27   C     C_R   0.499109 0.078739 0.501779 0.120831
C28   C     C_R   0.500288 0.921351 0.499062 0.120937
C29   C     C_R   0.501825 0.498755 0.355220 0.811113
C30   C     C_R   0.498607 0.501198 0.644745 0.832904
C31   C     C_R   0.522011 0.562122 0.851565 0.371837
C32   C     C_R   0.481443 0.436564 0.148424 0.311978
C33   C     C_R   0.537468 0.557305 0.155648 0.329118
C34   C     C_R   0.467529 0.440074 0.843492 0.323224
C35   C     C_R   0.520909 0.564640 0.772197 -0.136625
C36   C     C_R   0.481442 0.434611 0.227693 -0.123082
C37   C     C_R   0.538473 0.556140 0.235167 -0.132927
C38   C     C_R   0.465130 0.442784 0.764862 -0.068707
C39   C     C_R   0.494555 0.503461 0.728159 -0.245035
C40   C     C_R   0.507362 0.496114 0.271792 -0.204484
C41   C     C_R   0.497220 0.499544 0.886098 -0.062404
C42   C     C_R   0.507002 0.498632 0.114081 0.011401
C43   C     C_1   0.500988 0.499234 0.966538 0.060345
C44   C     C_1   0.504268 0.499820 0.033734 0.167400
C45   C     C_R   0.742700 0.450410 0.447624 0.324147
C46   C     C_R   0.256822 0.544508 0.554473 0.360341
C47   C     C_R   0.254259 0.451875 0.451022 0.360288
C48   C     C_R   0.745303 0.550882 0.542794 0.365632
C49   C     C_R   0.814376 0.448919 0.450568 -0.158150
C50   C     C_R   0.185078 0.543722 0.553247 -0.159641
C51   C     C_R   0.182847 0.449955 0.453773 -0.168441
C52   C     C_R   0.817391 0.549008 0.543597 -0.277341
Cu1   Cu    Cu3+1 0.500000 0.573360 0.500000 0.971254
Cu2   Cu    Cu3+1 0.500000 0.426640 0.500000 0.952663
H1    H     H_    0.840878 0.409491 0.414871 0.164995
H2    H     H_    0.158398 0.580113 0.591925 0.165541
H3    H     H_    0.154546 0.412682 0.415457 0.163264
H4    H     H_    0.846633 0.587667 0.579530 0.137760
H5    H     H_    0.937779 0.500484 0.621030 0.136585
H6    H     H_    0.061394 0.493312 0.380973 0.135797
H7    H     H_    0.063555 0.499810 0.623452 0.135434
H8    H     H_    0.935826 0.493030 0.378752 0.135876
H9    H     H_    0.400116 0.689145 0.449731 0.132412
H10   H     H_    0.600511 0.310624 0.548700 0.135728
H11   H     H_    0.600906 0.693570 0.547283 0.173327
H12   H     H_    0.398355 0.306596 0.454523 0.157425
H13   H     H_    0.397695 0.824308 0.449587 0.134880
H14   H     H_    0.602470 0.175462 0.549445 0.135482
H15   H     H_    0.604119 0.828692 0.544507 0.128467
H16   H     H_    0.394904 0.171505 0.457785 0.130482
H17   H     H_    0.555938 0.935133 0.605532 0.123085
H18   H     H_    0.443381 0.065027 0.395383 0.123276
H19   H     H_    0.444364 0.930370 0.393070 0.126916
H20   H     H_    0.555105 0.069797 0.607701 0.127031
N1    N     N_R   0.500000 0.683620 0.500000 -0.175002
N2    N     N_R   0.500000 0.316380 0.500000 -0.174717
O1    O     O_R   0.400190 0.561980 0.499990 -0.585593
O2    O     O_R   0.599810 0.438020 0.500010 -0.598626
O3    O     O_R   0.599810 0.561980 0.500010 -0.545970
O4    O     O_R   0.400190 0.438020 0.499990 -0.579663
O5    O     O_R   0.500000 0.561980 0.391260 -0.568816
O6    O     O_R   0.500000 0.438020 0.608740 -0.578040
O7    O     O_R   0.500000 0.561980 0.608740 -0.564940
O8    O     O_R   0.500000 0.438020 0.391260 -0.579980
O9    O     O_3   0.547386 0.619355 0.898132 -0.700704
H21   H     H_    0.555448 0.664378 0.869892 0.336414
O10   O     O_3   0.456351 0.379261 0.101847 -0.744845
H22   H     H_    0.451903 0.333297 0.129582 0.343857
O11   O     O_3   0.566251 0.613801 0.116020 -0.703301
H23   H     H_    0.594190 0.647004 0.149656 0.335496
O12   O     O_3   0.438906 0.379025 0.876049 -0.721280
H24   H     H_    0.443339 0.383163 0.931348 0.353368
C53   C     C_R   0.547361 0.631924 0.737693 0.124872
C54   C     C_R   0.502139 0.690139 0.723035 -0.110634
C55   C     C_R   0.527997 0.759275 0.705143 -0.136139
C56   C     C_R   0.599005 0.770664 0.701916 -0.149491
C57   C     C_R   0.644169 0.712528 0.714888 -0.127604
C58   C     C_R   0.618535 0.643232 0.732736 -0.085553
H25   H     H_    0.447184 0.682614 0.728221 0.140926
H26   H     H_    0.493082 0.804278 0.694670 0.142359
H27   H     H_    0.619009 0.824455 0.688968 0.124407
H28   H     H_    0.699103 0.721629 0.712594 0.127166
H29   H     H_    0.654042 0.599363 0.745702 0.141964
C59   C     C_R   0.453673 0.367741 0.261825 0.121436
C60   C     C_R   0.382350 0.355596 0.261937 -0.140006
C61   C     C_R   0.356129 0.286939 0.280978 -0.097524
C62   C     C_R   0.400946 0.229710 0.298567 -0.156603
C63   C     C_R   0.472072 0.241515 0.298828 -0.137992
C64   C     C_R   0.498467 0.310353 0.280688 -0.101494
H30   H     H_    0.347291 0.398542 0.245000 0.149181
H31   H     H_    0.301091 0.277674 0.280668 0.157252
H32   H     H_    0.380578 0.176284 0.312261 0.125593
H33   H     H_    0.506709 0.197162 0.312633 0.143079
H34   H     H_    0.553642 0.318272 0.278766 0.139333
C65   C     C_R   0.574883 0.615698 0.279577 0.135803
C66   C     C_R   0.637621 0.601023 0.316795 -0.136311
C67   C     C_R   0.671563 0.656675 0.359557 -0.112099
C68   C     C_R   0.643269 0.727242 0.365134 -0.108497
C69   C     C_R   0.580730 0.742161 0.328417 -0.126545
C70   C     C_R   0.546460 0.686588 0.285819 -0.125255
H35   H     H_    0.659938 0.546516 0.312877 0.115809
H36   H     H_    0.719717 0.645044 0.388480 0.133491
H37   H     H_    0.669538 0.770239 0.398371 0.125340
H38   H     H_    0.558637 0.796687 0.333333 0.135440
H39   H     H_    0.497836 0.698527 0.257961 0.133184
C71   C     C_R   0.427530 0.382937 0.722058 0.217324
C72   C     C_R   0.454213 0.311148 0.718327 -0.058298
C73   C     C_R   0.419279 0.255461 0.676540 -0.140848
C74   C     C_R   0.357571 0.271037 0.638477 -0.111579
C75   C     C_R   0.330750 0.342357 0.641939 -0.113038
C76   C     C_R   0.365445 0.398156 0.683744 -0.132298
H40   H     H_    0.502280 0.298658 0.747066 0.127864
H41   H     H_    0.440239 0.200327 0.673278 0.135439
H42   H     H_    0.330787 0.227940 0.605888 0.130266
H43   H     H_    0.283197 0.354480 0.612059 0.137001
H44   H     H_    0.344265 0.453225 0.686000 0.115035
O13   O     O_3   0.709599 0.402816 0.396402 -0.726231
H45   H     H_    0.663270 0.422026 0.384230 0.317451
O14   O     O_3   0.289427 0.589755 0.608286 -0.728439
H46   H     H_    0.337261 0.573166 0.616654 0.321083
O15   O     O_3   0.284211 0.407903 0.396589 -0.749712
H47   H     H_    0.329481 0.429001 0.384786 0.322699
O16   O     O_3   0.710791 0.600035 0.588807 -0.749509
H48   H     H_    0.744798 0.631224 0.617700 0.308219

loop_
_geom_bond_atom_site_label_1
_geom_bond_atom_site_label_2
_ccdc_geom_bond_type
C15   N1    A    
O10   H22   S    
C53   C54   A    
C31   O9    S    
C55   C56   A    
C1    O1    A    
C62   H32   S    
C14   C18   A    
Cu1   O1    S    
C75   H43   S    
C24   C27   A    
C60   H30   S    
C73   C74   A    
Cu2   O8    S    
C57   C58   A    
C3    C49   A    
C10   H8    S    
C69   H38   S    
C66   C67   A    
C25   C28   A    
C15   C19   A    
C26   C27   A    
C71   C72   A    
C9    H7    S    
C33   C42   A    
C32   C36   A    
Cu1   O3    S    
C37   C40   A    
O9    H21   S    
C59   C64   A    
C3    C52   A    
C61   C62   A    
C18   H14   S    
C58   H29   S    
C15   H11   S    
C63   C64   A    
Cu1   O5    S    
C23   C26   A    
C30   O7    A    
C34   O12   S    
C2    O3    A    
C68   C69   A    
O15   H47   S    
C13   N1    A    
C62   C63   A    
C51   H3    S    
C6    C46   A    
C57   H28   S    
C3    C12   S    
C16   N2    A    
C56   H27   S    
C41   C43   S    
C20   H16   S    
Cu1   N1    S    
C34   C41   A    
C42   C44   S    
C7    H5    S    
C59   C60   A    
C38   C71   S    
Cu2   O4    S    
C61   H31   S    
C35   C53   S    
C7    C12   A    
C52   H4    S    
C5    C48   A    
C17   H13   S    
C6    C47   A    
C4    C51   A    
C1    C6    S    
C23   H17   S    
C36   C40   A    
C24   C25   A    
C29   O8    A    
C76   H44   S    
C66   H35   S    
O12   H24   S    
C55   H26   S    
C47   C51   A    
C49   H1    S    
C32   O10   S    
C5    C45   A    
C33   C37   A    
C48   O16   S    
C4    C50   A    
C14   N2    A    
C63   H33   S    
C30   O6    A    
C35   C39   A    
C67   H36   S    
C29   O5    A    
C2    O2    A    
C33   O11   S    
C9    C11   A    
C13   H9    S    
C45   C49   A    
C16   C20   A    
C14   H10   S    
C56   C57   A    
C45   O13   S    
C23   C28   A    
C4    C11   S    
C72   H40   S    
C10   C12   A    
C64   H34   S    
Cu2   N2    S    
C21   C28   S    
C20   C22   A    
C65   C70   A    
C22   C27   S    
C43   C44   T    
C31   C35   A    
C19   H15   S    
C2    C5    S    
C16   H12   S    
C72   C73   A    
Cu2   O6    S    
C24   H18   S    
C74   C75   A    
C60   C61   A    
C7    C9    A    
C46   C50   A    
C31   C41   A    
C19   C21   A    
C34   C38   A    
O14   H46   S    
Cu1   Cu2   S    
C37   C65   S    
O13   H45   S    
C47   O15   S    
C13   C17   A    
C36   C59   S    
C54   H25   S    
C18   C22   A    
C75   C76   A    
C73   H41   S    
C8    H6    S    
C65   C66   A    
C38   C39   A    
C71   C76   A    
C8    C11   A    
Cu1   O7    S    
C29   C40   S    
C26   H20   S    
C30   C39   S    
C25   H19   S    
C68   H37   S    
C70   H39   S    
C54   C55   A    
C50   H2    S    
C74   H42   S    
C48   C52   A    
C8    C10   A    
C69   C70   A    
C1    O4    A    
C32   C42   A    
O11   H23   S    
C67   C68   A    
C53   C58   A    
O16   H48   S    
C46   O14   S    
Cu2   O2    S    
C17   C21   A    
