data_mof_unit_53540.cif
_audit_creation_date              2012-10-26T21:20:13-0400
_audit_creation_method            fapswitch 2.2
_symmetry_space_group_name_H-M    P1
_symmetry_Int_Tables_number       1
_space_group_crystal_system       triclinic
_cell_length_a                    12.956422
_cell_length_b                    10.870002
_cell_length_c                    9.499925
_cell_angle_alpha                 90.791088
_cell_angle_beta                  96.865703
_cell_angle_gamma                 90.123602
_cell_volume                      1328.20399299

loop_
_atom_site_label
_atom_site_type_symbol
_atom_type_description
_atom_site_fract_x
_atom_site_fract_y
_atom_site_fract_z
_atom_type_partial_charge
C1    C     C_R   0.500008 0.262058 0.498650 0.565319
C2    C     C_R   0.699649 0.500486 0.527280 0.545905
C3    C     C_R   0.812584 0.504605 0.544334 -0.038720
C4    C     C_R   0.187415 0.495397 0.455664 -0.038724
C5    C     C_R   0.024571 0.423325 0.328607 0.137317
C6    C     C_R   0.975427 0.576692 0.671376 0.137304
C7    C     C_R   0.132505 0.436167 0.338179 -0.126768
C8    C     C_R   0.867494 0.563847 0.661810 -0.126771
C9    C     C_R   0.135183 0.545156 0.562895 -0.134865
C10   C     C_R   0.864816 0.454843 0.437105 -0.134874
C11   C     C_R   0.027990 0.530773 0.559251 0.040560
C12   C     C_R   0.499993 0.737942 0.501350 0.565321
C13   C     C_R   0.972008 0.469234 0.440741 0.040548
C14   C     C_R   0.480187 0.059560 0.368641 0.114722
C15   C     C_R   0.519819 0.940440 0.631359 0.114722
C16   C     C_R   0.478759 0.932128 0.374180 -0.163748
C17   C     C_R   0.521244 0.067872 0.625820 -0.163750
C18   C     C_3   0.904873 0.430583 0.108577 -0.323065
C19   C     C_3   0.095085 0.569480 0.891432 -0.323102
C20   C     C_3   0.546983 0.125370 0.156025 -0.288133
C21   C     C_3   0.453049 0.874643 0.844000 -0.288141
C22   C     C_R   0.499196 0.871781 0.503698 0.013803
C23   C     C_R   0.500807 0.128219 0.496302 0.013802
C24   C     C_R   0.429739 0.430576 0.061980 0.006096
C25   C     C_R   0.570261 0.569424 0.938020 0.006096
C26   C     C_R   0.429849 0.430479 0.913057 -0.001438
C27   C     C_R   0.570151 0.569520 0.086944 -0.001440
C28   C     C_R   0.300351 0.499514 0.472720 0.545909
Cu1   Cu    Cu3+1 0.500000 0.500020 0.640660 0.933040
Cu2   Cu    Cu3+1 0.500000 0.499980 0.359340 0.933037
H1    H     H_    0.820503 0.405557 0.350341 0.158460
H2    H     H_    0.626129 0.625516 0.153085 0.110737
H3    H     H_    0.014472 0.293451 0.163497 0.245841
H4    H     H_    0.933020 0.424488 0.002837 0.139857
H5    H     H_    0.902662 0.529117 0.141330 0.147028
H6    H     H_    0.824603 0.392890 0.097759 0.150265
H7    H     H_    0.985533 0.706616 0.836409 0.245871
H8    H     H_    0.066913 0.575617 0.997145 0.139871
H9    H     H_    0.175361 0.607157 0.902273 0.150276
H10   H     H_    0.097288 0.470940 0.858721 0.147048
H11   H     H_    0.394338 0.079761 0.173474 0.232447
H12   H     H_    0.179496 0.594433 0.649668 0.158473
H13   H     H_    0.573222 0.031930 0.127583 0.119259
H14   H     H_    0.612039 0.175162 0.219552 0.174785
H15   H     H_    0.524987 0.176772 0.056814 0.132135
H16   H     H_    0.605692 0.920234 0.826508 0.232446
H17   H     H_    0.426812 0.968085 0.872430 0.119263
H18   H     H_    0.475059 0.823260 0.943222 0.132117
H19   H     H_    0.387989 0.824837 0.780500 0.174793
H20   H     H_    0.826232 0.602390 0.744772 0.114685
H21   H     H_    0.173766 0.397632 0.255211 0.114682
H22   H     H_    0.461914 0.880454 0.275647 0.130859
H23   H     H_    0.538090 0.119546 0.724352 0.130861
H24   H     H_    0.373721 0.374736 0.108264 0.118062
H25   H     H_    0.626279 0.625264 0.891736 0.118063
H26   H     H_    0.373871 0.374484 0.846915 0.110740
N1    N     N_R   0.500030 0.500030 0.852080 -0.224055
N2    N     N_R   0.499970 0.499970 0.147920 -0.224055
N3    N     N_2   0.970858 0.358256 0.210161 -0.531818
N4    N     N_2   0.029138 0.641784 0.789800 -0.531865
N5    N     N_2   0.458257 0.117008 0.234672 -0.495922
N6    N     N_2   0.541763 0.882992 0.765325 -0.495918
O1    O     O_R   0.499990 0.319660 0.618740 -0.519922
O2    O     O_R   0.500010 0.680340 0.381260 -0.519922
O3    O     O_R   0.499990 0.319630 0.381170 -0.464523
O4    O     O_R   0.500010 0.680370 0.618830 -0.464522
O5    O     O_R   0.349000 0.499990 0.599490 -0.513257
O6    O     O_R   0.651000 0.500010 0.400510 -0.513259
O7    O     O_R   0.348990 0.499960 0.361920 -0.504924
O8    O     O_R   0.651010 0.500040 0.638080 -0.504925

loop_
_geom_bond_atom_site_label_1
_geom_bond_atom_site_label_2
_ccdc_geom_bond_type
C14   C23   A    
C1    O3    A    
Cu1   O1    S    
Cu1   Cu2   S    
C19   H8    S    
Cu2   O2    S    
C19   N4    S    
C25   C27   A    
C11   C13   A    
C18   H5    S    
C5    C13   A    
C28   O7    A    
H11   N5    S    
C4    C9    A    
C21   H18   S    
Cu2   O7    S    
C20   H13   S    
C21   H19   S    
C2    C3    S    
C9    H12   S    
C7    H21   S    
H3    N3    S    
C3    C10   A    
Cu1   O5    S    
C25   H25   S    
C9    C11   A    
C6    N4    S    
C18   H6    S    
C21   N6    S    
C17   C23   A    
C25   N1    A    
H16   N6    S    
C4    C7    A    
C6    C8    A    
Cu2   N2    S    
C24   N2    A    
C20   H14   S    
C15   N6    S    
Cu1   N1    S    
C1    C23   S    
C8    H20   S    
C2    O6    A    
C18   H4    S    
C12   O2    A    
C26   N1    A    
C14   C16   A    
C3    C8    A    
Cu2   O3    S    
C19   H10   S    
C5    N3    S    
C24   H24   S    
Cu1   O4    S    
H7    N4    S    
C17   H23   S    
C18   N3    S    
C6    C11   A    
C28   O5    A    
C12   C22   S    
C19   H9    S    
Cu1   O8    S    
C20   H15   S    
C20   N5    S    
C15   C17   A    
C5    C7    A    
C1    O1    A    
C16   C22   A    
C4    C28   S    
C27   H2    S    
C2    O8    A    
C14   N5    S    
C12   O4    A    
C10   H1    S    
C10   C13   A    
C15   C22   A    
Cu2   O6    S    
C16   H22   S    
C24   C26   A    
C21   H17   S    
C27   N2    A    
C26   H26   S    
