data_mof_unit_30534.cif
_audit_creation_date              2013-03-05T15:44:35-0500
_audit_creation_method            fapswitch 2.2
_symmetry_space_group_name_H-M    P1
_symmetry_Int_Tables_number       1
_space_group_crystal_system       triclinic
_cell_length_a                    27.754707
_cell_length_b                    10.904827
_cell_length_c                    9.702008
_cell_angle_alpha                 91.205949
_cell_angle_beta                  90.739841
_cell_angle_gamma                 90.400433
_cell_volume                      2935.43986753

loop_
_atom_site_label
_atom_site_type_symbol
_atom_site_description
_atom_site_fract_x
_atom_site_fract_y
_atom_site_fract_z
_atom_type_partial_charge
O1    O     O_R   0.500010 0.321960 0.617040 -0.601401
O2    O     O_R   0.499990 0.321920 0.382900 -0.576906
C1    C     C_R   0.500806 0.265175 0.498228 0.841187
O3    O     O_R   0.430270 0.500040 0.617060 -0.579826
O4    O     O_R   0.430260 0.500000 0.382910 -0.532200
C2    C     C_R   0.407561 0.497710 0.499120 0.852975
Cu1   Cu    Cu3+1 0.500010 0.500020 0.638630 0.968686
Cu2   Cu    Cu3+1 0.499990 0.499980 0.361370 0.955947
O5    O     O_R   0.500010 0.678080 0.617100 -0.569010
O6    O     O_R   0.499990 0.678040 0.382960 -0.569669
O7    O     O_R   0.569740 0.500000 0.617090 -0.601417
O8    O     O_R   0.569730 0.499960 0.382940 -0.588175
C3    C     C_R   0.501506 0.734724 0.501459 0.851647
C4    C     C_R   0.592513 0.499408 0.500465 0.815246
C5    C     C_R   0.178434 0.371827 0.513186 0.561416
O9    O     O_2   0.204071 0.269637 0.537518 -0.552589
N1    N     N_R   0.201799 0.480271 0.490259 -0.430423
C6    C     C_R   0.176774 0.585537 0.466165 0.603785
C7    C     C_R   0.278074 0.549250 0.600155 0.508979
C8    C     C_R   0.328795 0.550808 0.602047 -0.412707
C9    C     C_R   0.329727 0.424351 0.392618 0.416028
C10   C     C_R   0.279350 0.423178 0.390319 -0.277058
C11   C     C_R   0.253551 0.484204 0.493722 0.229962
C12   C     C_R   0.101428 0.474311 0.489951 -0.050653
C13   C     C_R   0.127860 0.366681 0.512899 -0.012903
C14   C     C_R   0.103366 0.256615 0.535289 -0.147792
C15   C     C_R   0.126195 0.584876 0.467650 -0.079982
C16   C     C_R   0.354658 0.491757 0.496931 -0.183028
H1    H     H_    0.260170 0.373091 0.308848 0.179232
H2    H     H_    0.122821 0.172122 0.550840 0.182766
C17   C     C_R   0.645442 0.489718 0.498540 -0.076726
C18   C     C_R   0.974641 0.359693 0.525545 -0.002747
C19   C     C_R   0.973753 0.568294 0.435555 0.054651
C20   C     C_R   0.948779 0.461850 0.478068 0.069935
C21   C     C_R   0.948601 0.259976 0.577957 -0.195641
C22   C     C_R   0.898115 0.257131 0.579358 0.170621
C23   C     C_R   0.871780 0.357294 0.525423 -0.049231
C24   C     C_R   0.897636 0.457807 0.471581 -0.082951
C25   C     C_R   0.872434 0.555305 0.410938 -0.014403
C26   C     C_R   0.822072 0.554470 0.409796 0.557947
N2    N     N_R   0.797425 0.460952 0.468716 -0.438235
C27   C     C_R   0.820652 0.363193 0.524773 0.585955
C28   C     C_R   0.716025 0.392470 0.395913 0.507873
C29   C     C_R   0.665787 0.405889 0.404299 -0.388718
C30   C     C_R   0.675984 0.564635 0.582804 0.147730
C31   C     C_R   0.725977 0.553488 0.570974 -0.186651
C32   C     C_R   0.745942 0.468969 0.478000 0.253152
O10   O     O_2   0.794000 0.274226 0.581558 -0.562015
C33   C     C_R   0.025770 0.360226 0.518269 0.065235
C34   C     C_R   0.050334 0.471307 0.489219 0.036268
C35   C     C_R   0.024193 0.579435 0.460255 0.021748
C36   C     C_R   0.053312 0.253172 0.537861 -0.207503
H3    H     H_    0.642398 0.351080 0.336985 0.153873
H4    H     H_    0.967139 0.184098 0.623682 0.141134
H5    H     H_    0.037126 0.164094 0.551142 0.137622
O11   O     O_2   0.200797 0.690461 0.440444 -0.558128
C37   C     C_R   0.100264 0.693404 0.454226 -0.158166
H6    H     H_    0.348173 0.597841 0.685254 0.181540
H7    H     H_    0.119280 0.780287 0.447876 0.189341
C38   C     C_R   0.947845 0.656478 0.361648 -0.216187
C39   C     C_R   0.897983 0.651258 0.351458 -0.152864
O12   O     O_2   0.797721 0.647270 0.351626 -0.545807
C40   C     C_R   0.049915 0.693436 0.458247 0.171168
H8    H     H_    0.965839 0.729048 0.308090 0.167202
H9    H     H_    0.879524 0.723552 0.297536 0.184153
H10   H     H_    0.749902 0.610703 0.634243 0.159299
C41   C     C_2   0.511721 0.929570 0.389950 -0.158115
C42   C     C_2   0.506882 0.866726 0.506078 -0.373422
H11   H     H_    0.512470 0.881554 0.290685 0.181100
H12   H     H_    0.509392 0.910936 0.607129 0.154078
C43   C     C_2   0.517872 0.063289 0.390286 0.196963
C44   C     C_2   0.499257 0.132380 0.493830 -0.320401
H13   H     H_    0.480467 0.090934 0.578508 0.118925
C45   C     C_2   0.475071 0.422685 0.920423 0.080380
N3    N     N_2   0.499480 0.498660 0.846910 -0.012761
H14   H     H_    0.457867 0.344136 0.869539 0.084570
C46   C     C_2   0.469047 0.438110 0.074711 -0.034589
N4    N     N_2   0.499460 0.498630 0.153040 -0.266365
H15   H     H_    0.438743 0.392852 0.121695 0.173512
H16   H     H_    0.531851 0.521310 0.110674 0.230240
O13   O     O_3   0.354520 0.358702 0.293111 -0.570153
C47   C     C_3   0.357852 0.235684 0.335099 0.079266
H17   H     H_    0.321490 0.191829 0.336330 0.164042
H18   H     H_    0.374937 0.229827 0.439470 0.126099
C48   C     C_3   0.388823 0.163694 0.234097 -0.791245
H19   H     H_    0.426179 0.200555 0.236368 0.246172
H20   H     H_    0.389841 0.065809 0.263315 0.211871
H21   H     H_    0.373691 0.170005 0.127953 0.248137
O14   O     O_3   0.251348 0.601422 0.705967 -0.566776
C49   C     C_3   0.265564 0.724453 0.732830 0.084022
H22   H     H_    0.274487 0.773744 0.636658 0.164382
H23   H     H_    0.297165 0.727498 0.804414 0.144606
C50   C     C_3   0.224303 0.792018 0.801846 -0.718939
H24   H     H_    0.215009 0.747286 0.899909 0.251067
H25   H     H_    0.235039 0.888709 0.824555 0.201082
H26   H     H_    0.192112 0.790904 0.732553 0.256892
C51   C     C_3   0.656491 0.658425 0.682539 -0.851021
H27   H     H_    0.685228 0.721037 0.723648 0.234641
H28   H     H_    0.628834 0.715364 0.631140 0.217096
H29   H     H_    0.640904 0.610196 0.770778 0.226166
C52   C     C_3   0.026784 0.817063 0.482634 -0.900897
H30   H     H_    0.048915 0.873052 0.557017 0.231877
H31   H     H_    0.024428 0.867567 0.384647 0.232543
H32   H     H_    0.990813 0.808971 0.530166 0.246219
C53   C     C_3   0.544731 0.116991 0.270702 -0.812665
H33   H     H_    0.561993 0.043944 0.207323 0.212976
H34   H     H_    0.519545 0.166667 0.202241 0.237413
H35   H     H_    0.573773 0.179823 0.309393 0.220027
O15   O     O_3   0.503805 0.612020 0.904919 -0.476423
C54   C     C_3   0.552251 0.649660 0.893994 0.189986
H36   H     H_    0.560303 0.677154 0.788048 0.188051
H37   H     H_    0.577453 0.575659 0.924671 0.103907
C55   C     C_3   0.561334 0.761018 0.988281 -0.882307
H38   H     H_    0.554528 0.737719 0.097195 0.254210
H39   H     H_    0.599348 0.791981 0.979323 0.214136
H40   H     H_    0.537214 0.837136 0.958428 0.254503
O16   O     O_3   0.737061 0.312912 0.301167 -0.566469
C56   C     C_3   0.718529 0.192605 0.313798 0.074553
H41   H     H_    0.684296 0.182248 0.253781 0.136901
H42   H     H_    0.712200 0.168540 0.423405 0.163358
C57   C     C_3   0.754690 0.101914 0.255231 -0.720850
H43   H     H_    0.789293 0.109697 0.313723 0.254875
H44   H     H_    0.740465 0.006944 0.263471 0.206326
H45   H     H_    0.761237 0.121033 0.145021 0.247850
C58   C     C_3   0.874350 0.144582 0.637618 -0.752945
H46   H     H_    0.900980 0.075036 0.670323 0.197935
H47   H     H_    0.853314 0.170371 0.730209 0.259874
H48   H     H_    0.850772 0.099492 0.558017 0.250927

loop_
_geom_bond_atom_site_label_1
_geom_bond_atom_site_label_2
_geom_bond_distance
_ccdc_geom_bond_type
C50   H24   1.110741 S    
C10   H1    1.083223 S    
N2    C27   1.368488 A    
C21   C22   1.401604 A    
C12   C15   1.405796 A    
C4    C17   1.473897 S    
C40   C52   1.512673 S    
O13   C47   1.413450 S    
Cu1   Cu2   2.689963 S    
C46   N4    1.296188 D    
Cu1   O7    1.949265 S    
C53   H34   1.109813 S    
N1    C11   1.436643 S    
C45   H14   1.084348 S    
C22   C23   1.423524 A    
C31   H10   1.083788 S    
C48   H19   1.109156 S    
O4    C2    1.299249 A    
O7    C4    1.303086 A    
N4    H16   1.024225 S    
C5    C13   1.404374 A    
C5    O9    1.349695 S    
C51   H27   1.110896 S    
C26   O12   1.350221 S    
N1    C6    1.368577 A    
C23   C27   1.420904 A    
O5    C3    1.293082 A    
C56   H41   1.111750 S    
C57   H45   1.110706 S    
C54   H36   1.101978 S    
C29   H3    1.082736 S    
C2    C16   1.469143 S    
C22   C58   1.512747 S    
C45   C46   1.514341 S    
C58   H48   1.110366 S    
C36   H5    1.078270 S    
C6    O11   1.349680 S    
C55   H40   1.110814 S    
C46   H15   1.082742 S    
C52   H31   1.110095 S    
O1    Cu1   1.948591 S    
C9    C10   1.398065 A    
C21   H4    1.077811 S    
Cu2   N4    2.020826 S    
O3    Cu1   1.944210 S    
C51   H28   1.110508 S    
C37   C40   1.398475 A    
C56   H42   1.116453 S    
C48   H20   1.110630 S    
C12   C34   1.418157 A    
C50   H25   1.110508 S    
C25   C39   1.398674 A    
C53   H35   1.110744 S    
N3    O15   1.351357 S    
C17   C29   1.405656 A    
C41   C42   1.338727 D    
C52   H30   1.111597 S    
C35   C40   1.429848 A    
C12   C13   1.408588 A    
O3    C2    1.298907 A    
C15   C37   1.396985 A    
C25   C26   1.397645 A    
Cu1   N3    2.021342 S    
C8    C16   1.402748 A    
C34   C35   1.419975 A    
C13   C14   1.397608 A    
C30   C31   1.399688 A    
C47   H17   1.114091 S    
C38   C39   1.386852 A    
O1    C1    1.297493 A    
C56   C57   1.520911 S    
C18   C20   1.411617 A    
C7    C11   1.406032 A    
C28   C29   1.406249 A    
C18   C21   1.408944 A    
C23   C24   1.418468 A    
C7    O14   1.388798 S    
C14   C36   1.390040 A    
C49   H23   1.111557 S    
Cu2   O8    1.944204 S    
C33   C36   1.414695 A    
C19   C20   1.419225 A    
N2    C32   1.436063 S    
C27   O10   1.347187 S    
C54   C55   1.522488 S    
C57   H43   1.111035 S    
C28   O16   1.387761 S    
Cu2   O6    1.948591 S    
C26   N2    1.363665 A    
C9    C16   1.409543 A    
C9    O13   1.383107 S    
C14   H2    1.083499 S    
C19   C38   1.407603 A    
C47   H18   1.115822 S    
C43   C53   1.513122 S    
C58   H46   1.110867 S    
C19   C35   1.421184 A    
C8    H6    1.082354 S    
C51   H29   1.105445 S    
C49   C50   1.521027 S    
C55   H38   1.110224 S    
C48   H21   1.110783 S    
Cu1   O5    1.957284 S    
C31   C32   1.398294 A    
C20   C24   1.420374 A    
O2    Cu2   1.957284 S    
C6    C15   1.404024 A    
O8    C4    1.296815 A    
C44   H13   1.083789 S    
O6    C3    1.293860 A    
O4    Cu2   1.949268 S    
C5    N1    1.368409 A    
C50   H26   1.111013 S    
C47   C48   1.521250 S    
C53   H33   1.111081 S    
C38   H8    1.078968 S    
C7    C8    1.407619 A    
O2    C1    1.289992 A    
C43   C44   1.353048 D    
C30   C51   1.501545 S    
O16   C56   1.414103 S    
C49   H22   1.116274 S    
C24   C25   1.411358 A    
C1    C44   1.448153 S    
C41   C43   1.466898 S    
C54   H37   1.114298 S    
C18   C33   1.421716 A    
C57   H44   1.110564 S    
C37   H7    1.084578 S    
C39   H9    1.083387 S    
C45   N3    1.297527 D    
C42   H12   1.084580 S    
C33   C34   1.421030 A    
C17   C30   1.413734 A    
C58   H47   1.110017 S    
C10   C11   1.399684 A    
C52   H32   1.108841 S    
C41   H11   1.086986 S    
O14   C49   1.413795 S    
O15   C54   1.409073 S    
C28   C32   1.401741 A    
C55   H39   1.110582 S    
C3    C42   1.445836 S    
