data_mof_unit_13575.cif
_audit_creation_date              2012-12-10T17:38:16-0500
_audit_creation_method            fapswitch 2.2
_symmetry_space_group_name_H-M    P1
_symmetry_Int_Tables_number       1
_space_group_crystal_system       triclinic
_cell_length_a                    12.012289
_cell_length_b                    12.880141
_cell_length_c                    19.214666
_cell_angle_alpha                 90.817699
_cell_angle_beta                  86.289807
_cell_angle_gamma                 94.974676
_cell_volume                      2955.37466342

loop_
_atom_site_label
_atom_site_type_symbol
_atom_type_description
_atom_site_fract_x
_atom_site_fract_y
_atom_site_fract_z
_atom_type_partial_charge
Br1   Br    Br    0.232215 0.195799 0.571620 -0.518802
Br2   Br    Br    0.770211 0.805967 0.433539 -0.515149
Br3   Br    Br    0.202987 0.352968 0.412034 -0.511498
Br4   Br    Br    0.797032 0.646043 0.588637 -0.502266
C1    C     C_R   0.523757 0.700817 0.498764 0.922391
C2    C     C_R   0.550347 0.133591 0.477715 -0.283708
C3    C     C_R   0.451722 0.972689 0.516443 0.121691
C4    C     C_R   0.547890 0.027480 0.485113 0.121622
C5    C     C_R   0.949318 0.397167 0.438126 -0.272296
C6    C     C_R   0.050813 0.603422 0.561354 -0.269363
C7    C     C_R   0.834515 0.407620 0.443935 -0.068143
C8    C     C_R   0.165572 0.592896 0.555640 -0.051227
C9    C     C_R   0.860617 0.545454 0.526517 0.394347
C10   C     C_R   0.139431 0.454472 0.473485 0.381400
C11   C     C_R   0.977617 0.537900 0.522278 -0.007149
C12   C     C_R   0.476218 0.299244 0.501676 0.915366
C13   C     C_R   0.022479 0.462358 0.477444 -0.004989
C14   C     C_R   0.499209 0.495601 0.634359 0.870289
C15   C     C_R   0.500058 0.499493 0.365107 0.872762
C16   C     C_R   0.404195 0.439333 0.750397 0.076147
C17   C     C_R   0.595460 0.498993 0.242408 0.099822
C18   C     C_R   0.408888 0.437072 0.822492 -0.212659
C19   C     C_R   0.582434 0.497289 0.170976 -0.205188
C20   C     C_R   0.505332 0.475237 0.854548 0.040771
C21   C     C_R   0.476742 0.488235 0.144679 0.029627
C22   C     C_R   0.602474 0.512869 0.814265 0.115442
C23   C     C_R   0.459766 0.186963 0.503523 -0.118806
C24   C     C_R   0.378789 0.480334 0.188957 0.107931
C25   C     C_R   0.596183 0.519780 0.742358 -0.224031
C26   C     C_R   0.391081 0.486199 0.260840 -0.195218
C27   C     C_R   0.498258 0.485162 0.709992 -0.096720
C28   C     C_R   0.497508 0.495487 0.288538 -0.108045
C29   C     C_R   0.473598 0.487200 0.069782 0.267190
C30   C     C_R   0.498397 0.478275 0.930026 0.272173
C31   C     C_3   0.299364 0.388382 0.720065 -0.368787
C32   C     C_3   0.205871 0.462567 0.723486 -0.348127
C33   C     C_3   0.100802 0.412533 0.691672 -0.803416
C34   C     C_R   0.540086 0.813218 0.497785 -0.122857
C35   C     C_3   0.714976 0.505916 0.264672 -0.424929
C36   C     C_3   0.755306 0.618031 0.284248 -0.295956
C37   C     C_3   0.877383 0.626196 0.302977 -0.795711
C38   C     C_3   0.714271 0.543628 0.844788 -0.421916
C39   C     C_3   0.801595 0.468192 0.820658 -0.337931
C40   C     C_3   0.913571 0.497675 0.852152 -0.875412
C41   C     C_3   0.264383 0.467918 0.158042 -0.417413
C42   C     C_3   0.162278 0.454834 0.210782 -0.345868
C43   C     C_3   0.053409 0.437502 0.173794 -0.880730
C44   C     C_R   0.641103 0.975867 0.462342 -0.215141
C45   C     C_R   0.358922 0.024589 0.539826 -0.213577
C46   C     C_R   0.638410 0.868608 0.468570 0.289762
C47   C     C_R   0.361994 0.132011 0.533901 0.287671
C48   C     C_R   0.449118 0.866398 0.523370 -0.284208
H1    H     H_    0.979002 0.337989 0.402913 0.203193
H2    H     H_    0.284720 0.981868 0.563634 0.174096
H3    H     H_    0.221374 0.643573 0.585595 0.142645
H4    H     H_    0.778746 0.357149 0.413831 0.141899
H5    H     H_    0.119323 0.392472 0.635989 0.295619
H6    H     H_    0.068698 0.340764 0.720421 0.265149
H7    H     H_    0.034825 0.468011 0.694934 0.245748
H8    H     H_    0.184302 0.483505 0.778753 0.213425
H9    H     H_    0.234731 0.535469 0.695127 0.237021
H10   H     H_    0.316858 0.360422 0.666094 0.247956
H11   H     H_    0.269987 0.316911 0.750141 0.202656
H12   H     H_    0.021192 0.662876 0.596356 0.202736
H13   H     H_    0.886918 0.578402 0.349445 0.272596
H14   H     H_    0.931880 0.599626 0.258588 0.244517
H15   H     H_    0.905344 0.708551 0.314811 0.282161
H16   H     H_    0.747832 0.669927 0.239335 0.219333
H17   H     H_    0.702418 0.645696 0.328982 0.264097
H18   H     H_    0.724816 0.450155 0.306697 0.219795
H19   H     H_    0.772013 0.480583 0.220929 0.187509
H20   H     H_    0.948054 0.576500 0.834672 0.267312
H21   H     H_    0.903194 0.496758 0.910016 0.264299
H22   H     H_    0.974042 0.440608 0.834901 0.254482
H23   H     H_    0.335794 0.406032 0.854161 0.151880
H24   H     H_    0.770844 0.387695 0.836882 0.233471
H25   H     H_    0.815322 0.468983 0.762901 0.232614
H26   H     H_    0.744007 0.624144 0.828083 0.216376
H27   H     H_    0.707743 0.543889 0.902489 0.219753
H28   H     H_    0.041340 0.506508 0.141982 0.261400
H29   H     H_    0.054637 0.367396 0.139499 0.269761
H30   H     H_    0.981730 0.425218 0.213115 0.249370
H31   H     H_    0.169059 0.386280 0.244278 0.255017
H32   H     H_    0.158343 0.525864 0.244112 0.228618
H33   H     H_    0.256311 0.537028 0.125294 0.208247
H34   H     H_    0.655879 0.502416 0.134759 0.145614
H35   H     H_    0.261764 0.397944 0.123480 0.222223
H36   H     H_    0.668873 0.552629 0.711438 0.199610
H37   H     H_    0.317259 0.483326 0.295971 0.192180
H38   H     H_    0.624750 0.174994 0.452979 0.169341
H39   H     H_    0.374478 0.824769 0.547636 0.169202
H40   H     H_    0.715613 0.018776 0.439062 0.174043
N1    N     N_R   0.525733 0.568605 0.964204 -0.178385
N2    N     N_R   0.444304 0.397314 0.035705 -0.172927
N3    N     N_R   0.514986 0.572596 0.033274 -0.167935
N4    N     N_R   0.455503 0.393215 0.966592 -0.169999
N5    N     N_R   0.207800 0.519350 0.512860 -0.116102
N6    N     N_R   0.792200 0.480650 0.487140 -0.113814
O1    O     O_R   0.421690 0.658830 0.503430 -0.638745
O2    O     O_R   0.578310 0.341170 0.496570 -0.639973
O3    O     O_R   0.609320 0.646410 0.495180 -0.537831
O4    O     O_R   0.390680 0.353590 0.504820 -0.541877
O5    O     O_R   0.406160 0.506220 0.605990 -0.630511
O6    O     O_R   0.593840 0.493780 0.394010 -0.630367
O7    O     O_R   0.593780 0.493810 0.597740 -0.585019
O8    O     O_R   0.406220 0.506190 0.402260 -0.588669
Zn1   Zn    Zn3+2 0.374720 0.508290 0.505510 0.996259
Zn2   Zn    Zn3+2 0.625280 0.491710 0.494490 0.999762

loop_
_geom_bond_atom_site_label_1
_geom_bond_atom_site_label_2
_ccdc_geom_bond_type
C31   C32   S    
C30   N1    A    
C29   N2    A    
C3    C4    A    
C37   H15   S    
C41   C42   S    
C21   C24   A    
C7    N6    A    
C43   H28   S    
C32   C33   S    
C41   H35   S    
C20   C22   A    
C3    C48   A    
C6    C11   A    
C34   C48   A    
O8    Zn1   S    
C45   H2    S    
Br4   C9    S    
N6    Zn2   S    
C43   H30   S    
C9    N6    A    
C25   H36   S    
Br2   C46   S    
C16   C31   S    
C31   H11   S    
C1    O1    A    
C45   C47   A    
C19   H34   S    
C33   H6    S    
C12   C23   S    
C44   C46   A    
C38   H27   S    
N1    N3    A    
C1    C34   S    
C10   C13   A    
C18   H23   S    
C26   H37   S    
C15   C28   S    
C29   N3    A    
C17   C28   A    
C23   C47   A    
O7    Zn2   S    
C1    O3    A    
C24   C41   S    
O2    Zn2   S    
C36   H17   S    
C40   H22   S    
C3    C45   A    
C35   C36   S    
C12   O2    A    
C37   H13   S    
C2    H38   S    
C20   C30   S    
C41   H33   S    
C39   C40   S    
C4    C44   A    
C5    C7    A    
C15   O6    A    
C2    C23   A    
C17   C35   S    
O4    Zn1   S    
N2    N4    A    
Br1   C47   S    
C8    N5    A    
C33   H7    S    
Br3   C10   S    
C6    C8    A    
C42   H32   S    
C5    C13   A    
C36   C37   S    
C16   C18   A    
C38   H26   S    
C9    C11   A    
C36   H16   S    
C18   C20   A    
C5    H1    S    
C38   C39   S    
C32   H9    S    
O6    Zn2   S    
C22   C38   S    
C10   N5    A    
C12   O4    A    
C39   H24   S    
C11   C13   A    
C42   C43   S    
C6    H12   S    
C30   N4    A    
C32   H8    S    
C2    C4    A    
C37   H14   S    
C34   C46   A    
C39   H25   S    
O1    Zn1   S    
C17   C19   A    
C14   O7    A    
C25   C27   A    
C26   C28   A    
O3    Zn2   S    
C24   C26   A    
C35   H18   S    
C40   H20   S    
C31   H10   S    
C14   O5    A    
C43   H29   S    
C40   H21   S    
C8    H3    S    
C42   H31   S    
N5    Zn1   S    
C15   O8    A    
C19   C21   A    
C22   C25   A    
C44   H40   S    
C35   H19   S    
C48   H39   S    
O5    Zn1   S    
C14   C27   S    
C33   H5    S    
C7    H4    S    
C21   C29   S    
C16   C27   A    
