data_mof_unit_43670.cif
_audit_creation_date              2012-12-10T17:33:00-0500
_audit_creation_method            fapswitch 2.2
_symmetry_space_group_name_H-M    P1
_symmetry_Int_Tables_number       1
_space_group_crystal_system       triclinic
_cell_length_a                    12.420047
_cell_length_b                    13.373524
_cell_length_c                    14.277674
_cell_angle_alpha                 95.011441
_cell_angle_beta                  107.885993
_cell_angle_gamma                 117.293839
_cell_volume                      1931.24848903

loop_
_atom_site_label
_atom_site_type_symbol
_atom_type_description
_atom_site_fract_x
_atom_site_fract_y
_atom_site_fract_z
_atom_type_partial_charge
C1    C     C_R   0.654461 0.714472 0.514655 0.831339
C2    C     C_R   0.879652 0.536670 0.918517 0.090774
C3    C     C_R   0.877214 0.609131 0.995807 0.088081
C4    C     C_R   0.982128 0.509018 0.942168 0.015723
C5    C     C_R   0.064014 0.537427 0.047415 0.029316
C6    C     C_R   0.057898 0.609743 0.121612 -0.202168
C7    C     C_R   0.967958 0.646501 0.095676 -0.196831
C8    C     C_R   0.012201 0.459775 0.867378 0.199136
C9    C     C_R   0.108500 0.429445 0.897315 -0.266854
C10   C     C_R   0.177674 0.445394 0.999500 0.099474
C11   C     C_R   0.154401 0.497349 0.075608 0.082325
C12   C     C_R   0.617648 0.516248 0.686999 0.868730
C13   C     C_R   0.271950 0.411318 0.026400 -0.173675
C14   C     C_R   0.340872 0.425171 0.128626 -0.196093
C15   C     C_R   0.220349 0.504977 0.177845 -0.238218
C16   C     C_R   0.138877 0.966766 0.377305 -0.191988
C17   C     C_R   0.261269 0.164080 0.484541 -0.086921
C18   C     C_R   0.785565 0.903918 0.641278 -0.278923
C19   C     C_R   0.912541 0.998058 0.698945 0.521038
C20   C     C_R   0.009695 0.025562 0.659959 -0.202210
C21   C     C_R   0.978017 0.975895 0.557009 0.018082
C22   C     C_R   0.851688 0.875668 0.501711 0.079831
C23   C     C_R   0.349452 0.286550 0.491776 0.821286
C24   C     C_R   0.070256 0.016053 0.509541 0.051651
C25   C     C_R   0.045415 0.938239 0.420424 0.130552
C26   C     C_R   0.923225 0.836355 0.370051 -0.225971
C27   C     C_R   0.824490 0.810747 0.405750 -0.175343
C28   C     C_R   0.177745 0.133194 0.539369 0.181336
C29   C     C_R   0.247441 0.078451 0.410492 -0.229586
C30   C     C_R   0.757752 0.837427 0.546492 -0.152262
C31   C     C_R   0.267326 0.719131 0.628688 0.419112
C32   C     C_R   0.650797 0.331811 0.370428 0.077252
C33   C     C_R   0.725914 0.292999 0.342540 -0.251085
C34   C     C_R   0.380875 0.481791 0.312935 0.772954
C35   C     C_R   0.862883 0.358441 0.388774 -0.133085
C36   C     C_R   0.928072 0.465559 0.463372 -0.013054
C37   C     C_R   0.847818 0.504023 0.490422 0.222536
C38   C     C_R   0.070126 0.534665 0.513542 -0.077702
C39   C     C_R   0.129604 0.649181 0.575147 0.000455
C40   C     C_R   0.051401 0.691119 0.588938 -0.329463
C41   C     C_R   0.917901 0.614705 0.566805 0.530776
C42   C     C_R   0.157181 0.496504 0.505274 0.069441
C43   C     C_R   0.345879 0.675118 0.618347 -0.003279
C44   C     C_R   0.691556 0.535998 0.796100 -0.191290
C45   C     C_R   0.313902 0.470640 0.204825 -0.049316
C46   C     C_R   0.783346 0.643694 0.972972 -0.280819
C47   C     C_R   0.690978 0.608599 0.873292 0.479714
C48   C     C_R   0.776583 0.492189 0.821957 -0.264072
Cu1   Cu    Cu3+1 0.416420 0.526630 0.522910 0.979726
Cu2   Cu    Cu3+1 0.583580 0.473370 0.477090 0.982978
H1    H     H_    0.968027 0.703123 0.154929 0.128721
H2    H     H_    0.292000 0.373550 0.968256 0.149930
H3    H     H_    0.312730 0.100936 0.370103 0.159623
H4    H     H_    0.901113 0.780086 0.299035 0.133261
H5    H     H_    0.122994 0.905265 0.312582 0.136836
H6    H     H_    0.714969 0.873271 0.676827 0.168036
H7    H     H_    0.110518 0.081813 0.713013 0.196279
H8    H     H_    0.727578 0.736869 0.358924 0.145392
H9    H     H_    0.451941 0.729056 0.655805 0.154895
H10   H     H_    0.197240 0.534026 0.237743 0.152069
H11   H     H_    0.098532 0.781318 0.630816 0.201871
H12   H     H_    0.121255 0.412131 0.457009 0.141851
H13   H     H_    0.544535 0.279729 0.333959 0.119280
H14   H     H_    0.915808 0.324521 0.363182 0.133347
H15   H     H_    0.677526 0.211393 0.284599 0.143242
H16   H     H_    0.412909 0.397978 0.147732 0.152551
H17   H     H_    0.130634 0.393512 0.839554 0.206153
H18   H     H_    0.783801 0.700835 0.032054 0.151077
H19   H     H_    0.758022 0.421288 0.765658 0.221294
H20   H     H_    0.126142 0.644400 0.200419 0.139526
N1    N     N_R   0.290690 0.566960 0.557640 -0.208217
N2    N     N_R   0.709100 0.433710 0.442970 -0.193769
O1    O     O_R   0.545970 0.684450 0.528810 -0.596351
O2    O     O_R   0.687130 0.639470 0.490120 -0.536552
O3    O     O_R   0.519670 0.535100 0.660030 -0.531053
O4    O     O_R   0.660830 0.490120 0.621340 -0.508017
O5    O     O_R   0.312870 0.360530 0.509880 -0.539421
O6    O     O_R   0.454030 0.315550 0.471190 -0.602460
O7    O     O_R   0.339170 0.509880 0.378660 -0.590276
O8    O     O_R   0.480330 0.464900 0.339970 -0.601733
Br1   Br    Br    0.199423 0.257245 0.640095 -0.572744
O9    O     O_3   0.948665 0.052049 0.799558 -0.583427
C49   C     C_3   0.885347 0.116270 0.802219 -0.265683
H21   H     H_    0.777802 0.057381 0.779888 0.162022
H22   H     H_    0.903665 0.177421 0.753024 0.196758
H23   H     H_    0.926281 0.169776 0.881794 0.193610
O10   O     O_3   0.325306 0.831878 0.688022 -0.585957
C50   C     C_3   0.361288 0.831480 0.791729 -0.344532
H24   H     H_    0.275339 0.768324 0.806620 0.171572
H25   H     H_    0.398142 0.919765 0.838658 0.197874
H26   H     H_    0.442229 0.812253 0.816991 0.174050
O11   O     O_3   0.858458 0.644674 0.622857 -0.528573
C51   C     C_3   0.943843 0.723916 0.721093 -0.273536
H27   H     H_    0.993980 0.814982 0.715445 0.151663
H28   H     H_    0.015626 0.700093 0.764571 0.187556
H29   H     H_    0.884219 0.721944 0.765474 0.182986
O12   O     O_3   0.608288 0.653360 0.850541 -0.577730
C52   C     C_3   0.500490 0.587415 0.876642 -0.278696
H30   H     H_    0.532351 0.599354 0.960662 0.147075
H31   H     H_    0.430098 0.618620 0.852892 0.185888
H32   H     H_    0.446863 0.492940 0.835799 0.194041
Br2   Br    Br    0.952665 0.448963 0.723876 -0.595009

loop_
_geom_bond_atom_site_label_1
_geom_bond_atom_site_label_2
_ccdc_geom_bond_type
O10   C50   S    
C51   H27   S    
C17   C29   A    
C15   H10   S    
C35   C36   A    
C48   H19   S    
C4    C8    A    
O12   C52   S    
C33   H15   S    
C32   N2    A    
C26   C27   A    
C17   C23   S    
C31   C43   A    
C1    O2    A    
O11   C51   S    
C36   C37   A    
C5    C11   A    
C3    C7    A    
Cu2   O2    S    
C5    C6    A    
Cu2   O6    S    
C18   C19   A    
Cu1   Cu2   S    
Cu2   N2    S    
C42   N1    A    
C34   O8    A    
C11   C15   A    
C19   C20   A    
C31   C39   A    
C8    C9    A    
Cu1   O3    S    
C35   H14   S    
C18   C30   A    
C19   O9    S    
C9    C10   A    
C42   H12   S    
C44   C47   A    
C43   H9    S    
C51   H28   S    
C21   C22   A    
C37   N2    A    
C26   H4    S    
C14   C45   A    
C31   O10   S    
C24   C25   A    
C39   C40   A    
C2    C48   A    
C16   C29   A    
C10   C13   A    
C40   H11   S    
Cu1   O7    S    
C2    C4    A    
C9    H17   S    
C46   H18   S    
Cu2   O4    S    
C34   O7    A    
C13   H2    S    
C49   H21   S    
C50   H26   S    
C49   H23   S    
C14   H16   S    
C34   C45   S    
C23   O5    A    
C40   C41   A    
C49   H22   S    
C50   H25   S    
O9    C49   S    
C51   H29   S    
C52   H31   S    
C22   C27   A    
C12   O4    A    
Cu1   O1    S    
C21   C24   A    
C15   C45   A    
C16   C25   A    
C6    H20   S    
C46   C47   A    
C43   N1    A    
C22   C30   A    
C28   Br1   S    
C17   C28   A    
C24   C28   A    
C32   H13   S    
C4    C5    A    
C27   H8    S    
Cu2   O8    S    
C38   C42   A    
C6    C7    A    
C18   H6    S    
C52   H32   S    
C3    C46   A    
C47   O12   S    
C1    O1    A    
C32   C33   A    
C36   C38   A    
C2    C3    A    
C25   C26   A    
C16   H5    S    
C7    H1    S    
C12   C44   S    
C38   C39   A    
C29   H3    S    
C1    C30   S    
C33   C35   A    
Cu1   O5    S    
C23   O6    A    
C37   C41   A    
C10   C11   A    
C41   O11   S    
C50   H24   S    
C20   C21   A    
C52   H30   S    
Cu1   N1    S    
C12   O3    A    
C20   H7    S    
C13   C14   A    
C8    Br2   S    
C44   C48   A    
