data_mof_unit_54191.cif
_audit_creation_date              2012-12-10T18:21:18-0500
_audit_creation_method            fapswitch 2.2
_symmetry_space_group_name_H-M    P1
_symmetry_Int_Tables_number       1
_space_group_crystal_system       triclinic
_cell_length_a                    9.408752
_cell_length_b                    10.624163
_cell_length_c                    17.374817
_cell_angle_alpha                 89.97774
_cell_angle_beta                  86.330821
_cell_angle_gamma                 89.579085
_cell_volume                      1733.18183645

loop_
_atom_site_label
_atom_site_type_symbol
_atom_type_description
_atom_site_fract_x
_atom_site_fract_y
_atom_site_fract_z
_atom_type_partial_charge
C1    C     C_R   0.499509 0.740636 0.499968 0.782588
C2    C     C_R   0.500491 0.259364 0.500032 0.782564
C3    C     C_3   0.364586 0.960650 0.499802 -0.138901
C4    C     C_3   0.635414 0.039350 0.500198 -0.138901
C5    C     C_3   0.440859 0.042675 0.436553 -0.168220
C6    C     C_3   0.559141 0.957325 0.563447 -0.168247
C7    C     C_3   0.501430 0.122391 0.500023 0.025223
C8    C     C_3   0.498570 0.877609 0.499977 0.025214
C9    C     C_3   0.425273 0.042639 0.563272 -0.169262
C10   C     C_3   0.574727 0.957362 0.436728 -0.169241
C11   C     C_3   0.951124 0.386541 0.495183 -0.036279
C12   C     C_3   0.048876 0.613459 0.504817 -0.036266
C13   C     C_3   0.044388 0.436469 0.557763 -0.039560
C14   C     C_3   0.955611 0.563531 0.442237 -0.039559
C15   C     C_3   0.058303 0.450122 0.437358 -0.040804
C16   C     C_3   0.941697 0.549878 0.562642 -0.040819
C17   C     C_R   0.482071 0.501423 0.649766 0.811110
C18   C     C_R   0.517927 0.498536 0.350234 0.811107
C19   C     C_R   0.476195 0.507711 0.733990 -0.080860
C20   C     C_R   0.523789 0.492047 0.266014 -0.080789
C21   C     C_R   0.603890 0.502547 0.771404 -0.311242
C22   C     C_R   0.396065 0.496879 0.228609 -0.311312
C23   C     C_R   0.603781 0.510123 0.851830 0.475882
C24   C     C_R   0.396155 0.489001 0.148194 0.475907
C25   C     C_R   0.472693 0.529053 0.894314 0.070778
C26   C     C_R   0.527263 0.470162 0.105720 0.070773
C27   C     C_R   0.345463 0.537031 0.856849 -0.228109
C28   C     C_R   0.654524 0.462511 0.143173 -0.228156
C29   C     C_R   0.346716 0.524612 0.777131 -0.206003
C30   C     C_R   0.653282 0.475189 0.222876 -0.206028
C31   C     C_2   0.465230 0.540035 0.978346 -0.126597
C32   C     C_2   0.534699 0.459078 0.021694 -0.126505
Cu1   Cu    Cu3+1 0.356850 0.500010 0.499980 0.929300
Cu2   Cu    Cu3+1 0.643150 0.499990 0.500020 0.929290
H1    H     H_    0.704306 0.495280 0.737794 0.148322
H2    H     H_    0.295650 0.504097 0.262225 0.148255
H3    H     H_    0.905801 0.290817 0.491058 0.109685
H4    H     H_    0.094198 0.709183 0.508942 0.109684
H5    H     H_    0.112144 0.407944 0.384688 0.110310
H6    H     H_    0.887855 0.592054 0.615312 0.110378
H7    H     H_    0.752940 0.469662 0.250690 0.157510
H8    H     H_    0.247082 0.530382 0.749310 0.157545
H9    H     H_    0.602823 0.386150 0.995147 0.161165
H10   H     H_    0.397091 0.612942 0.004912 0.161039
H11   H     H_    0.244832 0.551397 0.889611 0.151646
H12   H     H_    0.755169 0.448220 0.110411 0.151748
H13   H     H_    0.392632 0.080797 0.384649 0.127587
H14   H     H_    0.607369 0.919204 0.615351 0.127561
H15   H     H_    0.253603 0.925927 0.499632 0.125473
H16   H     H_    0.746397 0.074074 0.500369 0.125471
H17   H     H_    0.364279 0.080724 0.615031 0.125146
H18   H     H_    0.635722 0.919277 0.384970 0.125150
H19   H     H_    0.086709 0.382947 0.606312 0.107677
H20   H     H_    0.913290 0.617052 0.393688 0.107661
N1    N     N_3   0.141720 0.500030 0.499940 -0.153059
N2    N     N_3   0.858280 0.499970 0.500060 -0.153066
O1    O     O_R   0.379130 0.683150 0.499960 -0.591137
O2    O     O_R   0.620870 0.316850 0.500040 -0.591149
O3    O     O_R   0.620910 0.683140 0.500000 -0.581710
O4    O     O_R   0.379090 0.316860 0.500000 -0.581718
O5    O     O_R   0.365090 0.500030 0.613580 -0.588727
O6    O     O_R   0.634910 0.499970 0.386420 -0.588730
O7    O     O_R   0.606870 0.500020 0.613610 -0.590503
O8    O     O_R   0.393130 0.499980 0.386390 -0.590497
O9    O     O_3   0.269856 0.485336 0.110680 -0.585129
C33   C     C_3   0.176665 0.584613 0.135462 0.029052
H21   H     H_    0.234594 0.674818 0.142194 0.134091
H22   H     H_    0.117700 0.559513 0.190743 0.144694
C34   C     C_3   0.067171 0.605233 0.076048 -0.783344
H23   H     H_    0.004884 0.518021 0.069781 0.250792
H24   H     H_    0.993136 0.682633 0.095084 0.206865
H25   H     H_    0.121055 0.630631 0.019525 0.234673
O10   O     O_3   0.730093 0.513390 0.889344 -0.585161
C35   C     C_3   0.822871 0.413831 0.864535 0.029098
H26   H     H_    0.881889 0.438759 0.809238 0.144715
H27   H     H_    0.764566 0.323817 0.857818 0.134070
C36   C     C_3   0.932353 0.392813 0.923909 -0.783442
H28   H     H_    0.878397 0.367919 0.980499 0.234700
H29   H     H_    0.005767 0.314918 0.904949 0.206822
H30   H     H_    0.995327 0.479680 0.929997 0.250708

loop_
_geom_bond_atom_site_label_1
_geom_bond_atom_site_label_2
_ccdc_geom_bond_type
C25   C31   S    
C14   N2    S    
Cu2   N2    S    
C29   H8    S    
C27   C29   A    
C1    C8    S    
O10   C35   S    
C33   H22   S    
C2    C7    S    
C9    H17   S    
C10   H18   S    
C6    C9    S    
C3    H15   S    
C20   C30   A    
C36   H28   S    
C26   C32   S    
C5    H13   S    
C28   H12   S    
C6    H14   S    
C19   C21   A    
C24   C26   A    
C1    O3    A    
C2    O4    A    
C33   C34   S    
Cu2   O6    S    
C34   H24   S    
C11   H3    S    
C17   O5    A    
C11   C15   S    
C12   C16   S    
C35   C36   S    
C30   H7    S    
C27   H11   S    
C33   H21   S    
C23   O10   S    
C4    C7    S    
C13   H19   S    
C36   H29   S    
C31   H10   S    
C4    C6    S    
C3    C8    S    
C35   H26   S    
C5    C7    S    
C18   O6    A    
C6    C8    S    
C4    H16   S    
C15   N1    S    
C34   H25   S    
C16   N2    S    
C3    C9    S    
C1    O1    A    
C31   C32   D    
Cu1   Cu2   S    
Cu1   N1    S    
C15   H5    S    
C35   H27   S    
C24   O9    S    
C16   H6    S    
Cu1   O5    S    
C14   H20   S    
C20   C22   A    
Cu1   O4    S    
C21   C23   A    
Cu2   O3    S    
C22   C24   A    
C4    C10   S    
C19   C29   A    
C36   H30   S    
C7    C9    S    
Cu1   O1    S    
C12   C14   S    
C3    C5    S    
C2    O2    A    
C21   H1    S    
C25   C27   A    
C22   H2    S    
C26   C28   A    
C28   C30   A    
C5    C10   S    
C17   O7    A    
C11   C13   S    
C18   O8    A    
Cu1   O8    S    
Cu2   O7    S    
C17   C19   S    
C32   H9    S    
C18   C20   S    
C23   C25   A    
C12   H4    S    
C34   H23   S    
C12   N1    S    
C8    C10   S    
O9    C33   S    
C13   C16   S    
Cu2   O2    S    
C14   C15   S    
C11   N2    S    
C13   N1    S    
