data_mof_unit_31208.cif
_audit_creation_date              2012-12-11T15:48:54-0500
_audit_creation_method            fapswitch 2.2
_symmetry_space_group_name_H-M    P1
_symmetry_Int_Tables_number       1
_space_group_crystal_system       triclinic
_cell_length_a                    11.094225
_cell_length_b                    11.006544
_cell_length_c                    18.720287
_cell_angle_alpha                 89.850536
_cell_angle_beta                  89.437577
_cell_angle_gamma                 60.022548
_cell_volume                      1980.00943086

loop_
_atom_site_label
_atom_site_type_symbol
_atom_type_description
_atom_site_fract_x
_atom_site_fract_y
_atom_site_fract_z
_atom_type_partial_charge
C1    C     C_R   0.294410 0.620751 0.615615 0.560078
C2    C     C_R   0.561500 0.178511 0.716652 -0.124425
C3    C     C_R   0.563896 0.176278 0.789445 -0.161091
C4    C     C_R   0.652835 0.621507 0.600356 0.547858
C5    C     C_3   0.924484 0.131810 0.786391 -0.272490
C6    C     C_3   0.912102 0.153950 0.705434 -0.265868
C7    C     C_R   0.661156 0.190510 0.677220 0.068678
C8    C     C_R   0.215711 0.657141 0.843498 0.056170
C9    C     C_R   0.264536 0.527016 0.809947 -0.001911
C10   C     C_R   0.286344 0.514529 0.735936 0.017505
C11   C     C_R   0.258066 0.745018 0.731823 -0.185339
C12   C     C_3   0.683534 0.570475 0.800559 -0.104334
C13   C     C_R   0.232575 0.758508 0.805398 -0.109424
C14   C     C_3   0.211670 0.427422 0.812656 -0.295874
C15   C     C_3   0.217348 0.427400 0.731468 -0.241512
C16   C     C_R   0.626235 0.233153 0.603681 0.523971
C17   C     C_R   0.272620 0.627580 0.694262 0.029343
C18   C     C_R   0.675803 0.685208 0.174547 0.013669
C19   C     C_R   0.788666 0.649170 0.219635 0.001705
C20   C     C_R   0.778706 0.637663 0.291897 -0.008764
C21   C     C_R   0.532091 0.740738 0.280354 -0.166924
C22   C     C_R   0.543570 0.741948 0.205746 -0.164860
C23   C     C_3   0.717638 0.692914 0.806569 0.022492
C24   C     C_3   0.933372 0.529739 0.217994 -0.236524
C25   C     C_3   0.920894 0.513611 0.297762 -0.239876
C26   C     C_R   0.652232 0.672871 0.322975 0.015563
C27   C     C_R   0.636846 0.181110 0.170922 -0.037359
C28   C     C_R   0.289770 0.619736 0.393224 0.558194
C29   C     C_R   0.538211 0.169524 0.213042 0.008770
C30   C     C_R   0.544455 0.171598 0.285875 -0.007725
C31   C     C_R   0.726412 0.228685 0.278420 -0.131066
C32   C     C_R   0.723320 0.224487 0.203584 -0.017906
C33   C     C_3   0.501682 0.055582 0.216363 -0.040580
C34   C     C_3   0.675330 0.653283 0.673115 -0.008934
C35   C     C_3   0.510253 0.058606 0.297147 -0.263279
C36   C     C_R   0.642090 0.193131 0.320016 -0.020288
C37   C     C_R   0.181755 0.662858 0.175038 0.004479
C38   C     C_R   0.192432 0.766782 0.212626 0.019505
C39   C     C_R   0.229428 0.749579 0.282087 -0.010914
C40   C     C_R   0.641836 0.624889 0.393230 0.546852
C41   C     C_R   0.280129 0.510501 0.277320 -0.150732
C42   C     C_R   0.242450 0.527866 0.204758 -0.171321
C43   C     C_3   0.091047 0.920062 0.223528 -0.216354
C44   C     C_3   0.131978 0.899760 0.301039 -0.257398
C45   C     C_3   0.831974 0.607347 0.683998 -0.096454
C46   C     C_R   0.263522 0.626340 0.317553 0.003610
C47   C     C_R   0.700795 0.103986 0.897144 0.572922
C48   C     C_R   0.748854 0.707356 0.882589 0.634178
C49   C     C_R   0.124285 0.703713 0.907713 0.586934
C50   C     C_R   0.672903 0.110216 0.102455 0.505006
C51   C     C_R   0.698496 0.691487 0.098771 0.554953
C52   C     C_R   0.616330 0.232216 0.394277 0.534562
C53   C     C_R   0.098400 0.707326 0.110713 0.534130
C54   C     C_3   0.595401 0.830862 0.774879 -0.234681
C55   C     C_3   0.569732 0.806905 0.696374 -0.063884
C56   C     C_3   0.644286 0.559748 0.723168 -0.295951
C57   C     C_3   0.848930 0.657085 0.759079 -0.087354
C58   C     C_2   0.815281 0.257878 0.160818 0.234795
C59   C     C_2   0.357894 0.103845 0.188722 0.572489
C60   C     C_2   0.562934 0.914303 0.644076 0.538517
C61   C     C_2   0.890939 0.769798 0.760230 0.559194
C62   C     C_2   0.906359 0.625885 0.619202 0.289799
C63   C     C_2   0.573967 0.575195 0.851425 0.226041
C64   C     C_R   0.677077 0.168331 0.826983 0.038545
C65   C     C_R   0.770594 0.193453 0.788285 -0.008761
C66   C     C_R   0.759918 0.208513 0.714957 0.002566
Cr1   Cr    Cr6+3 0.392960 0.397920 0.502240 1.077146
Cr2   Cr    Cr6+3 0.398340 0.708480 0.501250 1.043795
Cr3   Cr    Cr6+3 0.708670 0.393570 0.496460 1.031207
Cr4   Cr    Cr6+3 0.937650 0.938540 0.007610 1.051447
Cr5   Cr    Cr6+3 0.625330 0.937370 0.994520 1.088961
Cr6   Cr    Cr6+3 0.937940 0.625230 0.001190 1.028047
H1    H     H_    0.619396 0.916509 0.778337 0.160383
H2    H     H_    0.965250 0.057444 0.672609 0.151899
H3    H     H_    0.255406 0.832365 0.703859 0.135802
H4    H     H_    0.498199 0.865637 0.806505 0.157188
H5    H     H_    0.210744 0.856179 0.830253 0.149501
H6    H     H_    0.110312 0.468382 0.838854 0.164291
H7    H     H_    0.287258 0.327333 0.837296 0.129214
H8    H     H_    0.279341 0.322806 0.707899 0.146379
H9    H     H_    0.114566 0.486568 0.707148 0.193300
H10   H     H_    0.430973 0.783803 0.304555 0.147817
H11   H     H_    0.451375 0.784144 0.173148 0.171589
H12   H     H_    0.705608 0.450429 0.705450 0.129282
H13   H     H_    0.003482 0.568993 0.204509 0.156190
H14   H     H_    0.945573 0.442077 0.184643 0.211926
H15   H     H_    0.920949 0.415338 0.311636 0.188226
H16   H     H_    0.464255 0.818897 0.696052 0.119629
H17   H     H_    0.991509 0.536162 0.329642 0.160165
H18   H     H_    0.792874 0.261544 0.303801 0.177249
H19   H     H_    0.584680 0.957399 0.192039 0.132346
H20   H     H_    0.410100 0.096502 0.326462 0.185238
H21   H     H_    0.599358 0.962231 0.319499 0.121120
H22   H     H_    0.311373 0.411356 0.302984 0.177297
H23   H     H_    0.933259 0.564800 0.783813 0.055024
H24   H     H_    0.245702 0.441917 0.175188 0.169435
H25   H     H_    0.980949 0.947853 0.215623 0.167780
H26   H     H_    0.124792 0.986202 0.194378 0.217620
H27   H     H_    0.186894 0.956567 0.316906 0.156487
H28   H     H_    0.045940 0.913961 0.337409 0.162682
H29   H     H_    0.780714 0.470848 0.812915 0.100666
H30   H     H_    0.534019 0.587050 0.718933 0.115345
H31   H     H_    0.789022 0.294568 0.106242 0.128727
H32   H     H_    0.152460 0.234719 0.198898 0.364037
H33   H     H_    0.671694 0.976999 0.583714 0.337904
H34   H     H_    0.887126 0.490486 0.688789 0.129281
H35   H     H_    0.981683 0.865584 0.711292 0.336325
H36   H     H_    0.876869 0.726475 0.596375 0.212225
H37   H     H_    0.559033 0.485080 0.854123 0.102952
H38   H     H_    0.482740 0.165536 0.690947 0.173067
H39   H     H_    0.487280 0.156379 0.814011 0.131127
H40   H     H_    0.979625 0.020093 0.802385 0.179895
H41   H     H_    0.957960 0.199103 0.814033 0.125127
H42   H     H_    0.934044 0.237456 0.687682 0.147178
O1    O     O_R   0.507380 0.255700 0.581440 -0.511074
O2    O     O_R   0.837170 0.593410 0.915250 -0.535719
O3    O     O_R   0.065200 0.635530 0.931570 -0.513164
O4    O     O_R   0.280320 0.527350 0.578930 -0.444719
O5    O     O_R   0.068260 0.828890 0.091840 -0.508006
O6    O     O_R   0.798870 0.057410 0.079340 -0.516331
O7    O     O_R   0.584930 0.080350 0.076780 -0.497170
O8    O     O_R   0.626960 0.809650 0.067060 -0.468638
O9    O     O_R   0.816040 0.596610 0.076510 -0.521266
O10   O     O_R   0.045610 0.638500 0.081060 -0.518823
O11   O     O_3   0.833640 0.833710 0.001100 -0.271790
O12   O     O_R   0.524480 0.695810 0.424040 -0.522450
O13   O     O_R   0.260510 0.739590 0.584590 -0.502788
O14   O     O_R   0.532300 0.695080 0.573820 -0.501955
O15   O     O_R   0.744840 0.503500 0.576370 -0.496028
O16   O     O_R   0.699120 0.276560 0.571960 -0.506163
O17   O     O_R   0.498940 0.256500 0.419860 -0.514953
O18   O     O_R   0.272500 0.528080 0.429150 -0.485606
O19   O     O_R   0.252060 0.740380 0.423010 -0.512406
O20   O     O_2   0.923819 0.240221 0.185621 -0.589922
O21   O     O_2   0.342931 0.047695 0.135961 -0.510957
O22   O     O_R   0.242138 0.213320 0.222772 -0.735924
O23   O     O_R   0.736390 0.504290 0.414790 -0.510952
O24   O     O_2   0.455270 0.987723 0.611536 -0.513790
O25   O     O_R   0.680043 0.925569 0.629939 -0.720204
O26   O     O_2   0.873881 0.837974 0.814495 -0.549156
O27   O     O_R   0.956276 0.791317 0.701783 -0.692591
O28   O     O_2   0.000044 0.523354 0.588974 -0.502203
O29   O     O_2   0.501204 0.676963 0.888884 -0.497446
O30   O     O_R   0.691300 0.277290 0.422170 -0.513679
O31   O     O_3   0.499990 0.499990 0.499980 -0.320179
O32   O     O_R   0.089400 0.825690 0.930570 -0.502552
O33   O     O_R   0.818460 0.054440 0.929850 -0.483432
O34   O     O_R   0.606060 0.077150 0.915510 -0.539769
O35   O     O_R   0.646550 0.806680 0.917570 -0.450622

loop_
_geom_bond_atom_site_label_1
_geom_bond_atom_site_label_2
_ccdc_geom_bond_type
C21   C26   A    
C34   C56   S    
C8    C13   A    
C27   C29   A    
Cr3   O31   S    
C41   C42   A    
C59   O22   S    
Cr5   O8    S    
C2    C7    A    
C43   H26   S    
C32   C58   S    
C43   C44   S    
C15   H9    S    
Cr5   O35   S    
C3    C64   A    
C58   O20   D    
Cr3   O30   S    
C12   C23   S    
C45   C57   S    
C29   C30   A    
C30   C35   S    
C42   H24   S    
C21   C22   A    
Cr2   O19   S    
C10   C15   S    
C33   H19   S    
C5    C6    S    
C44   H27   S    
C11   C13   A    
C62   H36   S    
C20   C25   S    
C10   C17   A    
C29   C33   S    
C45   C62   S    
C25   H15   S    
C51   O9    A    
C18   C19   A    
C37   C42   A    
Cr1   O1    S    
C6    H42   S    
C47   O34   A    
C49   O3    A    
C41   H22   S    
Cr4   O6    S    
Cr3   O16   S    
Cr6   O3    S    
Cr1   O31   S    
C41   C46   A    
C6    H2    S    
Cr4   O32   S    
H35   O27   S    
C16   O16   A    
C24   H13   S    
Cr2   O14   S    
C31   C36   A    
C36   C52   S    
C27   C50   S    
C48   O2    A    
C37   C53   S    
C35   H20   S    
Cr5   O34   S    
C34   C55   S    
C33   C59   S    
C55   C60   S    
Cr6   O10   S    
C50   O7    A    
C62   O28   D    
C18   C51   S    
C56   H12   S    
C47   O33   A    
C35   H21   S    
Cr3   O23   S    
C13   H5    S    
C4    O14   A    
C28   O19   A    
C1    O13   A    
C24   C25   S    
C5    C65   S    
C3    H39   S    
C47   C64   S    
C12   C63   S    
C8    C9    A    
C38   C43   S    
C28   O18   A    
C63   H37   S    
C9    C14   S    
C37   C38   A    
H33   O25   S    
C54   H1    S    
C15   H8    S    
Cr4   O5    S    
C31   H18   S    
C40   O12   A    
C40   O23   A    
C4    O15   A    
C34   C45   S    
C52   O30   A    
C14   H7    S    
Cr2   O13   S    
C12   C56   S    
C39   C46   A    
C54   H4    S    
Cr4   O11   S    
C61   O27   S    
C7    C16   S    
Cr6   O9    S    
C50   O6    A    
C16   O1    A    
Cr2   O12   S    
C45   H34   S    
C23   C54   S    
C9    C10   A    
C23   C57   S    
C54   C55   S    
C2    H38   S    
C23   C48   S    
H32   O22   S    
C5    H41   S    
C27   C32   A    
C18   C22   A    
C52   O17   A    
C25   H17   S    
Cr5   O7    S    
C31   C32   A    
Cr1   O17   S    
C43   H25   S    
C53   O10   A    
C11   C17   A    
C53   O5    A    
C61   O26   D    
C57   C61   S    
C39   C44   S    
C58   H31   S    
C5    H40   S    
Cr6   O2    S    
C1    C17   S    
C30   C36   A    
Cr6   O11   S    
C28   C46   S    
C64   C65   A    
C19   C20   A    
C19   C24   S    
C55   H16   S    
C56   H30   S    
C12   H29   S    
C11   H3    S    
C22   H11   S    
C7    C66   A    
C44   H28   S    
C26   C40   S    
C38   C39   A    
C20   C26   A    
C59   O21   D    
C33   C35   S    
Cr1   O18   S    
C49   O32   A    
C2    C3    A    
C1    O4    A    
C14   H6    S    
C4    C34   S    
Cr1   O4    S    
C60   O25   S    
C6    C66   S    
C21   H10   S    
Cr3   O15   S    
C65   C66   A    
C57   H23   S    
C51   O8    A    
C63   O29   D    
C14   C15   S    
Cr5   O11   S    
Cr4   O33   S    
C48   O35   A    
C24   H14   S    
C8    C49   S    
Cr2   O31   S    
C60   O24   D    
