data_mof_unit_65552.cif
_audit_creation_date              2012-12-10T18:19:14-0500
_audit_creation_method            fapswitch 2.2
_symmetry_space_group_name_H-M    P1
_symmetry_Int_Tables_number       1
_space_group_crystal_system       triclinic
_cell_length_a                    18.603065
_cell_length_b                    18.731887
_cell_length_c                    18.668272
_cell_angle_alpha                 109.820831
_cell_angle_beta                  109.438543
_cell_angle_gamma                 109.690646
_cell_volume                      4974.34732176

loop_
_atom_site_label
_atom_site_type_symbol
_atom_type_description
_atom_site_fract_x
_atom_site_fract_y
_atom_site_fract_z
_atom_type_partial_charge
C1    C     C_R   0.621227 0.500244 0.621521 0.881882
C2    C     C_3   0.848564 0.791898 0.572238 -0.388929
C3    C     C_3   0.256683 0.160510 0.488760 -0.359425
C4    C     C_3   0.743316 0.839489 0.511239 -0.359423
C5    C     C_3   0.707603 0.558756 0.783077 -0.348481
C6    C     C_3   0.292392 0.441239 0.216922 -0.348493
C7    C     C_3   0.784865 0.563950 0.854218 -0.170079
C8    C     C_3   0.215129 0.436045 0.145783 -0.170075
C9    C     C_3   0.654502 0.403443 0.670099 -0.412793
C10   C     C_3   0.345500 0.596556 0.329898 -0.412798
C11   C     C_3   0.774245 0.531893 0.685237 -0.392814
C12   C     C_R   0.378772 0.499755 0.378479 0.881879
C13   C     C_3   0.225756 0.468113 0.314768 -0.392807
C14   C     C_3   0.688317 0.499170 0.689344 0.070246
C15   C     C_3   0.311682 0.500830 0.310656 0.070250
C16   C     C_R   0.382243 0.379100 0.503551 0.888764
C17   C     C_R   0.617757 0.620900 0.496449 0.888765
C18   C     C_3   0.808317 0.495698 0.807627 -0.042911
C19   C     C_3   0.191683 0.504302 0.192374 -0.042903
C20   C     C_3   0.722466 0.399624 0.743012 -0.076622
C21   C     C_3   0.277537 0.600375 0.256984 -0.076630
C22   C     C_3   0.843273 0.524577 0.750838 -0.346462
C23   C     C_3   0.333600 0.235200 0.497944 -0.350919
C24   C     C_3   0.156730 0.475431 0.249167 -0.346460
C25   C     C_3   0.998471 0.309668 0.809173 0.099439
C26   C     C_3   0.001529 0.690332 0.190827 0.099442
C27   C     C_R   0.004165 0.125031 0.621274 0.819479
C28   C     C_R   0.995835 0.874968 0.378726 0.819478
C29   C     C_R   0.121688 0.120879 0.499920 0.809582
C30   C     C_R   0.878312 0.879121 0.500080 0.809582
C31   C     C_R   0.000649 0.621741 0.121750 0.801801
C32   C     C_R   0.999351 0.378259 0.878250 0.801803
C33   C     C_R   0.878220 0.496994 0.876149 0.765584
C34   C     C_3   0.666399 0.764799 0.502054 -0.350918
C35   C     C_R   0.121780 0.503006 0.123852 0.765586
C36   C     C_3   0.940199 0.145933 0.715040 -0.411334
C37   C     C_3   0.059801 0.854067 0.284959 -0.411335
C38   C     C_3   0.097227 0.256266 0.772966 -0.409583
C39   C     C_3   0.902772 0.743734 0.227035 -0.409580
C40   C     C_3   0.973828 0.320237 0.727110 -0.441377
C41   C     C_3   0.026173 0.679763 0.272890 -0.441378
C42   C     C_3   0.093429 0.323788 0.844302 -0.425690
C43   C     C_3   0.906570 0.676212 0.155698 -0.425691
C44   C     C_3   0.932968 0.213814 0.783069 -0.129279
C45   C     C_3   0.315785 0.312204 0.506489 0.121163
C46   C     C_3   0.067031 0.786186 0.216930 -0.129280
C47   C     C_3   0.003994 0.193244 0.689183 0.054880
C48   C     C_3   0.996005 0.806756 0.310817 0.054880
C49   C     C_3   0.970936 0.247625 0.653446 -0.097234
C50   C     C_3   0.029065 0.752376 0.346554 -0.097234
C51   C     C_3   0.311726 0.352361 0.593310 -0.158778
C52   C     C_3   0.688276 0.647639 0.406690 -0.158779
C53   C     C_3   0.241718 0.277882 0.593655 -0.228543
C54   C     C_3   0.758283 0.722118 0.406345 -0.228544
C55   C     C_3   0.225046 0.275471 0.426444 -0.480715
C56   C     C_3   0.684215 0.687796 0.493511 0.121162
C57   C     C_3   0.774953 0.724530 0.573557 -0.480716
C58   C     C_2   0.864943 0.656697 0.915946 0.418927
C59   C     C_2   0.135050 0.343300 0.084059 0.418948
C60   C     C_2   0.023340 0.287236 0.616289 0.368000
C61   C     C_2   0.976661 0.712764 0.383711 0.367999
C62   C     C_2   0.677337 0.369551 0.790907 0.432116
C63   C     C_2   0.322664 0.630441 0.209085 0.432128
C64   C     C_2   0.748680 0.333232 0.703535 0.506938
C65   C     C_2   0.251329 0.666772 0.296462 0.506945
C66   C     C_2   0.837535 0.191549 0.749653 0.392865
C67   C     C_3   0.191789 0.190480 0.503079 0.111513
C68   C     C_2   0.162465 0.808451 0.250347 0.392865
C69   C     C_2   0.400266 0.409901 0.679293 0.485359
C70   C     C_2   0.599736 0.590097 0.320707 0.485361
C71   C     C_2   0.278350 0.267704 0.673362 0.424819
C72   C     C_2   0.721651 0.732295 0.326638 0.424818
C73   C     C_3   0.808211 0.809520 0.496921 0.111514
C74   C     C_3   0.151436 0.208103 0.427763 -0.388925
H1    H     H_    0.340309 0.208595 0.438939 0.180775
H2    H     H_    0.199355 0.398402 0.298671 0.187685
H3    H     H_    0.905856 0.589309 0.792608 0.216538
H4    H     H_    0.094143 0.410702 0.207401 0.216552
H5    H     H_    0.858655 0.476623 0.714568 0.165925
H6    H     H_    0.141353 0.523390 0.285438 0.165912
H7    H     H_    0.641537 0.361895 0.603352 0.236750
H8    H     H_    0.358468 0.638107 0.396645 0.236747
H9    H     H_    0.954130 0.208383 0.843352 0.109734
H10   H     H_    0.045869 0.791617 0.156647 0.109736
H11   H     H_    0.965314 0.110544 0.744353 0.160028
H12   H     H_    0.659688 0.791404 0.561058 0.180776
H13   H     H_    0.034685 0.889456 0.255647 0.160030
H14   H     H_    0.900522 0.202517 0.599463 0.223772
H15   H     H_    0.099479 0.797484 0.400537 0.223771
H16   H     H_    0.874555 0.094295 0.654940 0.193145
H17   H     H_    0.125445 0.905705 0.345060 0.193144
H18   H     H_    0.908753 0.316671 0.703012 0.195596
H19   H     H_    0.091247 0.683330 0.296988 0.195591
H20   H     H_    0.145747 0.290826 0.757225 0.138358
H21   H     H_    0.854253 0.709174 0.242776 0.138357
H22   H     H_    0.286666 0.398052 0.589508 0.101355
H23   H     H_    0.283136 0.139964 0.535879 0.238366
H24   H     H_    0.713337 0.601949 0.410494 0.101355
H25   H     H_    0.192089 0.296913 0.598441 0.072298
H26   H     H_    0.807913 0.703087 0.401560 0.072299
H27   H     H_    0.212038 0.329644 0.427795 0.171099
H28   H     H_    0.787962 0.670358 0.572207 0.171098
H29   H     H_    0.022941 0.386938 0.745672 0.170679
H30   H     H_    0.977059 0.613063 0.254329 0.170679
H31   H     H_    0.396458 0.258099 0.556196 0.227530
H32   H     H_    0.603541 0.741899 0.443800 0.227530
H33   H     H_    0.220894 0.101767 0.421617 0.148178
H34   H     H_    0.716864 0.860035 0.464119 0.238366
H35   H     H_    0.779105 0.898232 0.578382 0.148179
H36   H     H_    0.224487 0.243452 0.363762 0.200330
H37   H     H_    0.775511 0.756549 0.636238 0.200330
H38   H     H_    0.721089 0.625149 0.793985 0.224168
H39   H     H_    0.278902 0.374845 0.206016 0.224157
H40   H     H_    0.914485 0.672203 0.978660 0.056124
H41   H     H_    0.085516 0.327787 0.021337 0.056111
H42   H     H_    0.762452 0.546598 0.897308 0.076880
H43   H     H_    0.237541 0.453392 0.102689 0.076869
H44   H     H_    0.093151 0.336384 0.658764 0.044316
H45   H     H_    0.110812 0.145992 0.362594 0.188551
H46   H     H_    0.906850 0.663616 0.341237 0.044317
H47   H     H_    0.588431 0.376630 0.664702 0.184881
H48   H     H_    0.411570 0.623365 0.335292 0.184887
H49   H     H_    0.648853 0.404855 0.818862 0.084713
H50   H     H_    0.351145 0.595132 0.181129 0.084709
H51   H     H_    0.761240 0.492412 0.617687 0.187577
H52   H     H_    0.238765 0.507598 0.382318 0.187574
H53   H     H_    0.796430 0.325268 0.747547 0.085772
H54   H     H_    0.203574 0.674732 0.252451 0.085766
H55   H     H_    0.810815 0.193630 0.793409 0.103514
H56   H     H_    0.889188 0.854010 0.637406 0.188549
H57   H     H_    0.189185 0.806371 0.206591 0.103511
H58   H     H_    0.121426 0.218843 0.799498 0.205649
H59   H     H_    0.878574 0.781156 0.200502 0.205651
H60   H     H_    0.113694 0.317057 0.903683 0.151370
H61   H     H_    0.886306 0.682942 0.096318 0.151375
H62   H     H_    0.142135 0.391252 0.864376 0.192961
H63   H     H_    0.857865 0.608747 0.135624 0.192960
H64   H     H_    0.403811 0.451767 0.738759 0.037901
H65   H     H_    0.596192 0.548232 0.261242 0.037899
H66   H     H_    0.250933 0.275124 0.716536 0.031832
H67   H     H_    0.647517 0.530641 0.787958 0.184665
H68   H     H_    0.749068 0.724876 0.283465 0.031833
H69   H     H_    0.107209 0.233495 0.437445 0.214223
H70   H     H_    0.892791 0.766506 0.562557 0.214223
H71   H     H_    0.352476 0.469349 0.212038 0.184662
H72   H     H_    0.800643 0.601605 0.701335 0.187677
O1    O     O_R   0.592570 0.552270 0.644860 -0.614458
O2    O     O_R   0.407350 0.552250 0.459650 -0.632458
O3    O     O_R   0.407370 0.459660 0.552260 -0.625728
O4    O     O_R   0.592630 0.540340 0.447740 -0.625726
O5    O     O_R   0.407450 0.355140 0.447760 -0.634146
O6    O     O_R   0.592550 0.644860 0.552240 -0.634145
O7    O     O_R   0.052270 0.092540 0.644860 -0.632308
O8    O     O_R   0.947730 0.907460 0.355140 -0.632307
O9    O     O_R   0.947710 0.092600 0.540380 -0.593093
O10   O     O_R   0.052290 0.907400 0.459620 -0.593093
O11   O     O_R   0.144880 0.092570 0.552230 -0.610861
O12   O     O_R   0.407430 0.447730 0.355140 -0.614456
O13   O     O_R   0.855120 0.907430 0.447770 -0.610861
O14   O     O_R   0.040310 0.092630 0.447750 -0.610486
O15   O     O_R   0.959690 0.907370 0.552250 -0.610486
O16   O     O_R   0.052260 0.644880 0.092510 -0.647984
O17   O     O_R   0.947740 0.355120 0.907490 -0.647981
O18   O     O_2   0.876342 0.713908 0.896335 -0.576956
O19   O     O_2   0.123640 0.286098 0.103684 -0.576959
O20   O     O_2   0.987421 0.264847 0.538333 -0.547825
O21   O     O_2   0.012580 0.735154 0.461668 -0.547827
O22   O     O_2   0.670081 0.304796 0.796958 -0.545477
O23   O     O_R   0.947720 0.540390 0.092600 -0.616254
O24   O     O_2   0.329922 0.695195 0.203031 -0.545475
O25   O     O_2   0.717790 0.288392 0.624255 -0.542651
O26   O     O_2   0.282229 0.711622 0.375743 -0.542641
O27   O     O_2   0.790058 0.172079 0.674521 -0.539671
O28   O     O_2   0.209941 0.827920 0.325478 -0.539670
O29   O     O_2   0.467149 0.409919 0.683555 -0.618636
O30   O     O_2   0.532852 0.590077 0.316444 -0.618633
O31   O     O_2   0.337732 0.250777 0.689661 -0.533741
O32   O     O_2   0.662268 0.749221 0.310338 -0.533740
O33   O     O_R   0.052280 0.459610 0.907400 -0.616252
O34   O     O_R   0.959660 0.552230 0.907350 -0.620013
O35   O     O_R   0.040340 0.447770 0.092650 -0.620007
O36   O     O_R   0.855120 0.447750 0.907440 -0.606844
O37   O     O_R   0.144880 0.552250 0.092560 -0.606845
O38   O     O_R   0.592650 0.447750 0.540350 -0.632458
Zn1   Zn    Zn3+2 0.499940 0.569790 0.569780 0.973828
Zn2   Zn    Zn3+2 0.500060 0.430210 0.430220 0.973828
Zn3   Zn    Zn3+2 0.069820 0.999960 0.569760 1.020740
Zn4   Zn    Zn3+2 0.930180 0.000040 0.430240 1.020742
Zn5   Zn    Zn3+2 0.069800 0.569760 0.999940 0.980384
Zn6   Zn    Zn3+2 0.930200 0.430240 0.000060 0.980387

loop_
_geom_bond_atom_site_label_1
_geom_bond_atom_site_label_2
_ccdc_geom_bond_type
C27   O7    A    
O5    Zn2   S    
C62   O22   D    
C4    H35   S    
C34   C56   S    
C23   C45   S    
C2    H70   S    
C3    C23   S    
C17   O4    A    
C72   O32   D    
C74   H69   S    
C44   H9    S    
C58   O18   D    
C63   H50   S    
C2    C57   S    
C47   C49   S    
O1    Zn1   S    
C72   H68   S    
C74   H45   S    
C4    H34   S    
C49   C60   S    
C11   H51   S    
C22   H5    S    
C38   C42   S    
O9    Zn4   S    
C25   C40   S    
C11   C14   S    
O10   Zn3   S    
C45   C51   S    
C27   C47   S    
C40   C49   S    
C23   H31   S    
C32   O17   A    
O12   Zn2   S    
C56   C57   S    
C36   C47   S    
C42   H62   S    
C34   H12   S    
C59   H41   S    
C12   O12   A    
C50   H15   S    
C4    C73   S    
C6    C15   S    
C29   C67   S    
C55   C74   S    
C44   C66   S    
C24   H6    S    
C41   H19   S    
C8    H43   S    
C9    H47   S    
C12   C15   S    
C32   O33   A    
C60   H44   S    
C16   O3    A    
O17   Zn6   S    
C7    C58   S    
C59   O19   D    
C51   H22   S    
C66   H55   S    
C64   H53   S    
C25   C32   S    
C48   C50   S    
C31   O16   A    
C26   C31   S    
C33   O34   A    
C28   O8    A    
C49   H14   S    
C54   H26   S    
O23   Zn6   S    
O37   Zn5   S    
C25   C44   S    
C62   H49   S    
C1    O38   A    
C52   C54   S    
C26   C43   S    
C29   O14   A    
C10   C21   S    
C27   O9    A    
C30   O13   A    
C4    C34   S    
C8    C19   S    
C37   H17   S    
C65   O26   D    
C29   O11   A    
C34   H32   S    
C65   H54   S    
C52   C70   S    
C5    C7    S    
C30   C73   S    
C68   O28   D    
C63   O24   D    
C6    C8    S    
C31   O23   A    
C3    H33   S    
O2    Zn1   S    
O8    Zn4   S    
C10   H8    S    
C53   H25   S    
C13   C24   S    
C61   O21   D    
C38   H58   S    
C7    H42   S    
C20   C64   S    
C68   H57   S    
C9    C14   S    
C6    H39   S    
C46   C68   S    
C19   C21   S    
C57   H28   S    
C54   C73   S    
O35   Zn6   S    
C3    H23   S    
C9    C20   S    
C5    H67   S    
O33   Zn5   S    
C13   H2    S    
C7    C18   S    
C38   H20   S    
C5    C14   S    
C66   O27   D    
C67   C74   S    
C40   H18   S    
C37   C48   S    
C43   H61   S    
C17   C56   S    
C39   H21   S    
C38   C47   S    
C2    C73   S    
C46   H10   S    
C13   H52   S    
C24   H4    S    
C13   C15   S    
C55   H36   S    
C1    O1    A    
C17   O6    A    
O14   Zn4   S    
C53   C71   S    
C41   C50   S    
C28   O10   A    
C39   H59   S    
O13   Zn4   S    
C36   H16   S    
C69   H64   S    
C6    H71   S    
C28   C48   S    
C21   C65   S    
C10   C15   S    
C18   C22   S    
C37   H13   S    
C3    C67   S    
O3    Zn1   S    
O11   Zn3   S    
C22   H3    S    
C23   H1    S    
O6    Zn1   S    
C10   H48   S    
C25   C42   S    
O4    Zn2   S    
C39   C43   S    
C11   H72   S    
C71   H66   S    
C5    H38   S    
C36   H11   S    
C35   O35   A    
C51   C69   S    
C55   H27   S    
C11   C22   S    
C41   H30   S    
C42   H60   S    
O34   Zn5   S    
C69   O29   D    
C71   O31   D    
C64   O25   D    
C19   C24   S    
C8    C59   S    
C19   C35   S    
C40   H29   S    
C12   O2    A    
C57   H37   S    
C70   O30   D    
C52   H24   S    
C2    H56   S    
O38   Zn2   S    
C43   H63   S    
C16   O5    A    
C18   C20   S    
C20   C62   S    
C53   C67   S    
C18   C33   S    
C60   O20   D    
C21   C63   S    
C36   C44   S    
C26   C46   S    
C16   C45   S    
O7    Zn3   S    
C70   H65   S    
C54   C72   S    
C45   C55   S    
O15   Zn3   S    
C33   O36   A    
C58   H40   S    
C50   C61   S    
C1    C14   S    
O36   Zn6   S    
C30   O15   A    
C51   C53   S    
C37   C46   S    
C35   O37   A    
O16   Zn5   S    
C52   C56   S    
C26   C41   S    
C9    H7    S    
C39   C48   S    
C61   H46   S    
