data_mof_unit_19754.cif
_audit_creation_date              2012-12-11T17:29:30-0500
_audit_creation_method            fapswitch 2.2
_symmetry_space_group_name_H-M    P1
_symmetry_Int_Tables_number       1
_space_group_crystal_system       triclinic
_cell_length_a                    19.222067
_cell_length_b                    19.312593
_cell_length_c                    20.379054
_cell_angle_alpha                 107.268798
_cell_angle_beta                  105.981665
_cell_angle_gamma                 112.190481
_cell_volume                      6012.77207811

loop_
_atom_site_label
_atom_site_type_symbol
_atom_type_description
_atom_site_fract_x
_atom_site_fract_y
_atom_site_fract_z
_atom_type_partial_charge
C1    C     C_R   0.087293 0.086288 0.353925 0.506186
C2    C     C_R   0.244074 0.070763 0.544114 -0.162409
C3    C     C_R   0.156568 0.220876 0.712181 0.486407
C4    C     C_R   0.759803 0.925293 0.499792 -0.151472
C5    C     C_R   0.001561 0.766226 0.434696 -0.150796
C6    C     C_R   0.233285 0.268527 0.715569 -0.025029
C7    C     C_R   0.952646 0.717181 0.458696 0.080561
C8    C     C_R   0.251337 0.999915 0.531840 0.193470
C9    C     C_R   0.021092 0.979438 0.725231 0.038471
C10   C     C_R   0.004968 0.655276 0.529091 -0.247776
C11   C     C_R   0.951306 0.644730 0.460891 0.102173
C12   C     C_R   0.756202 0.993265 0.540402 0.070959
C13   C     C_R   0.900412 0.567846 0.396466 -0.277579
C14   C     C_R   0.904631 0.498938 0.399873 0.148622
C15   C     C_R   0.962282 0.509618 0.467956 0.037674
C16   C     C_R   0.839621 0.819463 0.281302 -0.134134
C17   C     C_R   0.011941 0.588206 0.532774 0.140316
C18   C     C_R   0.853545 0.420325 0.336414 -0.206830
C19   C     C_R   0.859613 0.352103 0.340022 -0.202466
C20   C     C_R   0.918287 0.362875 0.406375 0.155245
C21   C     C_R   0.971064 0.442318 0.470799 -0.024706
C22   C     C_R   0.033002 0.454599 0.537452 0.094135
C23   C     C_R   0.758957 0.798014 0.274129 0.077715
C24   C     C_R   0.081749 0.534093 0.602475 0.041303
C25   C     C_R   0.069476 0.599685 0.599603 -0.301671
C26   C     C_R   0.924166 0.295046 0.409754 -0.274581
C27   C     C_R   0.984684 0.307165 0.474443 0.051473
C28   C     C_R   0.960223 0.205095 0.526942 0.024122
C29   C     C_R   0.042731 0.386373 0.536562 -0.063637
C30   C     C_R   0.366828 0.978620 0.593086 0.507471
C31   C     C_R   0.328560 0.002332 0.541598 -0.068661
C32   C     C_R   0.361497 0.026625 0.494304 -0.375213
C33   C     C_R   0.432967 0.026141 0.495749 0.177297
C34   C     C_R   0.984913 0.235691 0.479112 0.024327
C35   C     C_R   0.475832 0.007381 0.549851 -0.009778
C36   C     C_R   0.445876 0.988735 0.602102 -0.047314
C37   C     C_R   0.461404 0.043317 0.443212 -0.179446
C38   C     C_R   0.531424 0.039253 0.442327 -0.212116
C39   C     C_R   0.573673 0.019342 0.494779 0.136872
C40   C     C_R   0.762544 0.812811 0.346321 -0.129478
C41   C     C_R   0.547729 0.005706 0.550425 0.038700
C42   C     C_R   0.592719 0.988930 0.605445 0.128062
C43   C     C_R   0.567608 0.979488 0.662169 -0.198238
C44   C     C_R   0.495412 0.980599 0.661109 -0.197050
C45   C     C_R   0.231885 0.226223 0.647133 -0.191325
C46   C     C_R   0.641342 0.012303 0.491989 -0.279558
C47   C     C_R   0.683860 0.993244 0.544373 0.060462
C48   C     C_R   0.661957 0.982711 0.602311 -0.064468
C49   C     C_R   0.293774 0.355318 0.772798 0.025732
C50   C     C_R   0.319559 0.372548 0.849746 -0.204396
C51   C     C_R   0.373680 0.453995 0.906556 -0.181372
C52   C     C_R   0.038430 0.210313 0.463145 -0.161146
C53   C     C_R   0.401814 0.520320 0.887374 0.201125
C54   C     C_R   0.374995 0.503819 0.810772 -0.372413
C55   C     C_R   0.322279 0.421015 0.752305 0.540008
C56   C     C_R   0.924074 0.760258 0.499066 -0.154715
C57   C     C_R   0.614627 0.711986 0.067112 -0.260007
C58   C     C_R   0.687696 0.752429 0.134088 -0.181245
C59   C     C_R   0.536618 0.687240 0.069549 0.105313
C60   C     C_R   0.684407 0.768944 0.204575 0.105136
C61   C     C_R   0.608037 0.753813 0.207458 -0.363335
C62   C     C_R   0.534209 0.714560 0.140231 0.545462
C63   C     C_R   0.097146 0.025825 0.229568 -0.013145
C64   C     C_R   0.829617 0.064437 0.565890 -0.145571
C65   C     C_R   0.116684 0.966127 0.192892 0.535272
C66   C     C_R   0.144123 0.973075 0.137135 -0.330722
C67   C     C_R   0.175030 0.930674 0.477815 -0.166412
C68   C     C_R   0.155077 0.040524 0.119476 0.187089
C69   C     C_R   0.142682 0.102904 0.160845 -0.203449
C70   C     C_R   0.112608 0.095054 0.214370 -0.225405
C71   C     C_R   0.171424 0.043581 0.924129 -0.166945
C72   C     C_R   0.137176 0.045450 0.855456 -0.180706
C73   C     C_R   0.133365 0.970191 0.931958 0.219576
C74   C     C_R   0.064905 0.974173 0.793707 0.147200
C75   C     C_R   0.033642 0.898499 0.799003 -0.183136
C76   C     C_R   0.015117 0.947437 0.288608 -0.206594
C77   C     C_R   0.068404 0.896581 0.867629 -0.180444
C78   C     C_R   0.033756 0.052337 0.718346 -0.164078
C79   C     C_R   0.063457 0.019754 0.285620 -0.081555
C80   C     C_3   0.230280 0.160049 0.401960 0.174527
C81   C     C_3   0.304409 0.243815 0.465276 -0.266942
C82   C     C_3   0.385698 0.241308 0.486048 -1.054965
C83   C     C_3   0.058402 0.254007 0.730607 0.179646
C84   C     C_3   0.041577 0.300867 0.793709 -0.247979
C85   C     C_3   0.969336 0.315117 0.761710 -1.036765
C86   C     C_3   0.305802 0.866640 0.618298 0.173639
C87   C     C_3   0.226269 0.805127 0.543461 -0.344122
C88   C     C_3   0.201716 0.714673 0.526776 -0.980626
C89   C     C_R   0.964892 0.912765 0.653613 -0.121008
C90   C     C_3   0.351674 0.432482 0.652215 0.156612
C91   C     C_3   0.315318 0.438350 0.578586 -0.257687
C92   C     C_3   0.382029 0.472964 0.552096 -1.036579
C93   C     C_3   0.453649 0.760232 0.185271 0.179188
C94   C     C_3   0.435915 0.750029 0.251587 -0.269856
C95   C     C_3   0.434311 0.825720 0.300930 -1.016192
C96   C     C_3   0.175580 0.912507 0.261652 0.149693
C97   C     C_3   0.164981 0.829069 0.259152 -0.229081
C98   C     C_3   0.241443 0.840712 0.319869 -1.045175
H1    H     H_    0.878734 0.736135 0.519854 0.100232
H2    H     H_    0.715112 0.860162 0.479314 0.096333
H3    H     H_    0.819223 0.291176 0.290741 0.129345
H4    H     H_    0.881812 0.232747 0.362449 0.134710
H5    H     H_    0.106721 0.660446 0.649377 0.135232
H6    H     H_    0.328484 0.041861 0.453350 0.152848
H7    H     H_    0.428424 0.057977 0.401846 0.123092
H8    H     H_    0.552012 0.050717 0.400231 0.128047
H9    H     H_    0.661786 0.022223 0.449231 0.137274
H10   H     H_    0.860039 0.816890 0.236865 0.097089
H11   H     H_    0.602720 0.969884 0.706762 0.142604
H12   H     H_    0.160441 0.866932 0.449177 0.097122
H13   H     H_    0.477682 0.973304 0.705710 0.151064
H14   H     H_    0.745527 0.765440 0.129501 0.127794
H15   H     H_    0.618873 0.693442 0.013384 0.155079
H16   H     H_    0.394739 0.556037 0.797213 0.141356
H17   H     H_    0.603862 0.768058 0.261083 0.134823
H18   H     H_    0.395616 0.464945 0.965612 0.145486
H19   H     H_    0.298475 0.322428 0.865865 0.160612
H20   H     H_    0.165408 0.103763 0.852199 0.121464
H21   H     H_    0.223446 0.100917 0.972669 0.124679
H22   H     H_    0.150386 0.154771 0.147398 0.138146
H23   H     H_    0.074266 0.115132 0.763370 0.155878
H24   H     H_    0.099121 0.142156 0.242476 0.173273
H25   H     H_    0.979045 0.841958 0.752118 0.113329
H26   H     H_    0.153705 0.924054 0.105943 0.154921
H27   H     H_    0.038936 0.839604 0.872794 0.122981
H28   H     H_    0.712150 0.803474 0.362446 0.095939
H29   H     H_    0.074244 0.229039 0.432800 0.160246
H30   H     H_    0.849218 0.125649 0.608082 0.111147
H31   H     H_    0.995367 0.884158 0.250445 0.178998
H32   H     H_    0.276258 0.250989 0.625840 0.130648
H33   H     H_    0.241428 0.146840 0.350151 0.113425
H34   H     H_    0.943289 0.847408 0.637912 0.092382
H35   H     H_    0.227572 0.110374 0.419972 0.089003
H36   H     H_    0.310446 0.292887 0.445846 0.217037
H37   H     H_    0.292962 0.259799 0.516710 0.196239
H38   H     H_    0.382411 0.195465 0.509164 0.272982
H39   H     H_    0.438447 0.304086 0.530535 0.274035
H40   H     H_    0.397838 0.223775 0.435041 0.271823
H41   H     H_    0.003034 0.190371 0.693635 0.107754
H42   H     H_    0.069311 0.289197 0.696612 0.102917
H43   H     H_    0.026668 0.264280 0.825862 0.197680
H44   H     H_    0.098697 0.362643 0.834139 0.214367
H45   H     H_    0.293864 0.135125 0.578184 0.115792
H46   H     H_    0.984628 0.354833 0.732328 0.268408
H47   H     H_    0.958324 0.347780 0.809261 0.275872
H48   H     H_    0.911268 0.254472 0.721110 0.266654
H49   H     H_    0.089947 0.363229 0.625107 0.117187
H50   H     H_    0.145487 0.375038 0.573335 0.157179
H51   H     H_    0.125686 0.569017 0.716067 0.110270
H52   H     H_    0.200356 0.597096 0.685139 0.110211
H53   H     H_    0.294002 0.854984 0.665422 0.132891
H54   H     H_    0.355854 0.852300 0.615168 0.095873
H55   H     H_    0.174335 0.815836 0.547282 0.220044
H56   H     H_    0.028474 0.748120 0.397193 0.104549
H57   H     H_    0.237644 0.814813 0.495556 0.191104
H58   H     H_    0.250190 0.701065 0.516947 0.264994
H59   H     H_    0.141376 0.671503 0.474689 0.277161
H60   H     H_    0.194892 0.703506 0.575538 0.268009
H61   H     H_    0.709045 0.911413 0.628138 0.111263
H62   H     H_    0.771258 0.015670 0.686109 0.116443
H63   H     H_    0.373998 0.386754 0.641205 0.096958
H64   H     H_    0.406599 0.495049 0.694561 0.100848
H65   H     H_    0.263926 0.375396 0.532999 0.198200
H66   H     H_    0.288757 0.480461 0.588615 0.206066
H67   H     H_    0.043741 0.716758 0.578138 0.137863
H68   H     H_    0.429766 0.538878 0.594154 0.269879
H69   H     H_    0.352582 0.471270 0.496075 0.274369
H70   H     H_    0.413313 0.435093 0.545742 0.271513
H71   H     H_    0.401038 0.761824 0.147028 0.123782
H72   H     H_    0.510653 0.822125 0.207577 0.076287
H73   H     H_    0.374551 0.692781 0.228509 0.209154
H74   H     H_    0.484910 0.742659 0.287847 0.193942
H75   H     H_    0.496244 0.882950 0.326620 0.270029
H76   H     H_    0.419800 0.816108 0.347708 0.280132
H77   H     H_    0.385858 0.834547 0.265876 0.267301
H78   H     H_    0.858680 0.562303 0.344471 0.132184
H79   H     H_    0.856013 0.207823 0.523222 0.115823
H80   H     H_    0.944807 0.291887 0.595690 0.103116
H81   H     H_    0.186315 0.953958 0.319117 0.102494
H82   H     H_    0.231260 0.942592 0.251591 0.086724
H83   H     H_    0.109174 0.797348 0.268090 0.195592
H84   H     H_    0.154760 0.788155 0.201826 0.201067
H85   H     H_    0.299381 0.879322 0.317084 0.277127
H86   H     H_    0.235422 0.778689 0.310571 0.275449
H87   H     H_    0.246011 0.871387 0.377386 0.275112
H88   H     H_    0.808970 0.411688 0.284332 0.131714
N1    N     N_R   0.052570 0.055840 0.395080 -0.084487
N2    N     N_2   0.461542 0.620139 0.005676 -0.058456
N3    N     N_2   0.163970 0.041371 0.053052 -0.089868
N4    N     N_R   0.834730 0.954500 0.499860 -0.038958
N5    N     N_2   0.144913 0.972046 0.004229 -0.098281
N6    N     N_R   0.890190 0.849120 0.355200 -0.037919
N7    N     N_R   0.997110 0.161210 0.539740 -0.064997
N8    N     N_R   0.841940 0.845190 0.395070 -0.041134
N9    N     N_R   0.045360 0.165140 0.499870 -0.042817
N10   N     N_R   0.877490 0.041590 0.539730 -0.041840
N11   N     N_R   0.009810 0.968740 0.355210 -0.072502
N12   N     N_R   0.954640 0.834860 0.500130 -0.037650
N13   N     N_R   0.158060 0.154810 0.604930 -0.062145
N14   N     N_3   0.112020 0.397324 0.597066 -0.190104
N15   N     N_3   0.142228 0.548783 0.672269 -0.199760
N16   N     N_3   0.709472 0.966250 0.657404 -0.220497
N17   N     N_3   0.914116 0.226775 0.565203 -0.229319
N18   N     N_R   0.122510 0.958410 0.460270 -0.045002
N19   N     N_R   0.990190 0.031260 0.644790 -0.046763
N20   N     N_R   0.947430 0.944160 0.604920 -0.038695
N21   N     N_R   0.165270 0.045500 0.500140 -0.051262
N22   N     N_R   0.109810 0.150880 0.644800 -0.105776
N23   N     N_R   0.002890 0.838790 0.460260 -0.034592
N24   N     N_2   0.466932 0.601118 0.944012 -0.092251
Ni1   Ni    Ni4+2 0.104370 0.104380 0.500010 0.227771
Ni2   Ni    Ni4+2 0.895630 0.895620 0.499990 0.209821
Ni3   Ni    Ni4+2 0.006290 0.904630 0.408560 0.207574
Ni4   Ni    Ni4+2 0.993710 0.095370 0.591440 0.204523
O1    O     O_3   0.156479 0.165464 0.387106 -0.690735
O2    O     O_3   0.129360 0.248950 0.765250 -0.693029
O3    O     O_3   0.328531 0.951493 0.636365 -0.660900
O4    O     O_3   0.288304 0.405049 0.676388 -0.678630
O5    O     O_3   0.457359 0.690097 0.142214 -0.661591
O6    O     O_3   0.101654 0.896391 0.205161 -0.675546

loop_
_geom_bond_atom_site_label_1
_geom_bond_atom_site_label_2
_ccdc_geom_bond_type
C13   H78   S    
C66   C68   A    
C87   C88   S    
C63   C65   A    
C93   C94   S    
C6    C45   A    
N20   Ni2   S    
C27   C29   A    
C50   H19   S    
C19   H3    S    
C41   C42   A    
C14   C18   A    
C35   C36   A    
C76   C79   A    
C3    C6    A    
C83   H41   S    
C83   O2    S    
C57   C58   A    
N11   Ni3   S    
N7    Ni4   S    
C39   C41   A    
C63   C79   S    
N19   N20   A    
C7    C11   S    
C93   H71   S    
C26   C27   A    
C37   H7    S    
C89   H34   S    
N1    N11   A    
C75   H25   S    
C3    N22   A    
C88   H58   S    
C21   C22   A    
C22   C29   A    
C95   H76   S    
C85   H47   S    
C82   H39   S    
C76   N11   A    
C89   N20   A    
H62   N16   S    
C38   C39   A    
C12   C64   A    
C84   H43   S    
C57   C59   A    
C10   C17   A    
C58   C60   A    
C5    H56   S    
C48   N16   S    
H50   N14   S    
C18   C19   A    
C98   H85   S    
N3    N5    D    
N12   N23   A    
C95   H77   S    
N4    Ni2   S    
C67   N18   A    
C16   N6    A    
C94   H74   S    
C46   C47   A    
N2    N24   D    
C98   H86   S    
C19   C20   A    
C53   N24   S    
C64   H30   S    
N23   Ni3   S    
C61   H17   S    
H79   N17   S    
C81   H37   S    
C88   H60   S    
C4    C12   A    
N12   Ni2   S    
C61   C62   A    
N4    N10   A    
C55   O4    S    
C87   H55   S    
C28   C34   A    
C45   H32   S    
C6    C49   S    
C80   H33   S    
H80   N17   S    
C96   C97   S    
N21   Ni1   S    
C2    H45   S    
C28   N17   S    
C91   H65   S    
H49   N14   S    
C69   C70   A    
C52   N9    A    
C7    C56   A    
C12   C47   S    
C85   H46   S    
C83   H42   S    
C52   H29   S    
C97   C98   S    
C80   O1    S    
C56   N12   A    
C1    N1    A    
C27   C34   S    
C23   C60   S    
C93   H72   S    
C24   N15   S    
C74   C75   A    
C90   H63   S    
C47   C48   A    
C4    N4    A    
C97   H84   S    
C81   H36   S    
C24   C25   A    
C72   C74   A    
C9    C89   A    
C91   C92   S    
C5    C7    A    
C86   C87   S    
C68   C69   A    
H61   N16   S    
C40   N8    A    
N7    N9    A    
C3    O2    S    
C96   O6    S    
C98   H87   S    
N18   Ni3   S    
C18   H88   S    
C81   C82   S    
C80   H35   S    
C58   H14   S    
C60   C61   A    
C51   C53   A    
C86   O3    S    
N6    N8    A    
C38   H8    S    
C43   C44   A    
C1    O1    S    
C37   C38   A    
C86   H54   S    
C94   H73   S    
N10   Ni4   S    
C76   H31   S    
C70   H24   S    
C67   H12   S    
C83   C84   S    
C63   C70   A    
C84   H44   S    
C29   N14   S    
C40   H28   S    
C46   H9    S    
C32   H6    S    
C50   C51   A    
C59   N2    S    
C42   C48   A    
C88   H59   S    
C84   C85   S    
C97   H83   S    
C75   C77   A    
C73   N5    S    
C85   H48   S    
C30   O3    S    
C90   H64   S    
N19   Ni4   S    
C49   C50   A    
C16   C23   A    
C39   C46   A    
C1    C79   A    
C66   H26   S    
C22   C24   A    
C91   H66   S    
C36   C44   A    
C42   C43   A    
H51   N15   S    
N6    Ni3   S    
C77   H27   S    
C71   C73   A    
C15   C17   A    
C54   C55   A    
C59   C62   A    
N22   Ni4   S    
C8    C31   S    
C31   C32   A    
C2    C8    A    
N1    Ni1   S    
C80   C81   S    
C28   N7    A    
C54   H16   S    
C65   O6    S    
C57   H15   S    
N9    Ni1   S    
C53   C54   A    
C87   H57   S    
C71   H21   S    
C45   N13   A    
C5    N23   A    
C69   H22   S    
C34   C52   A    
C51   H18   S    
H52   N15   S    
C30   C36   A    
C93   O5    S    
C17   C25   A    
C62   O5    S    
C96   H82   S    
C4    H2    S    
C95   H75   S    
C78   N19   A    
C71   C72   A    
C82   H40   S    
C49   C55   A    
C86   H53   S    
C32   C33   A    
C11   C13   A    
C92   H69   S    
C90   C91   S    
C30   C31   A    
C20   C26   A    
C68   N3    S    
C10   H67   S    
C64   N10   A    
N13   N22   A    
C33   C35   A    
C33   C37   A    
N18   N21   A    
N13   Ni1   S    
C9    C78   A    
C96   H81   S    
C82   H38   S    
C94   C95   S    
C35   C41   A    
C25   H5    S    
C92   H70   S    
C90   O4    S    
C10   C11   A    
C16   H10   S    
N8    Ni2   S    
C44   H13   S    
C92   H68   S    
C15   C21   A    
C20   C21   A    
C8    C67   A    
C65   C66   A    
C9    C74   S    
C72   H20   S    
C73   C77   A    
C14   C15   A    
C2    N21   A    
C43   H11   S    
C56   H1    S    
C13   C14   A    
C26   H4    S    
C23   C40   A    
C78   H23   S    
