data_mof_unit_48291.cif
_audit_creation_date              2012-12-11T17:10:41-0500
_audit_creation_method            fapswitch 2.2
_symmetry_space_group_name_H-M    P1
_symmetry_Int_Tables_number       1
_space_group_crystal_system       triclinic
_cell_length_a                    15.061372
_cell_length_b                    14.875485
_cell_length_c                    14.875569
_cell_angle_alpha                 109.600082
_cell_angle_beta                  109.990675
_cell_angle_gamma                 109.143167
_cell_volume                      2555.29507815

loop_
_atom_site_label
_atom_site_type_symbol
_atom_type_description
_atom_site_fract_x
_atom_site_fract_y
_atom_site_fract_z
_atom_type_partial_charge
C1    C     C_R   0.201342 0.293042 0.195168 -0.162369
C2    C     C_R   0.565742 0.564664 0.868474 0.081785
C3    C     C_R   0.450424 0.173262 0.497968 0.088638
C4    C     C_R   0.174294 0.462225 0.496813 0.050764
C5    C     C_R   0.403866 0.707225 0.407452 -0.160742
C6    C     C_R   0.798889 0.494444 0.590536 -0.131252
C7    C     C_R   0.567062 0.475380 0.254202 -0.145284
C8    C     C_R   0.721104 0.814306 0.746636 -0.143266
C9    C     C_R   0.814220 0.723937 0.750704 -0.123777
C10   C     C_R   0.472678 0.564449 0.249108 -0.121272
C11   C     C_R   0.496485 0.800987 0.590916 -0.125097
C12   C     C_R   0.596250 0.504788 0.804638 -0.169339
C13   C     C_R   0.702464 0.398684 0.407017 -0.158169
C14   C     C_R   0.434594 0.801909 0.498273 0.096110
C15   C     C_R   0.795321 0.428613 0.497077 0.068677
C16   C     C_R   0.549804 0.549237 0.224146 0.072671
C17   C     C_R   0.824105 0.827059 0.776072 0.072972
C18   C     C_R   0.100055 0.617003 0.291859 -0.120958
C19   C     C_R   0.089336 0.584744 0.367387 -0.120534
C20   C     C_R   0.009944 0.477521 0.329049 0.112061
C21   C     C_R   0.940623 0.403957 0.214355 -0.186651
C22   C     C_R   0.951925 0.436707 0.139302 -0.119994
C23   C     C_R   0.432621 0.185970 0.406672 -0.159906
C24   C     C_R   0.031877 0.543078 0.178024 -0.104375
C25   C     C_R   0.898499 0.427253 0.407289 -0.242393
C26   C     C_R   0.881595 0.412633 0.488964 0.056050
C27   C     C_R   0.955475 0.402042 0.567636 0.071777
C28   C     C_R   0.051636 0.416407 0.567370 -0.250035
C29   C     C_R   0.071525 0.439811 0.490152 0.063504
C30   C     C_R   0.993408 0.444046 0.408156 0.017345
C31   C     C_R   0.013887 0.432445 0.760197 -0.157645
C32   C     C_R   0.992050 0.406119 0.835003 -0.204885
C33   C     C_R   0.889551 0.321563 0.798279 -0.277805
C34   C     C_R   0.276396 0.535440 0.591487 -0.145843
C35   C     C_R   0.808578 0.263053 0.686635 0.812743
C36   C     C_R   0.830099 0.288928 0.611513 -0.320554
C37   C     C_R   0.932900 0.374358 0.647643 0.045445
C38   C     C_R   0.660715 0.558712 0.038021 0.162811
C39   C     C_R   0.605332 0.602141 0.986003 0.029458
C40   C     C_R   0.573974 0.668787 0.045095 -0.203712
C41   C     C_R   0.571070 0.665618 0.137084 -0.195993
C42   C     C_R   0.598549 0.595057 0.168874 0.031089
C43   C     C_R   0.656869 0.554560 0.127957 0.169557
C44   C     C_3   0.651354 0.444820 0.090367 -0.524800
C45   C     C_R   0.528046 0.276333 0.591724 -0.061264
C46   C     C_3   0.656366 0.450098 0.992728 -0.513266
C47   C     C_R   0.345827 0.876186 0.394370 0.128045
C48   C     C_R   0.396426 0.879463 0.494524 0.031276
C49   C     C_R   0.424329 0.969146 0.592186 -0.169136
C50   C     C_R   0.427000 0.063878 0.591588 -0.138669
C51   C     C_R   0.402438 0.068335 0.493523 0.044230
C52   C     C_R   0.348523 0.969185 0.393578 0.153742
C53   C     C_3   0.361625 0.940869 0.293796 -0.499788
C54   C     C_3   0.357575 0.838682 0.294532 -0.507639
C55   C     C_R   0.021766 0.126174 0.962229 0.164881
C56   C     C_R   0.186745 0.435777 0.405924 -0.111007
C57   C     C_R   0.116129 0.121303 0.012708 0.029843
C58   C     C_R   0.121426 0.029311 0.952323 -0.205012
C59   C     C_R   0.025688 0.934415 0.860639 -0.199933
C60   C     C_R   0.924932 0.931497 0.830641 0.031041
C61   C     C_R   0.927149 0.032350 0.872658 0.181824
C62   C     C_3   0.857509 0.065646 0.911715 -0.525298
C63   C     C_3   0.960882 0.168383 0.009000 -0.527058
C64   C     C_R   0.502997 0.593660 0.804253 -0.129951
C65   C     C_R   0.289629 0.199547 0.193983 -0.140930
C66   C     C_R   0.197022 0.198750 0.130243 0.083114
H1    H     H_    0.155020 0.329846 0.167095 0.110538
H2    H     H_    0.856483 0.524660 0.675641 0.102216
H3    H     H_    0.625321 0.449168 0.252527 0.108936
H4    H     H_    0.697265 0.875430 0.749559 0.116207
H5    H     H_    0.877723 0.702885 0.761635 0.092776
H6    H     H_    0.440754 0.617502 0.237758 0.092480
H7    H     H_    0.520086 0.853442 0.675338 0.083957
H8    H     H_    0.668597 0.337950 0.321740 0.094037
H9    H     H_    0.040375 0.568541 0.119877 0.099473
H10   H     H_    0.160296 0.699710 0.321528 0.111855
H11   H     H_    0.142058 0.643243 0.455392 0.110881
H12   H     H_    0.660258 0.486046 0.833570 0.107702
H13   H     H_    0.877880 0.321456 0.183325 0.122547
H14   H     H_    0.898167 0.379893 0.051173 0.109592
H15   H     H_    0.842304 0.437632 0.348301 0.130612
H16   H     H_    0.111179 0.409722 0.627058 0.134258
H17   H     H_    0.093449 0.498925 0.790354 0.119101
H18   H     H_    0.054593 0.451439 0.921580 0.138681
H19   H     H_    0.872989 0.301300 0.856325 0.134474
H20   H     H_    0.766749 0.242037 0.525075 0.151929
H21   H     H_    0.538954 0.712009 0.013489 0.125087
H22   H     H_    0.374299 0.124977 0.320948 0.111879
H23   H     H_    0.533965 0.706471 0.172597 0.127572
H24   H     H_    0.725059 0.449276 0.148201 0.199100
H25   H     H_    0.571998 0.376392 0.064443 0.198274
H26   H     H_    0.733314 0.458466 0.994901 0.195870
H27   H     H_    0.580201 0.384796 0.912628 0.197461
H28   H     H_    0.456598 0.972249 0.670888 0.119454
H29   H     H_    0.290029 0.922454 0.220081 0.183322
H30   H     H_    0.442484 0.998941 0.311450 0.207324
H31   H     H_    0.283108 0.761647 0.221877 0.179901
H32   H     H_    0.295662 0.574867 0.676544 0.100022
H33   H     H_    0.435758 0.839101 0.312366 0.207091
H34   H     H_    0.195061 0.024615 0.982829 0.124849
H35   H     H_    0.029601 0.860590 0.824009 0.127552
H36   H     H_    0.804558 0.082831 0.854732 0.210971
H37   H     H_    0.815816 0.011526 0.937770 0.197849
H38   H     H_    0.967914 0.244481 0.007382 0.193879
H39   H     H_    0.976557 0.171852 0.089120 0.202824
H40   H     H_    0.561126 0.297424 0.677392 0.099394
H41   H     H_    0.124360 0.380456 0.319786 0.110737
H42   H     H_    0.478773 0.653471 0.832319 0.082977
H43   H     H_    0.320911 0.147478 0.164446 0.084918
H44   H     H_    0.339774 0.670819 0.323400 0.103958
N1    N     N_R   0.291070 0.347930 0.293870 -0.038849
N2    N     N_R   0.708930 0.502750 0.556810 -0.039440
N3    N     N_R   0.502760 0.445970 0.293860 -0.040210
N4    N     N_R   0.652110 0.708890 0.706130 -0.041661
N5    N     N_R   0.708930 0.652070 0.706130 -0.040665
N6    N     N_R   0.445950 0.502780 0.293850 -0.039952
N7    N     N_R   0.502760 0.708900 0.556790 -0.041192
N8    N     N_R   0.652110 0.445950 0.443190 -0.036472
N9    N     N_R   0.554050 0.497220 0.706150 -0.041764
N10   N     N_R   0.497240 0.291100 0.443210 -0.041313
N11   N     N_R   0.347890 0.554050 0.556810 -0.041074
N12   N     N_R   0.554050 0.347900 0.556830 -0.047915
N13   N     N_R   0.291070 0.497250 0.443190 -0.041717
N14   N     N_R   0.497240 0.554030 0.706140 -0.038136
N15   N     N_R   0.347890 0.291110 0.293870 -0.038588
N16   N     N_R   0.445950 0.652100 0.443170 -0.037466
Ni1   Ni    Ni4+2 0.369690 0.500010 0.369700 0.213302
Ni2   Ni    Ni4+2 0.630310 0.499990 0.630300 0.214585
Ni3   Ni    Ni4+2 0.500000 0.369720 0.369720 0.208122
Ni4   Ni    Ni4+2 0.500000 0.630280 0.630280 0.206094
F1    F     F_    0.709188 0.180852 0.651019 -0.725060
H45   H     H_    0.461450 0.136709 0.669852 0.119002

loop_
_geom_bond_atom_site_label_1
_geom_bond_atom_site_label_2
_ccdc_geom_bond_type
C41   H23   S    
C40   C41   A    
N16   Ni1   S    
C35   F1    S    
C53   H29   S    
C41   C42   A    
C3    C23   A    
C35   C36   A    
C57   C66   S    
C2    C12   A    
N4    N5    A    
C44   H24   S    
C1    C66   A    
C20   C30   S    
N9    N14   A    
C52   C53   S    
C26   C27   A    
C29   C30   A    
N3    Ni3   S    
C18   C24   A    
C40   H21   S    
C28   C29   A    
C38   C39   A    
C11   C14   A    
C46   H26   S    
C5    H44   S    
C31   H17   S    
C18   C19   A    
C19   H11   S    
C33   H19   S    
C34   H32   S    
C6    C15   A    
C2    C39   S    
C19   C20   A    
C44   C46   S    
N6    Ni1   S    
C55   C63   S    
C5    N16   A    
N1    N15   A    
C54   H31   S    
C49   H28   S    
C63   H39   S    
N7    N16   A    
N11   Ni4   S    
C4    C29   S    
C8    N4    A    
N3    N6    A    
N9    Ni2   S    
C6    H2    S    
C59   C60   A    
C21   C22   A    
C4    C56   A    
C53   H30   S    
C25   H15   S    
N4    Ni4   S    
C2    C64   A    
C64   H42   S    
C32   H18   S    
C4    C34   A    
N11   N13   A    
C28   H16   S    
N10   Ni3   S    
C59   H35   S    
C56   N13   A    
C13   N8    A    
C58   H34   S    
C11   H7    S    
C9    N5    A    
C23   N10   A    
C3    C51   S    
C15   C26   S    
C14   C48   S    
C36   H20   S    
C58   C59   A    
C64   N14   A    
C3    C45   A    
N5    Ni2   S    
C31   C37   A    
C12   H12   S    
C60   C61   A    
C65   N15   A    
C43   C44   S    
C56   H41   S    
C62   C63   S    
C12   N9    A    
N13   Ni1   S    
C47   C48   A    
C21   H13   S    
C50   C51   A    
N14   Ni4   S    
C13   H8    S    
N7    Ni4   S    
C65   H43   S    
C5    C14   A    
C44   H25   S    
C50   H45   S    
C47   C54   S    
C9    C17   A    
C7    C16   A    
C49   C50   A    
C34   N11   A    
C23   H22   S    
C13   C15   A    
N1    Ni1   S    
C22   C24   A    
C54   H33   S    
C42   C43   A    
C11   N7    A    
C16   C42   S    
C39   C40   A    
C10   N6    A    
C45   H40   S    
N10   N12   A    
C62   H37   S    
C25   C30   A    
C36   C37   A    
C18   H10   S    
C6    N2    A    
C31   C32   A    
C9    H5    S    
C63   H38   S    
C7    H3    S    
C24   H9    S    
C53   C54   S    
C47   C52   A    
C1    H1    S    
C45   N12   A    
C8    H4    S    
C8    C17   A    
C32   C33   A    
C7    N3    A    
C55   C57   A    
C25   C26   A    
C22   H14   S    
C51   C52   A    
N8    Ni3   S    
C10   C16   A    
C1    N1    A    
C38   C46   S    
N2    N8    A    
C57   C58   A    
C46   H27   S    
C27   C37   S    
C48   C49   A    
C55   C61   A    
C33   C35   A    
N12   Ni2   S    
C61   C62   S    
N2    Ni2   S    
C17   C60   S    
N15   Ni3   S    
C38   C43   A    
C20   C21   A    
C65   C66   A    
C27   C28   A    
C62   H36   S    
C10   H6    S    
