data_mof_unit_29514.cif
_audit_creation_date              2012-12-11T16:20:25-0500
_audit_creation_method            fapswitch 2.2
_symmetry_space_group_name_H-M    P1
_symmetry_Int_Tables_number       1
_space_group_crystal_system       triclinic
_cell_length_a                    6.905344
_cell_length_b                    34.352658
_cell_length_c                    38.367999
_cell_angle_alpha                 99.431372
_cell_angle_beta                  89.923151
_cell_angle_gamma                 90.349447
_cell_volume                      8978.3417812

loop_
_atom_site_label
_atom_site_type_symbol
_atom_type_description
_atom_site_fract_x
_atom_site_fract_y
_atom_site_fract_z
_atom_type_partial_charge
O1    O     O_R   0.494320 0.461440 0.460990 -0.534763
O2    O     O_R   0.821450 0.462560 0.532500 -0.520011
O3    O     O_R   0.994330 0.538560 0.539010 -0.539062
C1    C     C_R   0.651824 0.453759 0.543855 0.712780
O4    O     O_R   0.823870 0.456770 0.460860 -0.535876
O5    O     O_R   0.996760 0.532730 0.466860 -0.545355
C2    C     C_R   0.654571 0.446324 0.447678 0.730912
O6    O     O_R   0.491880 0.467270 0.533140 -0.530206
O7    O     O_3   0.661650 0.524930 0.502050 -0.374596
V1    V     V_3+5 0.935500 0.495380 0.499620 1.463894
O8    O     O_R   0.326630 0.537440 0.467500 -0.545208
C3    C     C_R   0.158098 0.546148 0.456181 0.743981
O9    O     O_R   0.324210 0.543230 0.539140 -0.538993
C4    C     C_R   0.155793 0.553818 0.552007 0.761291
V2    V     V_3+5 0.435810 0.504620 0.500380 1.436585
O10   O     O_3   0.159790 0.475070 0.497950 -0.358496
C5    C     C_R   0.915474 0.823284 0.797952 0.597342
N1    N     N_R   0.057954 0.826125 0.823143 -0.574851
C6    C     C_R   0.213802 0.801227 0.818729 0.611356
C7    C     C_R   0.229767 0.772102 0.788295 -0.106826
C8    C     C_R   0.082430 0.768167 0.762578 -0.009569
C9    C     C_R   0.924745 0.794199 0.767348 -0.059944
C10   C     C_R   0.388227 0.746543 0.783457 -0.129942
C11   C     C_R   0.399803 0.716485 0.754239 0.363904
C12   C     C_R   0.254235 0.712591 0.727571 -0.155526
C13   C     C_R   0.093239 0.738357 0.732140 -0.077559
C14   C     C_R   0.944045 0.734595 0.706324 -0.016071
C15   C     C_R   0.789144 0.762420 0.710790 0.150193
C16   C     C_R   0.780844 0.791135 0.741375 -0.129473
C17   C     C_R   0.267057 0.684734 0.696040 0.655380
N2    N     N_R   0.117201 0.679548 0.672322 -0.515306
C18   C     C_R   0.956573 0.703127 0.677207 0.683291
O11   O     O_2   0.764827 0.848442 0.802535 -0.492452
O12   O     O_2   0.352542 0.804487 0.843782 -0.485704
H1    H     H_    0.502595 0.748957 0.803026 0.187300
O13   O     O_2   0.429732 0.663460 0.688532 -0.483676
O14   O     O_2   0.808892 0.695479 0.654155 -0.501051
H2    H     H_    0.661032 0.811647 0.744727 0.164951
C19   C     C_R   0.128554 0.656739 0.607398 0.347240
C20   C     C_R   0.141503 0.625926 0.577786 -0.007773
C21   C     C_R   0.148149 0.586074 0.583122 -0.120074
C22   C     C_R   0.152114 0.577288 0.618038 -0.041731
C23   C     C_R   0.135387 0.608437 0.647396 0.363748
C24   C     C_R   0.127904 0.647949 0.641981 0.265545
C25   C     C_R   0.904423 0.850709 0.881543 0.410119
C26   C     C_R   0.885539 0.880138 0.911991 0.074866
C27   C     C_R   0.009186 0.913785 0.916555 -0.215043
C28   C     C_R   0.148368 0.917290 0.890564 -0.222617
H3    H     H_    0.243349 0.942869 0.893678 0.169135
C29   C     C_R   0.164177 0.889361 0.859787 0.411675
C30   C     C_R   0.042468 0.855476 0.854921 0.130179
C31   C     C_R   0.107299 0.862018 0.179161 0.644325
O15   O     O_2   0.183448 0.898746 0.185824 -0.510009
N3    N     N_R   0.014039 0.849520 0.147785 -0.535474
C32   C     C_R   0.933336 0.812540 0.140578 0.628255
C33   C     C_R   0.168461 0.877084 0.099421 -0.182727
C34   C     C_R   0.169479 0.901765 0.073550 0.101274
C35   C     C_R   0.844275 0.923121 0.092032 -0.341060
C36   C     C_R   0.844070 0.897908 0.117622 0.420044
C37   C     C_R   0.008128 0.875069 0.121407 0.326893
C38   C     C_R   0.047547 0.798266 0.197086 -0.058137
C39   C     C_R   0.125076 0.836700 0.204441 -0.067548
C40   C     C_R   0.213646 0.849366 0.237190 -0.216122
C41   C     C_R   0.948306 0.786259 0.165124 -0.068671
C42   C     C_R   0.005280 0.925654 0.069850 -0.087548
H4    H     H_    0.718947 0.941344 0.089846 0.131886
H5    H     H_    0.262106 0.879701 0.244085 0.170912
C43   C     C_R   0.149749 0.573199 0.429686 -0.106938
C44   C     C_R   0.227177 0.754206 0.274039 0.019587
C45   C     C_R   0.969209 0.712657 0.244251 0.009021
C46   C     C_R   0.102970 0.721210 0.272460 0.010411
C47   C     C_R   0.393842 0.756149 0.295934 0.206958
C48   C     C_R   0.402442 0.733001 0.323462 0.112544
C49   C     C_R   0.255568 0.703809 0.325770 -0.105567
C50   C     C_R   0.110763 0.697008 0.299144 -0.113354
C51   C     C_R   0.970830 0.666508 0.299440 -0.052716
C52   C     C_R   0.987745 0.641649 0.325334 0.652641
N4    N     N_R   0.123136 0.649155 0.351552 -0.523572
C53   C     C_R   0.251426 0.679883 0.352875 0.654840
C54   C     C_R   0.976281 0.621910 0.401676 0.350673
C55   C     C_R   0.985041 0.596275 0.426880 -0.317784
C56   C     C_R   0.305941 0.575673 0.406677 -0.295647
C57   C     C_R   0.297481 0.600235 0.380639 0.353662
C58   C     C_R   0.132540 0.623678 0.378235 0.332787
O16   O     O_2   0.372856 0.687024 0.380657 -0.510982
C59   C     C_R   0.182407 0.783213 0.252516 0.012115
C60   C     C_R   0.069123 0.771916 0.221711 -0.025746
C61   C     C_R   0.976366 0.734512 0.215667 0.046199
C62   C     C_R   0.236616 0.823504 0.261789 0.347381
H6    H     H_    0.864225 0.594802 0.444675 0.137226
O17   O     O_2   0.840855 0.801055 0.109615 -0.519830
C63   C     C_R   0.873879 0.747798 0.157638 -0.133497
H7    H     H_    0.293155 0.858979 0.102589 0.159014
H8    H     H_    0.806761 0.737538 0.132235 0.174602
C64   C     C_R   0.820634 0.685392 0.247187 -0.181684
C65   C     C_R   0.817661 0.662566 0.274211 0.132875
O18   O     O_2   0.873285 0.609557 0.324132 -0.510675
C66   C     C_R   0.892370 0.721374 0.181719 0.140084
H9    H     H_    0.698637 0.683317 0.229377 0.147442
H10   H     H_    0.433046 0.557745 0.408403 0.137654
C67   C     C_R   0.657488 0.312929 0.640651 0.587587
O19   O     O_2   0.739598 0.300038 0.608950 -0.516138
N5    N     N_R   0.594921 0.350959 0.648514 -0.541204
C68   C     C_R   0.508817 0.364917 0.680212 0.598925
C69   C     C_R   0.777734 0.401391 0.621810 0.135402
C70   C     C_R   0.787394 0.427313 0.596850 0.311258
C71   C     C_R   0.479113 0.400678 0.571590 0.317602
C72   C     C_R   0.467582 0.376913 0.597717 -0.138071
C73   C     C_R   0.614954 0.376570 0.622457 0.242321
C74   C     C_R   0.550915 0.300903 0.698489 -0.084071
C75   C     C_R   0.637963 0.287317 0.665442 -0.017646
C76   C     C_R   0.703403 0.248415 0.657680 -0.123342
C77   C     C_R   0.476782 0.339669 0.705627 -0.092274
C78   C     C_R   0.639760 0.426795 0.570783 -0.282753
H11   H     H_    0.343796 0.357478 0.598230 0.159715
H12   H     H_    0.772298 0.237433 0.632641 0.169767
C79   C     C_R   0.512550 0.072931 0.929327 -0.116429
C80   C     C_R   0.568223 0.209351 0.740079 0.054396
C81   C     C_R   0.483789 0.265881 0.785196 -0.014485
C82   C     C_R   0.522338 0.225123 0.775578 0.059419
C83   C     C_R   0.587091 0.168043 0.730733 -0.178271
C84   C     C_R   0.571971 0.143375 0.755964 -0.115064
C85   C     C_R   0.542057 0.158996 0.791581 -0.029449
C86   C     C_R   0.518291 0.200015 0.801682 -0.089524
C87   C     C_R   0.492274 0.215844 0.837786 -0.141903
C88   C     C_R   0.502453 0.189961 0.863013 0.610934
N6    N     N_R   0.518736 0.150016 0.852383 -0.534066
C89   C     C_R   0.535213 0.134312 0.817347 0.660898
C90   C     C_R   0.683017 0.101028 0.882810 0.329201
C91   C     C_R   0.676953 0.073992 0.907326 0.227592
C92   C     C_R   0.353700 0.097131 0.925167 -0.271675
C93   C     C_R   0.356766 0.122069 0.899949 -0.176206
C94   C     C_R   0.519417 0.124042 0.878503 0.324080
O20   O     O_2   0.545610 0.094825 0.807439 -0.502097
C95   C     C_R   0.594919 0.235365 0.715215 0.063838
C96   C     C_R   0.536467 0.275377 0.724049 0.013764
C97   C     C_R   0.465056 0.289938 0.758291 -0.011607
C98   C     C_R   0.680938 0.222805 0.681909 -0.174501
H13   H     H_    0.587331 0.111889 0.747426 0.172159
H14   H     H_    0.608146 0.153826 0.703785 0.125845
H15   H     H_    0.739277 0.193581 0.674350 0.124733
O21   O     O_2   0.460197 0.403351 0.687257 -0.525789
C99   C     C_R   0.368350 0.351144 0.737127 0.073343
C100  C     C_R   0.471496 0.281357 0.821510 -0.103511
C101  C     C_R   0.467311 0.257146 0.847355 0.369170
O22   O     O_2   0.501892 0.204427 0.897868 -0.498161
C102  C     C_R   0.370557 0.327141 0.763973 0.326687
H16   H     H_    0.469630 0.312738 0.830822 0.188715
H17   H     H_    0.225580 0.096722 0.941426 0.180516
H18   H     H_    0.232035 0.140243 0.897156 0.165658
C103  C     C_R   0.556835 0.168521 0.206655 0.600405
N7    N     N_R   0.539900 0.178680 0.173816 -0.549310
C104  C     C_R   0.530492 0.217303 0.169324 0.582081
C105  C     C_R   0.542310 0.248359 0.198755 -0.069967
C106  C     C_R   0.567315 0.238178 0.232825 -0.077511
C107  C     C_R   0.581048 0.197821 0.236978 -0.038282
C108  C     C_R   0.528695 0.289047 0.195382 0.132931
C109  C     C_R   0.506284 0.317963 0.226017 0.129703
C110  C     C_R   0.552784 0.308461 0.259720 -0.083486
C111  C     C_R   0.582982 0.268423 0.262796 -0.050130
C112  C     C_R   0.625296 0.258454 0.296152 -0.052399
C113  C     C_R   0.645132 0.218891 0.299824 -0.131103
C114  C     C_R   0.621158 0.188441 0.271141 0.123522
C115  C     C_R   0.572524 0.337520 0.290640 0.602908
N8    N     N_R   0.616063 0.326860 0.322562 -0.551131
C116  C     C_R   0.645131 0.288316 0.325654 0.572313
O23   O     O_2   0.549427 0.129969 0.209527 -0.509020
O24   O     O_2   0.506349 0.225205 0.136357 -0.524250
O25   O     O_2   0.554057 0.376208 0.289014 -0.501586
O26   O     O_2   0.692099 0.278932 0.357390 -0.525003
H19   H     H_    0.677357 0.211473 0.325578 0.171158
C117  C     C_R   0.475446 0.359205 0.379321 0.155005
C118  C     C_R   0.490418 0.386763 0.411108 0.068998
C119  C     C_R   0.642973 0.415295 0.415374 -0.268000
C120  C     C_R   0.785343 0.413930 0.388400 0.288143
C121  C     C_R   0.782619 0.383645 0.359098 0.375023
C122  C     C_R   0.625272 0.356718 0.353899 0.172432
C123  C     C_R   0.372065 0.143474 0.121213 -0.089020
H20   H     H_    0.252459 0.163775 0.127070 0.182902
C124  C     C_R   0.364763 0.115096 0.090704 0.289712
C125  C     C_R   0.514022 0.086464 0.083557 -0.239518
C126  C     C_R   0.676158 0.089294 0.107102 0.049150
C127  C     C_R   0.692025 0.121475 0.135137 0.419494
C128  C     C_R   0.535032 0.147754 0.143131 0.163548
O27   O     O_R   0.662230 0.032770 0.966890 -0.500888
O28   O     O_R   0.330090 0.043230 0.039150 -0.536335
O29   O     O_R   0.157350 0.967260 0.033130 -0.539465
C129  C     C_R   0.499802 0.053966 0.052263 0.726374
O30   O     O_R   0.332650 0.037450 0.967510 -0.548257
O31   O     O_R   0.159930 0.961430 0.960980 -0.541902
C130  C     C_R   0.501943 0.045857 0.955906 0.774899
O32   O     O_R   0.659640 0.038600 0.039040 -0.538196
O33   O     O_3   0.492510 0.975090 0.997960 -0.379264
V3    V     V_3+5 0.218600 0.004620 0.000380 1.440253
O34   O     O_R   0.830050 0.956730 0.960830 -0.532496
C131  C     C_R   0.998796 0.945681 0.948111 0.773393
O35   O     O_R   0.827490 0.962520 0.032470 -0.549101
C132  C     C_R   0.996559 0.953303 0.043499 0.712319
V4    V     V_3+5 0.718310 0.995320 0.999580 1.446733
O36   O     O_3   0.994270 0.024900 0.002040 -0.354932
C133  C     C_3   0.738439 0.874753 0.940144 -0.615174
H21   H     H_    0.809947 0.878268 0.966399 0.165732
H22   H     H_    0.621635 0.896895 0.940677 0.206134
H23   H     H_    0.668639 0.845211 0.935671 0.246716
O37   O     O_3   0.299462 0.896741 0.835082 -0.600891
H24   H     H_    0.283293 0.877559 0.813059 0.324028
O38   O     O_3   0.686761 0.895337 0.139386 -0.620965
H25   H     H_    0.582986 0.912830 0.133194 0.303918
O39   O     O_3   0.817637 0.645680 0.399514 -0.608197
H26   H     H_    0.720566 0.640766 0.417388 0.311576
C134  C     C_3   0.570695 0.738962 0.349445 -0.622337
H27   H     H_    0.677659 0.761583 0.344752 0.185666
H28   H     H_    0.515448 0.749501 0.376486 0.242699
H29   H     H_    0.651592 0.710955 0.348415 0.236061
C135  C     C_3   0.575154 0.777286 0.286124 -0.700194
H30   H     H_    0.701052 0.757382 0.285077 0.196902
H31   H     H_    0.566532 0.785591 0.259431 0.203609
H32   H     H_    0.605501 0.803979 0.305908 0.242216
O40   O     O_3   0.553554 0.691036 0.753299 -0.614744
H33   H     H_    0.499501 0.663898 0.748571 0.337842
O41   O     O_3   0.297173 0.837725 0.295831 -0.638968
H34   H     H_    0.327038 0.866296 0.298041 0.297188
C136  C     C_3   0.344859 0.900997 0.049967 -0.697543
H35   H     H_    0.449773 0.878008 0.054643 0.204807
H36   H     H_    0.300311 0.894430 0.021804 0.201265
H37   H     H_    0.421539 0.929808 0.055257 0.211502
C137  C     C_3   0.643555 0.636008 0.275896 -0.634326
H38   H     H_    0.686533 0.604591 0.269313 0.245118
H39   H     H_    0.577313 0.642105 0.302591 0.250085
H40   H     H_    0.528930 0.640960 0.256830 0.172563
O42   O     O_3   0.446947 0.601455 0.356901 -0.610178
H41   H     H_    0.550917 0.583407 0.361983 0.328268
C138  C     C_3   0.846975 0.678607 0.167638 -0.781583
H42   H     H_    0.899789 0.670817 0.140016 0.218945
H43   H     H_    0.921755 0.658245 0.182735 0.222979
H44   H     H_    0.688047 0.673540 0.167660 0.210687
O43   O     O_3   0.330405 0.396954 0.547347 -0.610468
H45   H     H_    0.383736 0.401312 0.524446 0.292772
C139  C     C_3   0.635460 0.764137 0.683093 -0.643588
H46   H     H_    0.704595 0.767458 0.657596 0.229229
H47   H     H_    0.544344 0.737219 0.679771 0.253056
H48   H     H_    0.536667 0.789583 0.690363 0.175863
O44   O     O_3   0.825030 0.047600 0.909370 -0.640204
H49   H     H_    0.885780 0.040769 0.885783 0.301890
O45   O     O_3   0.846168 0.106345 0.863222 -0.626438
H50   H     H_    0.961320 0.097888 0.875249 0.292346
O46   O     O_3   0.940958 0.453451 0.599326 -0.624801
H51   H     H_    0.892327 0.478778 0.593806 0.286525
C140  C     C_3   0.939631 0.401893 0.648291 -0.591542
H52   H     H_    0.079090 0.395508 0.634180 0.221546
H53   H     H_    0.948993 0.431470 0.664985 0.217502
H54   H     H_    0.919392 0.379689 0.665945 0.177712
C141  C     C_3   0.232336 0.386140 0.740746 -0.664760
H55   H     H_    0.111836 0.383924 0.759459 0.205099
H56   H     H_    0.313815 0.413934 0.749648 0.233692
H57   H     H_    0.158859 0.387324 0.715256 0.221801
O47   O     O_3   0.436518 0.275191 0.881630 -0.600084
H58   H     H_    0.326199 0.261216 0.890729 0.334867
O48   O     O_3   0.261659 0.337677 0.794167 -0.646525
H59   H     H_    0.282165 0.366270 0.802540 0.296511
C142  C     C_3   0.551376 0.302571 0.159824 -0.649929
H60   H     H_    0.676912 0.287671 0.145360 0.234374
H61   H     H_    0.416443 0.296624 0.144103 0.236703
H62   H     H_    0.586902 0.334435 0.162331 0.189105
C143  C     C_3   0.417821 0.357487 0.222466 -0.647110
H63   H     H_    0.532227 0.380547 0.223973 0.238589
H64   H     H_    0.336963 0.356400 0.197355 0.187990
H65   H     H_    0.306880 0.365816 0.243285 0.236773
C144  C     C_3   0.645728 0.146766 0.278352 -0.641794
H66   H     H_    0.684738 0.145944 0.306303 0.180009
H67   H     H_    0.507868 0.130054 0.273140 0.240199
H68   H     H_    0.764498 0.131921 0.261818 0.238726
C145  C     C_3   0.298200 0.332809 0.372234 -0.623072
H69   H     H_    0.164849 0.350108 0.379535 0.220906
H70   H     H_    0.281470 0.319880 0.343966 0.200224
H71   H     H_    0.306749 0.308362 0.387825 0.211835
O49   O     O_3   0.118622 0.695898 0.603589 -0.621582
H72   H     H_    0.029383 0.697873 0.583785 0.312243
C146  C     C_3   0.347756 0.385016 0.440873 -0.629849
H73   H     H_    0.239946 0.409009 0.441903 0.234096
H74   H     H_    0.268579 0.356593 0.438574 0.197183
H75   H     H_    0.427487 0.387777 0.466143 0.170638
O50   O     O_3   0.931170 0.441810 0.389589 -0.600131
H76   H     H_    0.880140 0.467640 0.401035 0.289690
O51   O     O_3   0.933842 0.382460 0.335281 -0.594370
H77   H     H_    0.931181 0.357124 0.318766 0.298718
O52   O     O_3   0.210279 0.116903 0.068345 -0.624552
H78   H     H_    0.259360 0.111377 0.043775 0.297855
C147  C     C_3   0.832917 0.058116 0.103239 -0.573193
H79   H     H_    0.766485 0.028229 0.100277 0.161196
H80   H     H_    0.925950 0.060689 0.080116 0.228913
H81   H     H_    0.928959 0.060652 0.126659 0.234192
O53   O     O_3   0.863021 0.126475 0.154159 -0.627594
H82   H     H_    0.872476 0.153950 0.166795 0.296159
C148  C     C_3   0.157929 0.634950 0.540493 -0.729853
H83   H     H_    0.183350 0.666558 0.539339 0.225393
H84   H     H_    0.283746 0.619166 0.526896 0.202256
H85   H     H_    0.024227 0.625052 0.525484 0.195309
C149  C     C_3   0.183509 0.535416 0.624431 -0.722225
H86   H     H_    0.212730 0.514140 0.600071 0.218310
H87   H     H_    0.311201 0.534596 0.641859 0.224697
H88   H     H_    0.053629 0.524929 0.637287 0.213767
O54   O     O_3   0.126789 0.601961 0.682061 -0.617621
H89   H     H_    0.108579 0.573673 0.683103 0.312487
O55   O     O_3   0.785645 0.817736 0.878656 -0.606977
H90   H     H_    0.830510 0.797236 0.859231 0.315841

loop_
_geom_bond_atom_site_label_1
_geom_bond_atom_site_label_2
_ccdc_geom_bond_type
C117  C122  A    
C108  C142  S    
C8    C13   A    
C50   C51   A    
C108  C109  A    
C9    C16   A    
C93   H18   S    
C136  H35   S    
C25   O55   S    
C117  C145  S    
C136  H37   S    
C90   O45   S    
C88   N6    A    
C43   C55   A    
C83   H14   S    
C84   H13   S    
C64   H9    S    
C22   C149  S    
C145  H71   S    
C72   C73   A    
C21   C22   A    
O35   V4    S    
C126  C127  A    
O8    V2    S    
O30   V3    S    
C113  H19   S    
C6    C7    A    
O1    V2    S    
C28   C29   A    
C36   C37   A    
C67   N5    A    
C8    C9    A    
N1    C30   S    
C33   H7    S    
C101  O47   S    
C76   C98   A    
C49   C50   A    
C47   C48   A    
C25   C26   A    
C135  H30   S    
C137  H38   S    
C63   H8    S    
C51   C52   A    
C105  C106  A    
C90   C94   A    
C55   H6    S    
C49   C53   A    
C144  H67   S    
C23   C24   A    
C109  C110  A    
C92   H17   S    
C53   O16   S    
C141  H56   S    
C34   C136  S    
C15   C16   A    
C100  C101  A    
C98   H15   S    
C17   O13   S    
O7    V2    S    
C120  C121  A    
V1    O10   S    
C51   C65   A    
C103  O23   S    
C146  H74   S    
C80   C82   A    
O34   C131  A    
C47   C135  S    
C7    C8    A    
O33   V3    S    
C106  C107  A    
O49   H72   S    
N8    C122  S    
C74   C96   A    
C75   C76   A    
C123  H20   S    
C85   C86   A    
C148  H84   S    
C33   C34   A    
C3    C43   S    
C140  H52   S    
O41   H34   S    
C72   H11   S    
C15   C139  S    
C62   O41   S    
C142  H60   S    
C5    N1    A    
O47   H58   S    
O30   C130  A    
C119  C120  A    
C38   C60   A    
C74   C75   A    
C26   C133  S    
V3    O36   S    
N2    C18   A    
C16   H2    S    
C10   C11   A    
C52   O18   S    
C70   O46   S    
O7    V1    S    
O43   H45   S    
C133  H22   S    
C147  H79   S    
O34   V4    S    
O29   C132  A    
C135  H32   S    
C19   C20   A    
C12   C13   A    
C44   C47   A    
O2    C1    A    
O53   H82   S    
C89   O20   S    
C138  H43   S    
C35   C42   A    
C57   C58   A    
C7    C10   A    
C146  H73   S    
C40   C62   A    
O39   H26   S    
C139  H47   S    
C18   O14   S    
O27   V4    S    
C143  H64   S    
C4    C21   S    
C137  H39   S    
C116  O26   S    
C76   H12   S    
C31   O15   S    
C90   C91   A    
C36   O38   S    
C69   C73   A    
N3    C32   A    
C121  C122  A    
C140  H54   S    
O28   V3    S    
C96   C97   A    
C142  H62   S    
C136  H36   S    
C19   C24   A    
C129  O32   A    
C43   C56   A    
C124  O52   S    
C31   C39   A    
C57   O42   S    
C145  H70   S    
C126  C147  S    
C102  O48   S    
O35   C132  A    
C79   C92   A    
C149  H88   S    
C42   C132  S    
V4    O36   S    
C134  H29   S    
N7    C104  A    
C99   C141  S    
O50   H76   S    
C110  C115  A    
O45   H50   S    
C61   C66   A    
C60   C61   A    
C67   O19   S    
C48   C49   A    
C139  H46   S    
C54   C58   A    
C112  C113  A    
C95   C96   A    
C125  C126  A    
C13   C14   A    
C114  C144  S    
C1    C78   S    
C115  N8    A    
O5    C3    A    
C17   N2    A    
O44   H49   S    
C2    C119  S    
C147  H81   S    
N1    C6    A    
C32   O17   S    
C79   C130  S    
C107  C114  A    
C103  N7    A    
C45   C46   A    
C121  O51   S    
C100  H16   S    
C109  C143  S    
C144  H66   S    
C81   C100  A    
C5    O11   S    
C125  C129  S    
C48   C134  S    
O27   C130  A    
O38   H25   S    
C27   C131  S    
C105  C108  A    
C148  H83   S    
O4    C2    A    
C59   C60   A    
C35   C36   A    
O37   H24   S    
C23   O54   S    
C56   C57   A    
C77   C99   A    
C38   C41   A    
C149  H86   S    
C71   C78   A    
O51   H77   S    
C141  H57   S    
C134  H27   S    
O46   H51   S    
C29   C30   A    
C103  C107  A    
C83   C84   A    
O3    C4    A    
C28   H3    S    
O6    V2    S    
C10   H1    S    
O29   V3    S    
C87   C88   A    
C68   O21   S    
C22   C23   A    
C41   C63   A    
O28   C129  A    
N6    C89   A    
O40   H33   S    
C124  C125  A    
C113  C114  A    
C12   C17   A    
C26   C27   A    
C14   C18   A    
O1    C2    A    
C97   C102  A    
N6    C94   S    
C34   C42   A    
C59   C62   A    
O5    V1    S    
C123  C124  A    
C81   C82   A    
C67   C75   A    
C69   C70   A    
C5    C9    A    
N5    C73   S    
C69   C140  S    
O33   V4    S    
C141  H55   S    
C11   O40   S    
C33   C37   A    
O55   H90   S    
C144  H68   S    
N5    C68   A    
C87   C101  A    
C80   C95   A    
C54   O39   S    
C118  C146  S    
C95   C98   A    
N8    C116  A    
C133  H21   S    
C64   C65   A    
C1    O6    A    
C45   C61   A    
C88   O22   S    
C63   C66   A    
N3    C37   S    
C118  C119  A    
C99   C102  A    
C71   O43   S    
C39   C40   A    
C70   C78   A    
C135  H31   S    
C146  H75   S    
C25   C30   A    
V2    O10   S    
O32   V4    S    
C44   C46   A    
C82   C86   A    
C35   H4    S    
C110  C111  A    
C93   C94   A    
N7    C128  S    
C143  H63   S    
C112  C116  A    
C52   N4    A    
O54   H89   S    
C115  O25   S    
C38   C39   A    
C120  O50   S    
C138  H44   S    
C31   N3    A    
C148  H85   S    
C40   H5    S    
C140  H53   S    
N2    C24   S    
C81   C97   A    
C65   C137  S    
C11   C12   A    
C142  H61   S    
N4    C53   A    
C68   C77   A    
C80   C83   A    
C127  C128  A    
C91   O44   S    
C19   O49   S    
C27   C28   A    
C71   C72   A    
C32   C41   A    
C145  H69   S    
C79   C91   A    
C149  H87   S    
C74   C77   A    
C20   C21   A    
C134  H28   S    
O9    V2    S    
O52   H78   S    
C133  H23   S    
O48   H59   S    
O2    V1    S    
O42   H41   S    
C117  C118  A    
C138  H42   S    
C106  C111  A    
C56   H10   S    
C54   C55   A    
C6    O12   S    
O8    C3    A    
O31   C131  A    
C111  C112  A    
C45   C64   A    
C84   C85   A    
O4    V1    S    
C104  O24   S    
O3    V1    S    
C46   C50   A    
C85   C89   A    
C66   C138  S    
C147  H80   S    
C139  H48   S    
C143  H65   S    
O31   V3    S    
C29   O37   S    
N4    C58   S    
C137  H40   S    
C14   C15   A    
C127  O53   S    
C20   C148  S    
C104  C105  A    
O9    C4    A    
C123  C128  A    
C44   C59   A    
C92   C93   A    
C86   C87   A    
