data_mof_unit_5268.cif
_audit_creation_date              2012-12-10T17:40:11-0500
_audit_creation_method            fapswitch 2.2
_symmetry_space_group_name_H-M    P1
_symmetry_Int_Tables_number       1
_space_group_crystal_system       triclinic
_cell_length_a                    11.941844
_cell_length_b                    12.900433
_cell_length_c                    27.731013
_cell_angle_alpha                 90.173232
_cell_angle_beta                  86.334558
_cell_angle_gamma                 94.239432
_cell_volume                      4251.68940257

loop_
_atom_site_label
_atom_site_type_symbol
_atom_type_description
_atom_site_fract_x
_atom_site_fract_y
_atom_site_fract_z
_atom_type_partial_charge
C1    C     C_R   0.523130 0.700770 0.498284 0.944101
C2    C     C_R   0.552329 0.569381 0.125896 -0.021060
C3    C     C_R   0.500162 0.495653 0.646490 -0.030089
C4    C     C_R   0.497646 0.495732 0.353466 -0.028568
C5    C     C_R   0.559985 0.566840 0.023869 0.045001
C6    C     C_R   0.431934 0.407563 0.976013 0.044881
C7    C     C_R   0.435621 0.404830 0.026960 0.044763
C8    C     C_R   0.566629 0.562695 0.972754 0.045067
C9    C     C_R   0.497075 0.486208 0.050666 0.070930
C10   C     C_R   0.499802 0.484967 0.949138 0.070817
C11   C     C_R   0.613255 0.649825 0.049315 -0.215312
C12   C     C_R   0.476981 0.299286 0.499413 0.940899
C13   C     C_R   0.361640 0.335965 0.950828 -0.214666
C14   C     C_R   0.609525 0.650775 0.099356 -0.138256
C15   C     C_R   0.361578 0.337822 0.900836 -0.138818
C16   C     C_R   0.500202 0.499252 0.593956 0.873422
C17   C     C_R   0.499430 0.499251 0.406017 0.851145
C18   C     C_R   0.638745 0.633422 0.944222 -0.214970
C19   C     C_R   0.380393 0.322915 0.055232 -0.215285
C20   C     C_R   0.462250 0.187458 0.496946 -0.241878
C21   C     C_R   0.538401 0.812642 0.495367 -0.254274
C22   C     C_R   0.652855 0.975081 0.495053 0.393921
C23   C     C_R   0.500667 0.484841 0.898041 -0.052384
C24   C     C_R   0.347923 0.025349 0.493467 0.394711
C25   C     C_R   0.645628 0.866731 0.492647 0.360094
C26   C     C_R   0.357229 0.134203 0.490156 0.374094
C27   C     C_R   0.441025 0.865911 0.494578 -0.291210
C28   C     C_R   0.558970 0.133880 0.498951 -0.295705
C29   C     C_R   0.446900 0.972686 0.494814 -0.038798
C30   C     C_R   0.553332 0.027390 0.496262 -0.053271
C31   C     C_R   0.955495 0.423731 0.446622 0.420294
C32   C     C_R   0.044630 0.579634 0.552616 0.423561
C33   C     C_R   0.838500 0.426606 0.453607 -0.104685
C34   C     C_R   0.495616 0.487012 0.101778 -0.052869
C35   C     C_R   0.162034 0.575998 0.545587 -0.121062
C36   C     C_R   0.857293 0.531116 0.523578 -0.061932
C37   C     C_R   0.142401 0.467954 0.476921 -0.028649
C38   C     C_R   0.975288 0.528434 0.519323 -0.087827
C39   C     C_R   0.024782 0.472670 0.480632 -0.111933
C40   C     C_R   0.569661 0.557681 0.820413 0.501711
C41   C     C_R   0.438103 0.407364 0.179319 0.500957
C42   C     C_R   0.432498 0.413191 0.823615 0.501680
C43   C     C_R   0.549761 0.568765 0.176355 0.502936
C44   C     C_R   0.592532 0.456379 0.718589 -0.100750
C45   C     C_R   0.570762 0.558627 0.870792 -0.020324
C46   C     C_R   0.395022 0.501996 0.281223 -0.119591
C47   C     C_R   0.592680 0.460096 0.668546 -0.231001
C48   C     C_R   0.396481 0.505511 0.331241 -0.239989
C49   C     C_R   0.406862 0.526101 0.674990 -0.220356
C50   C     C_R   0.596847 0.481327 0.325099 -0.223659
C51   C     C_R   0.406916 0.522224 0.725040 -0.107565
C52   C     C_R   0.595101 0.477675 0.275131 -0.104895
C53   C     C_R   0.499866 0.487697 0.746789 0.324618
C54   C     C_R   0.494397 0.488517 0.253171 0.322719
C55   C     C_3   0.234163 0.174347 0.433516 0.107794
C56   C     C_R   0.437492 0.405472 0.128883 -0.018406
C57   C     C_3   0.314220 0.238904 0.397653 -0.415135
C58   C     C_3   0.280538 0.222771 0.345862 -0.885166
C59   C     C_3   0.783702 0.810656 0.440984 0.133039
C60   C     C_3   0.891444 0.753445 0.437514 -0.313613
C61   C     C_3   0.942704 0.751351 0.385746 -0.975494
C62   C     C_3   0.799883 0.044911 0.536296 0.074632
C63   C     C_3   0.894939 0.131322 0.532375 -0.318050
C64   C     C_3   0.945158 0.152960 0.580931 -0.971813
C65   C     C_3   0.176552 0.978483 0.533306 0.090912
C66   C     C_3   0.193515 0.889216 0.567767 -0.387190
C67   C     C_R   0.640389 0.631411 0.894216 -0.139555
C68   C     C_3   0.112513 0.890312 0.612544 -0.894563
C69   C     C_3   0.037193 0.440680 0.369828 0.060577
C70   C     C_3   0.940789 0.460915 0.337951 -0.370377
C71   C     C_3   0.983509 0.522822 0.292831 -0.929159
C72   C     C_3   0.012735 0.595429 0.634922 0.073110
C73   C     C_3   0.919339 0.510194 0.647637 -0.373522
C74   C     C_3   0.930016 0.465713 0.697900 -0.916083
C75   C     C_R   0.381330 0.323508 0.105213 -0.138599
C76   C     C_R   0.431226 0.411138 0.874082 -0.020795
H1    H     H_    0.334505 0.553599 0.658662 0.147177
H2    H     H_    0.337652 0.259047 0.125256 0.189873
H3    H     H_    0.318718 0.516083 0.352388 0.153229
H4    H     H_    0.664211 0.433989 0.647150 0.155543
H5    H     H_    0.317089 0.510552 0.264193 0.142044
H6    H     H_    0.663995 0.429046 0.735583 0.138278
H7    H     H_    0.651984 0.715932 0.117169 0.190084
H8    H     H_    0.306194 0.281370 0.883230 0.189314
H9    H     H_    0.656559 0.716929 0.031699 0.143953
H10   H     H_    0.303241 0.278719 0.968700 0.143557
H11   H     H_    0.697162 0.690233 0.959341 0.143612
H12   H     H_    0.675575 0.472801 0.341438 0.152285
H13   H     H_    0.337545 0.255538 0.039846 0.143865
H14   H     H_    0.640177 0.175593 0.502254 0.227672
H15   H     H_    0.359325 0.823777 0.493842 0.232883
H16   H     H_    0.148175 0.200819 0.431361 0.190119
H17   H     H_    0.228880 0.091257 0.422467 0.174706
H18   H     H_    0.312625 0.322402 0.406859 0.239119
H19   H     H_    0.401722 0.216250 0.399706 0.215592
H20   H     H_    0.287350 0.140394 0.335043 0.269822
H21   H     H_    0.337482 0.272871 0.321011 0.292051
H22   H     H_    0.192768 0.243291 0.342469 0.265573
H23   H     H_    0.182472 0.423780 0.448467 0.161523
H24   H     H_    0.803418 0.890368 0.425931 0.172410
H25   H     H_    0.720425 0.768063 0.418891 0.130360
H26   H     H_    0.953794 0.792114 0.461105 0.238694
H27   H     H_    0.871866 0.672354 0.450099 0.232375
H28   H     H_    0.882205 0.711597 0.361706 0.272498
H29   H     H_    0.020009 0.708357 0.384618 0.265680
H30   H     H_    0.965523 0.831707 0.372389 0.276489
H31   H     H_    0.833746 0.971856 0.548358 0.179350
H32   H     H_    0.734228 0.068581 0.563800 0.130375
H33   H     H_    0.962149 0.108743 0.505659 0.232186
H34   H     H_    0.816755 0.574322 0.552377 0.194047
H35   H     H_    0.861830 0.203798 0.519303 0.231529
H36   H     H_    0.880324 0.180332 0.607529 0.268697
H37   H     H_    0.015319 0.214323 0.576389 0.279506
H38   H     H_    0.978363 0.081592 0.594953 0.262945
H39   H     H_    0.087503 0.972030 0.523634 0.176734
H40   H     H_    0.190205 0.054734 0.551930 0.160718
H41   H     H_    0.179278 0.813872 0.548779 0.244325
H42   H     H_    0.281208 0.896120 0.579240 0.218077
H43   H     H_    0.125153 0.964950 0.632229 0.255654
H44   H     H_    0.128455 0.825841 0.637024 0.264957
H45   H     H_    0.217043 0.617814 0.569683 0.136941
H46   H     H_    0.024056 0.879698 0.602174 0.278531
H47   H     H_    0.104061 0.404714 0.347325 0.172182
H48   H     H_    0.076513 0.515740 0.383074 0.121349
H49   H     H_    0.898664 0.385644 0.326906 0.237879
H50   H     H_    0.878018 0.505617 0.358716 0.209221
H51   H     H_    0.025970 0.598504 0.303010 0.267820
H52   H     H_    0.911461 0.537892 0.271090 0.271139
H53   H     H_    0.043702 0.478401 0.270382 0.268347
H54   H     H_    0.006644 0.658214 0.662256 0.175922
H55   H     H_    0.097033 0.565023 0.637757 0.118127
H56   H     H_    0.784343 0.387679 0.428311 0.156974
H57   H     H_    0.836427 0.543481 0.646413 0.235152
H58   H     H_    0.923592 0.446172 0.620829 0.216216
H59   H     H_    0.013124 0.433188 0.700095 0.268370
H60   H     H_    0.863129 0.402388 0.705413 0.257973
H61   H     H_    0.920592 0.527133 0.725719 0.275404
H62   H     H_    0.335324 0.546657 0.746986 0.136813
H63   H     H_    0.671958 0.466925 0.253375 0.139823
H64   H     H_    0.696650 0.687583 0.873965 0.188788
N1    N     N_R   0.500861 0.485917 0.798103 -0.356644
N2    N     N_R   0.493793 0.488219 0.201796 -0.354837
N3    N     N_R   0.207800 0.519340 0.508990 -0.121310
N4    N     N_R   0.792200 0.480660 0.491010 -0.139977
O1    O     O_R   0.421700 0.658820 0.502400 -0.635879
O2    O     O_2   0.384389 0.328842 0.205741 -0.574160
O3    O     O_2   0.602267 0.648149 0.199942 -0.563812
O4    O     O_2   0.366555 0.342950 0.800113 -0.563518
O5    O     O_3   0.264323 0.188729 0.481899 -0.632819
O6    O     O_3   0.743044 0.814597 0.489919 -0.622345
O7    O     O_3   0.757111 0.029984 0.490291 -0.649574
O8    O     O_3   0.244607 0.969958 0.489964 -0.665893
O9    O     O_3   0.000065 0.369968 0.407539 -0.662257
O10   O     O_3   0.998277 0.639564 0.589225 -0.655255
O11   O     O_R   0.578300 0.341180 0.497600 -0.636241
O12   O     O_R   0.609310 0.646410 0.496630 -0.572045
O13   O     O_R   0.390690 0.353590 0.503370 -0.564871
O14   O     O_R   0.406200 0.506190 0.574130 -0.626283
O15   O     O_R   0.593800 0.493810 0.425870 -0.633988
O16   O     O_R   0.593820 0.493770 0.568360 -0.628266
O17   O     O_R   0.406180 0.506230 0.431640 -0.641063
O18   O     O_2   0.635838 0.628422 0.793846 -0.565182
Zn1   Zn    Zn3+2 0.374730 0.508290 0.503850 0.953925
Zn2   Zn    Zn3+2 0.625270 0.491710 0.496150 0.946609

loop_
_geom_bond_atom_site_label_1
_geom_bond_atom_site_label_2
_ccdc_geom_bond_type
C66   C68   S    
C34   C56   A    
C23   C45   A    
C16   O16   A    
C73   C74   S    
C1    O1    A    
C58   H22   S    
C23   C76   A    
C55   H17   S    
C42   O4    S    
C3    C49   A    
C1    C21   S    
C5    C9    A    
C29   C30   A    
C12   C20   S    
O16   Zn2   S    
C48   H3    S    
C24   C26   A    
C5    C11   A    
C44   H6    S    
C68   H43   S    
C38   C39   A    
C11   C14   A    
C64   H36   S    
C62   H32   S    
C69   H47   S    
C52   H63   S    
C27   C29   A    
C3    C47   A    
C58   H20   S    
C24   C29   A    
C24   O8    S    
C31   O9    S    
C44   C53   A    
C41   O2    S    
C49   H1    S    
C49   C51   A    
C22   C25   A    
C74   H60   S    
C13   H10   S    
C45   C67   A    
C50   C52   A    
C31   C33   A    
C27   H15   S    
C70   C71   S    
C32   C38   A    
C12   O13   A    
C60   H27   S    
C61   H29   S    
O13   Zn1   S    
C44   C47   A    
C50   H12   S    
C2    C34   A    
C15   C76   A    
C21   C27   A    
C2    C14   A    
C59   C60   S    
C56   C75   A    
C40   N1    A    
N4    Zn2   S    
C59   H24   S    
C65   H39   S    
C71   H51   S    
C58   H21   S    
C47   H4    S    
C60   H26   S    
N3    Zn1   S    
O17   Zn1   S    
C52   C54   A    
C55   O5    S    
C33   N4    A    
C40   C45   A    
C74   H61   S    
C46   C48   A    
C72   O10   S    
C62   O7    S    
C16   O14   A    
C59   H25   S    
C32   C35   A    
C35   H45   S    
C61   H28   S    
C64   H38   S    
C68   H46   S    
C62   H31   S    
O1    Zn1   S    
C69   H48   S    
C18   C67   A    
C66   H41   S    
C69   O9    S    
C4    C50   A    
C25   O6    S    
C51   C53   A    
C63   H33   S    
C1    O12   A    
C41   C56   A    
C40   O18   S    
C62   C63   S    
C19   H13   S    
C71   H53   S    
C46   H5    S    
C2    C43   A    
C74   H59   S    
C46   C54   A    
C42   N1    A    
C55   C57   S    
C61   H30   S    
C6    C7    A    
C17   O17   A    
O14   Zn1   S    
C32   O10   S    
C4    C17   S    
C33   H56   S    
C54   N2    S    
C55   H16   S    
C73   H57   S    
C7    C19   A    
C57   H18   S    
C13   C15   A    
C36   H34   S    
C9    C34   A    
O11   Zn2   S    
C65   H40   S    
C71   H52   S    
C12   O11   A    
C37   H23   S    
C70   H49   S    
C72   H55   S    
C4    C48   A    
C59   O6    S    
C57   H19   S    
C7    C9    A    
C21   C25   A    
C22   O7    S    
C64   H37   S    
C22   C30   A    
C26   O5    S    
C37   N3    A    
C72   C73   S    
C6    C10   A    
C5    C8    A    
C72   H54   S    
C15   H8    S    
C10   C23   A    
C20   C28   A    
C42   C76   A    
C18   H11   S    
C65   O8    S    
C19   C75   A    
C36   N4    A    
C14   H7    S    
C28   C30   A    
C37   C39   A    
C68   H44   S    
C6    C13   A    
C70   H50   S    
C57   C58   S    
C20   C26   A    
C11   H9    S    
C36   C38   A    
C31   C39   A    
C53   N1    S    
C63   H35   S    
C69   C70   S    
C17   O15   A    
C75   H2    S    
C8    C18   A    
C43   O3    S    
C63   C64   S    
C51   H62   S    
C41   N2    A    
C73   H58   S    
O12   Zn2   S    
C8    C10   A    
C65   C66   S    
C66   H42   S    
C67   H64   S    
O15   Zn2   S    
C60   C61   S    
C43   N2    A    
C28   H14   S    
C3    C16   S    
C35   N3    A    
