data_mof_unit_49067.cif
_audit_creation_date              2012-12-10T18:47:35-0500
_audit_creation_method            fapswitch 2.2
_symmetry_space_group_name_H-M    P1
_symmetry_Int_Tables_number       1
_space_group_crystal_system       triclinic
_cell_length_a                    19.427381
_cell_length_b                    18.135917
_cell_length_c                    11.698819
_cell_angle_alpha                 89.857117
_cell_angle_beta                  89.791664
_cell_angle_gamma                 90.375536
_cell_volume                      4121.75546749

loop_
_atom_site_label
_atom_site_type_symbol
_atom_type_description
_atom_site_fract_x
_atom_site_fract_y
_atom_site_fract_z
_atom_type_partial_charge
C1    C     C_R   0.367342 0.499826 0.502816 0.854695
C2    C     C_R   0.632679 0.500274 0.496298 0.873471
C3    C     C_R   0.072086 0.504233 0.507592 0.256558
C4    C     C_R   0.928741 0.507151 0.493111 0.249726
C5    C     C_R   0.464066 0.721193 0.418949 0.054835
C6    C     C_R   0.454613 0.279024 0.568299 0.055721
C7    C     C_R   0.536224 0.720926 0.581277 0.064995
C8    C     C_R   0.544914 0.278968 0.432106 0.051144
C9    C     C_R   0.463969 0.798606 0.417404 -0.254660
C10   C     C_R   0.453288 0.201632 0.570099 -0.252138
C11   C     C_R   0.536673 0.798310 0.583730 -0.245427
C12   C     C_R   0.545371 0.201560 0.431554 -0.249092
C13   C     C_R   0.500353 0.838513 0.500891 0.211942
C14   C     C_R   0.499126 0.161686 0.501191 0.218277
C15   C     C_R   0.562099 0.962132 0.512146 0.292897
C16   C     C_R   0.437887 0.038477 0.483017 0.309224
C17   C     C_R   0.437638 0.960545 0.491813 0.261489
C18   C     C_R   0.560590 0.040086 0.522615 0.291102
C19   C     C_R   0.499116 0.078873 0.502231 -0.197354
C20   C     C_R   0.500089 0.921499 0.501826 -0.197531
C21   C     C_R   0.499719 0.500045 0.283741 0.801794
C22   C     C_R   0.499906 0.499918 0.716265 0.800190
C23   C     C_1   0.499334 0.500027 0.162219 -0.207581
C24   C     C_1   0.499548 0.499766 0.837797 -0.194475
C25   C     C_1   0.499177 0.499869 0.059815 -0.022213
C26   C     C_1   0.499295 0.499757 0.940190 -0.011537
C27   C     C_R   0.746725 0.438476 0.517796 0.298937
C28   C     C_R   0.255963 0.562202 0.554643 0.318601
C29   C     C_R   0.253117 0.436935 0.473655 0.294136
C30   C     C_R   0.743860 0.565491 0.445990 0.282713
C31   C     C_R   0.818220 0.439211 0.508375 0.286176
C32   C     C_R   0.183889 0.566126 0.542088 0.347481
C33   C     C_R   0.180820 0.435806 0.486231 0.346479
C34   C     C_R   0.816978 0.569655 0.452271 0.350890
C35   C     C_R   0.853187 0.505445 0.483468 -0.230118
C36   C     C_R   0.147208 0.501771 0.513673 -0.230109
C37   C     C_R   0.708775 0.501226 0.485938 -0.368112
C38   C     C_R   0.291157 0.499630 0.510438 -0.373983
C39   C     C_R   0.969179 0.525762 0.397968 -0.192172
C40   C     C_R   0.032070 0.482643 0.601699 -0.203980
C41   C     C_R   0.040538 0.526661 0.406191 -0.170180
C42   C     C_R   0.960577 0.485741 0.595389 -0.142255
Cu1   Cu    Cu3+1 0.500000 0.573360 0.500000 0.940956
Cu2   Cu    Cu3+1 0.500000 0.426640 0.500000 0.940483
H1    H     H_    0.945604 0.537126 0.316625 0.121118
H2    H     H_    0.056228 0.464435 0.680038 0.139445
H3    H     H_    0.071244 0.542286 0.332451 0.133351
H4    H     H_    0.930015 0.470299 0.669384 0.152639
H5    H     H_    0.435526 0.691144 0.354759 0.136963
H6    H     H_    0.419306 0.309316 0.621948 0.146731
H7    H     H_    0.564767 0.690667 0.644998 0.135869
H8    H     H_    0.580549 0.309177 0.378028 0.143342
H9    H     H_    0.435985 0.827067 0.350902 0.163147
H10   H     H_    0.417300 0.173186 0.625959 0.162447
H11   H     H_    0.564731 0.826475 0.650628 0.162653
H12   H     H_    0.581173 0.172991 0.376348 0.156574
N1    N     N_R   0.500000 0.683620 0.500000 -0.175711
N2    N     N_R   0.500000 0.316380 0.500000 -0.186538
O1    O     O_R   0.400190 0.561980 0.499980 -0.560892
O2    O     O_R   0.599810 0.438020 0.500020 -0.554928
O3    O     O_R   0.599810 0.561980 0.500020 -0.541014
O4    O     O_R   0.400190 0.438020 0.499980 -0.547665
O5    O     O_R   0.500010 0.561950 0.337200 -0.589181
O6    O     O_R   0.499990 0.438050 0.662800 -0.582687
O7    O     O_R   0.499990 0.561950 0.662800 -0.604009
O8    O     O_R   0.500010 0.438050 0.337200 -0.584034
O9    O     O_3   0.714198 0.375012 0.556392 -0.570137
C43   C     C_3   0.706745 0.379616 0.676394 0.124061
H13   H     H_    0.683069 0.432949 0.702466 0.112116
H14   H     H_    0.757862 0.374263 0.718320 0.153932
C44   C     C_3   0.659867 0.316969 0.717519 -0.313927
H15   H     H_    0.610164 0.319244 0.670969 0.246976
H16   H     H_    0.684640 0.263238 0.698810 0.220712
C45   C     C_3   0.645591 0.322525 0.845562 -0.948318
H17   H     H_    0.694295 0.317779 0.894383 0.254288
H18   H     H_    0.610269 0.277326 0.872315 0.266607
H19   H     H_    0.620749 0.375941 0.865903 0.263824
O10   O     O_3   0.291240 0.621915 0.601262 -0.592873
C46   C     C_3   0.327106 0.601180 0.702468 0.106438
H20   H     H_    0.378915 0.627316 0.698649 0.196637
H21   H     H_    0.335098 0.540673 0.712415 0.106000
C47   C     C_3   0.290860 0.629148 0.810006 -0.429622
H22   H     H_    0.284685 0.689889 0.804625 0.225558
H23   H     H_    0.239403 0.602572 0.817233 0.220322
C48   C     C_3   0.332008 0.610917 0.917286 -0.895737
H24   H     H_    0.337942 0.550294 0.926302 0.257959
H25   H     H_    0.304517 0.631977 0.993778 0.256421
H26   H     H_    0.383768 0.637228 0.913170 0.258321
O11   O     O_3   0.286721 0.375728 0.431289 -0.578566
C49   C     C_3   0.303982 0.388748 0.314973 0.061941
H27   H     H_    0.337611 0.438202 0.304426 0.136382
H28   H     H_    0.256957 0.397573 0.262873 0.121560
C50   C     C_3   0.342449 0.322047 0.268425 -0.305206
H29   H     H_    0.390373 0.314004 0.318411 0.242467
H30   H     H_    0.309697 0.271908 0.277896 0.209330
C51   C     C_3   0.361107 0.332421 0.142586 -0.928891
H31   H     H_    0.313721 0.337404 0.090353 0.252562
H32   H     H_    0.390735 0.284168 0.112179 0.261455
H33   H     H_    0.393312 0.382664 0.130859 0.265677
O12   O     O_3   0.706224 0.625497 0.409727 -0.584318
C52   C     C_3   0.684152 0.612933 0.295993 0.064133
H34   H     H_    0.647891 0.565361 0.291174 0.139561
H35   H     H_    0.728552 0.601492 0.238665 0.122804
C53   C     C_3   0.647415 0.681572 0.252525 -0.316270
H36   H     H_    0.602168 0.692960 0.307927 0.240370
H37   H     H_    0.683270 0.729286 0.256827 0.212347
C54   C     C_3   0.623511 0.672469 0.129323 -0.933483
H38   H     H_    0.668184 0.662403 0.072067 0.254019
H39   H     H_    0.597290 0.723506 0.100901 0.254178
H40   H     H_    0.586713 0.625721 0.122727 0.269637
O13   O     O_3   0.854501 0.376227 0.535516 -0.592190
C55   C     C_3   0.870522 0.338576 0.433381 0.092146
H41   H     H_    0.889789 0.376674 0.365030 0.116205
H42   H     H_    0.823813 0.309168 0.401926 0.163960
C56   C     C_3   0.927010 0.282560 0.457909 -0.315498
H43   H     H_    0.973699 0.312059 0.488976 0.237151
H44   H     H_    0.909285 0.243761 0.525809 0.227029
C57   C     C_3   0.945556 0.238866 0.350966 -0.956783
H45   H     H_    0.900249 0.206708 0.320908 0.260484
H46   H     H_    0.987847 0.200026 0.370814 0.257740
H47   H     H_    0.963025 0.276694 0.281728 0.260223
O14   O     O_3   0.149817 0.633234 0.532868 -0.586288
C58   C     C_3   0.144498 0.671597 0.637558 0.105693
H48   H     H_    0.121356 0.725981 0.617753 0.162037
H49   H     H_    0.195069 0.684783 0.674232 0.178745
C59   C     C_3   0.097324 0.632687 0.724498 -0.408459
H50   H     H_    0.045656 0.624454 0.686095 0.249468
H51   H     H_    0.118959 0.578204 0.747876 0.202266
C60   C     C_3   0.089501 0.678413 0.833050 -0.922835
H52   H     H_    0.140402 0.687558 0.873734 0.254754
H53   H     H_    0.055515 0.648728 0.894528 0.261920
H54   H     H_    0.066084 0.732606 0.812905 0.260852
O15   O     O_3   0.142293 0.370632 0.489741 -0.591410
C61   C     C_3   0.140331 0.331913 0.384772 0.111263
H55   H     H_    0.108144 0.281916 0.399554 0.159200
H56   H     H_    0.191039 0.309928 0.360201 0.178021
C62   C     C_3   0.106614 0.375548 0.287416 -0.417370
H57   H     H_    0.052334 0.387385 0.310711 0.234596
H58   H     H_    0.134280 0.428500 0.272840 0.202182
C63   C     C_3   0.107659 0.331867 0.176134 -0.931685
H59   H     H_    0.161577 0.321459 0.148954 0.256140
H60   H     H_    0.081545 0.363841 0.108024 0.260520
H61   H     H_    0.080390 0.278300 0.187191 0.258890
O16   O     O_3   0.854169 0.636039 0.454683 -0.588529
C64   C     C_3   0.843092 0.684989 0.361959 0.128815
H62   H     H_    0.873829 0.735437 0.380236 0.150080
H63   H     H_    0.790136 0.705881 0.357727 0.186025
C65   C     C_3   0.869092 0.655298 0.246949 -0.420131
H64   H     H_    0.926134 0.652143 0.249145 0.226578
H65   H     H_    0.847940 0.599377 0.230369 0.197435
C66   C     C_3   0.849066 0.706214 0.148619 -0.921048
H66   H     H_    0.792232 0.709766 0.141662 0.258372
H67   H     H_    0.869776 0.684182 0.067070 0.261940
H68   H     H_    0.870678 0.762357 0.162215 0.256826
O17   O     O_3   0.624079 0.924955 0.517727 -0.610729
C67   C     C_3   0.661901 0.935709 0.415244 0.106428
H69   H     H_    0.715970 0.919779 0.432738 0.163123
H70   H     H_    0.663597 0.994453 0.387269 0.158139
C68   C     C_3   0.633986 0.886817 0.318946 -0.382198
H71   H     H_    0.628889 0.829333 0.350657 0.236476
H72   H     H_    0.582222 0.906221 0.292884 0.208271
C69   C     C_3   0.681393 0.888565 0.214683 -0.944318
H73   H     H_    0.687127 0.945888 0.182187 0.259656
H74   H     H_    0.659069 0.853903 0.145892 0.263443
H75   H     H_    0.732879 0.866587 0.237031 0.254211
O18   O     O_3   0.377222 0.076002 0.462761 -0.596289
C70   C     C_3   0.357603 0.067863 0.346907 0.113590
H76   H     H_    0.303180 0.085714 0.340058 0.160720
H77   H     H_    0.358842 0.009430 0.317962 0.162381
C71   C     C_3   0.401783 0.116423 0.267312 -0.394226
H78   H     H_    0.402524 0.173906 0.299650 0.236555
H79   H     H_    0.455497 0.095783 0.265698 0.208032
C72   C     C_3   0.373981 0.115829 0.145539 -0.930875
H80   H     H_    0.371609 0.058523 0.112418 0.256097
H81   H     H_    0.408587 0.148750 0.089216 0.257680
H82   H     H_    0.321733 0.140289 0.143216 0.259331
O19   O     O_3   0.375773 0.922533 0.487536 -0.603055
C73   C     C_3   0.350593 0.914142 0.600206 0.089342
H83   H     H_    0.336831 0.968928 0.636352 0.160691
H84   H     H_    0.389524 0.887386 0.656331 0.131730
C74   C     C_3   0.286250 0.865268 0.598384 -0.307369
H85   H     H_    0.246952 0.890570 0.541984 0.223881
H86   H     H_    0.299622 0.810188 0.563472 0.243350
C75   C     C_3   0.256019 0.855674 0.718135 -0.952272
H87   H     H_    0.293972 0.828938 0.775351 0.254354
H88   H     H_    0.209165 0.820472 0.714168 0.249677
H89   H     H_    0.241578 0.910040 0.754206 0.260431
O20   O     O_3   0.620056 0.079365 0.547805 -0.607779
C76   C     C_3   0.637572 0.069470 0.664283 0.100354
H90   H     H_    0.691178 0.089910 0.675094 0.162065
H91   H     H_    0.637732 0.010348 0.690191 0.162920
C77   C     C_3   0.590257 0.113768 0.743709 -0.385675
H92   H     H_    0.588125 0.171917 0.714167 0.237228
H93   H     H_    0.537288 0.090363 0.741376 0.206893
C78   C     C_3   0.615696 0.111663 0.866881 -0.934729
H94   H     H_    0.618371 0.053808 0.897856 0.257344
H95   H     H_    0.579529 0.142430 0.922544 0.257208
H96   H     H_    0.667462 0.137702 0.872995 0.261719

loop_
_geom_bond_atom_site_label_1
_geom_bond_atom_site_label_2
_ccdc_geom_bond_type
C15   C18   A    
C50   H29   S    
C29   C33   A    
C21   O8    A    
C6    N2    A    
Cu2   O8    S    
O13   C55   S    
C65   C66   S    
C1    O4    A    
C17   C20   A    
C61   C62   S    
C55   H42   S    
C64   H62   S    
Cu1   O5    S    
C58   H48   S    
C39   C41   A    
C72   H80   S    
Cu2   O6    S    
C40   H2    S    
C62   H58   S    
C34   O16   S    
C52   H34   S    
C45   H18   S    
C32   C36   A    
C67   H69   S    
C63   H60   S    
C18   C19   A    
C1    O1    A    
C2    O2    A    
C48   H26   S    
C71   H78   S    
C56   H43   S    
C51   H33   S    
C30   O12   S    
C33   C36   A    
C75   H87   S    
C55   C56   S    
C34   C35   A    
C66   H68   S    
C76   H91   S    
C9    C13   A    
C57   H45   S    
C53   H36   S    
C58   H49   S    
C8    N2    A    
Cu2   N2    S    
C16   C17   A    
C56   H44   S    
C45   H19   S    
C51   H32   S    
C29   C38   A    
C54   H38   S    
C68   H72   S    
C8    C12   A    
C28   O10   S    
C8    H8    S    
C15   O17   S    
C2    O3    A    
Cu1   O1    S    
C39   H1    S    
C60   H54   S    
C40   C42   A    
C66   H66   S    
C52   H35   S    
C54   H39   S    
C5    H5    S    
C53   H37   S    
C55   H41   S    
C64   H63   S    
C73   H83   S    
C70   C71   S    
C69   H74   S    
C48   H25   S    
C16   C19   A    
C15   C20   A    
C62   C63   S    
C21   O5    A    
C45   H17   S    
C30   C34   A    
C27   C31   A    
O9    C43   S    
C77   C78   S    
C32   O14   S    
C28   C32   A    
C63   H59   S    
C70   H77   S    
C10   C14   A    
C74   H86   S    
C16   O18   S    
C70   H76   S    
C44   H16   S    
C29   O11   S    
C43   H13   S    
C58   C59   S    
C61   H56   S    
C59   C60   S    
Cu2   O4    S    
C25   C26   S    
C48   H24   S    
C6    H6    S    
C78   H94   S    
C30   C37   A    
O20   C76   S    
C57   H47   S    
C77   H93   S    
C74   H85   S    
C76   C77   S    
C7    C11   A    
Cu1   Cu2   S    
C22   O7    A    
C5    C9    A    
C46   C47   S    
C69   H75   S    
C49   H28   S    
C68   H71   S    
C4    C39   A    
C28   C38   A    
Cu1   O7    S    
C56   C57   S    
C51   H31   S    
C41   H3    S    
C68   C69   S    
C42   H4    S    
C65   H64   S    
C63   H61   S    
C12   H12   S    
C72   H81   S    
C1    C38   S    
C43   H14   S    
C12   C14   A    
C3    C40   A    
O19   C73   S    
C52   C53   S    
C47   H23   S    
C21   C23   S    
O15   C61   S    
C54   H40   S    
C31   C35   A    
C9    H9    S    
C64   C65   S    
C11   H11   S    
Cu1   O3    S    
C49   C50   S    
C46   H21   S    
C69   H73   S    
C74   C75   S    
C17   O19   S    
C3    C41   A    
C59   H51   S    
C13   C20   S    
O10   C46   S    
C14   C19   S    
C67   C68   S    
C24   C26   T    
C65   H65   S    
O16   C64   S    
C6    C10   A    
C44   C45   S    
C73   H84   S    
C43   C44   S    
C61   H55   S    
C50   C51   S    
C47   C48   S    
C62   H57   S    
C75   H89   S    
C5    N1    A    
C77   H92   S    
C78   H96   S    
C67   H70   S    
C60   H52   S    
C7    H7    S    
C44   H15   S    
C11   C13   A    
C2    C37   S    
C49   H27   S    
O18   C70   S    
C4    C42   A    
C3    C36   S    
Cu2   O2    S    
C59   H50   S    
C18   O20   S    
O12   C52   S    
C72   H82   S    
C75   H88   S    
C22   C24   S    
C66   H67   S    
C76   H90   S    
C10   H10   S    
C57   H46   S    
C4    C35   S    
C73   C74   S    
C27   O9    S    
Cu1   N1    S    
C22   O6    A    
C46   H20   S    
C33   O15   S    
C23   C25   T    
C50   H30   S    
C47   H22   S    
O17   C67   S    
O14   C58   S    
C31   O13   S    
C71   H79   S    
C60   H53   S    
O11   C49   S    
C7    N1    A    
C53   C54   S    
C27   C37   A    
C78   H95   S    
C71   C72   S    
