data_mof_unit_39663.cif
_audit_creation_date              2012-12-11T17:34:23-0500
_audit_creation_method            fapswitch 2.2
_symmetry_space_group_name_H-M    P1
_symmetry_Int_Tables_number       1
_space_group_crystal_system       triclinic
_cell_length_a                    23.784025
_cell_length_b                    7.223452
_cell_length_c                    20.643291
_cell_angle_alpha                 89.99194
_cell_angle_beta                  105.394746
_cell_angle_gamma                 89.991679
_cell_volume                      3419.3223635

loop_
_atom_site_label
_atom_site_type_symbol
_atom_type_description
_atom_site_fract_x
_atom_site_fract_y
_atom_site_fract_z
_atom_type_partial_charge
O1    O     O_R   0.449110 0.494310 0.552140 -0.537680
O2    O     O_R   0.550890 0.994310 0.447860 -0.537676
O3    O     O_R   0.440010 0.824420 0.415850 -0.533725
O4    O     O_R   0.559990 0.324420 0.584150 -0.533706
C1    C     C_R   0.425310 0.655764 0.391004 0.682974
C2    C     C_R   0.574687 0.155715 0.608994 0.682983
O5    O     O_R   0.442260 0.824040 0.549660 -0.540216
O6    O     O_R   0.557740 0.324040 0.450340 -0.540218
O7    O     O_R   0.553160 0.993960 0.582620 -0.531439
O8    O     O_R   0.446840 0.493960 0.417380 -0.531454
C3    C     C_R   0.428630 0.655390 0.567620 0.678124
C4    C     C_R   0.571369 0.155389 0.432380 0.678083
O9    O     O_3   0.536380 0.660670 0.510660 -0.372774
O10   O     O_3   0.463620 0.160670 0.489340 -0.372798
V1    V     V_3+5 0.493250 0.935680 0.498020 1.407840
V2    V     V_3+5 0.506750 0.435680 0.501980 1.407820
C5    C     C_R   0.823368 0.910436 0.170663 -0.137361
C6    C     C_R   0.176572 0.410427 0.829259 -0.137351
H1    H     H_    0.806399 0.784421 0.186802 0.105835
H2    H     H_    0.193494 0.284406 0.813060 0.105820
C7    C     C_R   0.862634 0.898522 0.130614 -0.167076
C8    C     C_R   0.137308 0.398510 0.869311 -0.167037
H3    H     H_    0.875031 0.762777 0.116929 0.122182
H4    H     H_    0.124864 0.262760 0.882937 0.122134
C9    C     C_R   0.885778 0.059843 0.109049 -0.052157
C10   C     C_R   0.114223 0.559838 0.890951 -0.052102
C11   C     C_R   0.868091 0.233046 0.128478 -0.169477
C12   C     C_R   0.131965 0.733049 0.871595 -0.169542
H5    H     H_    0.884643 0.360671 0.113081 0.125645
H6    H     H_    0.115461 0.860680 0.887054 0.125630
C13   C     C_R   0.828882 0.244453 0.168421 -0.140644
C14   C     C_R   0.171173 0.744458 0.831650 -0.140637
H7    H     H_    0.816248 0.379357 0.182732 0.106004
H8    H     H_    0.183852 0.879369 0.817398 0.105995
C15   C     C_R   0.806402 0.083458 0.189906 0.131772
C16   C     C_R   0.193595 0.583457 0.810090 0.131790
C17   C     C_1   0.766292 0.096472 0.231871 -0.061078
C18   C     C_1   0.233704 0.596475 0.768123 -0.061079
C19   C     C_1   0.732858 0.108182 0.267018 -0.061127
C20   C     C_1   0.267137 0.608186 0.732977 -0.061125
C21   C     C_R   0.670079 0.960130 0.330213 -0.140381
C22   C     C_R   0.329893 0.460128 0.669751 -0.140382
H9    H     H_    0.682394 0.825279 0.315489 0.105905
H10   H     H_    0.317559 0.325271 0.684449 0.105898
C23   C     C_R   0.631069 0.971458 0.370405 -0.168919
C24   C     C_R   0.368905 0.471455 0.629561 -0.168915
H11   H     H_    0.614319 0.843826 0.385537 0.125122
H12   H     H_    0.385635 0.343817 0.614403 0.125112
C25   C     C_R   0.613852 0.144591 0.390447 -0.052129
C26   C     C_R   0.386146 0.644595 0.609552 -0.052112
C27   C     C_R   0.637169 0.305926 0.369112 -0.168936
C28   C     C_R   0.362853 0.805936 0.630918 -0.168933
H13   H     H_    0.625099 0.441624 0.383220 0.121973
H14   H     H_    0.374943 0.941639 0.616836 0.121952
C29   C     C_R   0.676238 0.294089 0.328814 -0.137171
C30   C     C_R   0.323784 0.794099 0.671215 -0.137165
H15   H     H_    0.693393 0.420112 0.312922 0.105859
H16   H     H_    0.306648 0.920128 0.687132 0.105852
C31   C     C_R   0.692809 0.121135 0.309059 0.131965
C32   C     C_R   0.307187 0.621139 0.690937 0.131973
C33   C     C_R   0.642257 0.191981 0.795312 -0.158631
C34   C     C_R   0.357586 0.694845 0.204793 -0.158697
H17   H     H_    0.556153 0.220215 0.729805 0.106667
H18   H     H_    0.443678 0.723184 0.270301 0.106759
H19   H     H_    0.726622 0.190542 0.908754 0.127132
H20   H     H_    0.273154 0.694773 0.091413 0.127114
H21   H     H_    0.627574 0.223056 0.839528 0.114688
H22   H     H_    0.372193 0.727315 0.160634 0.114699
C35   C     C_R   0.618559 0.149525 0.674802 -0.034696
C36   C     C_R   0.381429 0.649821 0.325197 -0.034848
C37   C     C_R   0.902001 0.015333 0.768166 -0.159152
C38   C     C_R   0.098111 0.513367 0.231775 -0.159051
C39   C     C_R   0.863648 0.011743 0.704314 -0.118386
C40   C     C_R   0.136511 0.508883 0.295592 -0.118428
C41   C     C_R   0.804341 0.045009 0.695247 -0.157036
C42   C     C_R   0.195779 0.542814 0.304677 -0.157045
C43   C     C_R   0.781539 0.083607 0.750493 0.077039
C44   C     C_R   0.218491 0.583089 0.249492 0.077057
C45   C     C_R   0.821480 0.089152 0.816167 0.068820
C46   C     C_R   0.178496 0.589620 0.183861 0.068836
C47   C     C_R   0.720537 0.116537 0.742744 0.073030
C48   C     C_R   0.279456 0.616735 0.257260 0.072994
C49   C     C_R   0.701381 0.156178 0.800890 0.137337
C50   C     C_R   0.298514 0.658140 0.199184 0.137384
C51   C     C_R   0.741225 0.160751 0.864375 -0.198651
C52   C     C_R   0.258622 0.663636 0.135739 -0.198675
C53   C     C_R   0.800185 0.127402 0.872012 -0.191291
C54   C     C_R   0.199703 0.629529 0.128078 -0.191472
C55   C     C_R   0.677654 0.112462 0.679575 -0.213033
C56   C     C_R   0.322389 0.611775 0.320386 -0.213098
C57   C     C_R   0.601410 0.189946 0.732874 -0.164590
C58   C     C_R   0.398473 0.692045 0.267198 -0.164507
C59   C     C_R   0.881949 0.054264 0.824502 -0.079383
C60   C     C_R   0.118069 0.553952 0.175499 -0.079528
H23   H     H_    0.947803 0.987148 0.773741 0.105416
H24   H     H_    0.052348 0.484501 0.226178 0.105493
H25   H     H_    0.880030 0.981887 0.661257 0.120611
H26   H     H_    0.120199 0.477724 0.338601 0.120616
H27   H     H_    0.829094 0.132244 0.922297 0.112668
H28   H     H_    0.170755 0.635137 0.077826 0.112962
O11   O     O_R   0.053190 0.709680 0.082610 -0.531525
O12   O     O_R   0.946810 0.209680 0.917390 -0.531479
O13   O     O_R   0.057740 0.380240 0.950340 -0.539655
O14   O     O_R   0.942260 0.880240 0.049660 -0.539663
C61   C     C_R   0.071471 0.548977 0.932527 0.674051
C62   C     C_R   0.928529 0.048979 0.067473 0.674008
O15   O     O_R   0.060000 0.379940 0.084150 -0.532360
O16   O     O_R   0.940000 0.879940 0.915850 -0.532367
O17   O     O_R   0.949110 0.210100 0.052140 -0.538015
O18   O     O_R   0.050890 0.710100 0.947860 -0.538051
C63   C     C_R   0.074748 0.548230 0.109002 0.676495
C64   C     C_R   0.925257 0.048280 0.890999 0.676555
O19   O     O_3   0.963630 0.543720 0.989330 -0.371963
O20   O     O_3   0.036370 0.043720 0.010670 -0.372006
V3    V     V_3+5 0.006750 0.268680 0.001980 1.411660
V4    V     V_3+5 0.993250 0.768680 0.998020 1.411568
H29   H     H_    0.688664 0.083546 0.633219 0.094725
H30   H     H_    0.311450 0.581558 0.366691 0.094852
H31   H     H_    0.777517 0.039299 0.644278 0.109165
H32   H     H_    0.222647 0.536265 0.355612 0.109161

loop_
_geom_bond_atom_site_label_1
_geom_bond_atom_site_label_2
_ccdc_geom_bond_type
C2    C35   S    
C61   O18   A    
C20   C32   S    
C29   C31   A    
C11   H5    S    
C21   H9    S    
O12   C64   A    
O1    C3    A    
O2    C4    A    
C2    O7    A    
O14   C62   A    
C4    C25   S    
C40   H26   S    
C39   H25   S    
C42   H32   S    
C40   C42   A    
C56   H30   S    
C15   C17   S    
C42   C44   A    
C45   C59   A    
C44   C46   A    
C37   H23   S    
C60   C63   S    
C52   C54   A    
C22   C24   A    
C33   H21   S    
C7    C9    A    
O12   V3    S    
O14   V4    S    
C12   H6    S    
C25   C27   A    
C34   C58   A    
C26   C28   A    
C13   H7    S    
C43   C47   A    
C27   C29   A    
O19   V4    S    
C38   C60   A    
O5    V1    S    
O6    V2    S    
C39   C41   A    
C36   C56   A    
C22   H10   S    
C35   C55   A    
C10   C61   S    
C45   C53   A    
C47   C49   A    
C28   H14   S    
C9    C62   S    
O20   V3    S    
C53   H27   S    
C23   H11   S    
C24   H12   S    
C51   C53   A    
C11   C13   A    
C12   C14   A    
C41   H31   S    
C21   C31   A    
C38   C40   A    
C33   C49   A    
C22   C32   A    
C37   C39   A    
C5    C7    A    
O16   C64   A    
C27   H13   S    
C14   H8    S    
O4    V2    S    
O13   V3    S    
C1    C36   S    
C44   C48   A    
O5    C3    A    
C23   C25   A    
O6    C4    A    
C19   C31   S    
C43   C45   A    
O13   C61   A    
O1    V2    S    
O2    V1    S    
C41   C43   A    
O15   V3    S    
C54   H28   S    
O4    C2    A    
C49   C51   A    
C55   H29   S    
C48   C50   A    
C7    H3    S    
C8    H4    S    
C9    C11   A    
H18   C58   S    
C46   C60   A    
O18   V4    S    
O3    V1    S    
C34   C50   A    
C6    C8    A    
O15   C63   A    
C36   C58   A    
C50   C52   A    
O3    C1    A    
H20   C52   S    
C14   C16   A    
H19   C51   S    
C37   C59   A    
O11   C63   A    
C24   C26   A    
C10   C12   A    
C48   C56   A    
C34   H22   S    
O16   V4    S    
C29   H15   S    
O7    V1    S    
C47   C55   A    
C1    O8    A    
C46   C54   A    
C3    C26   S    
O8    V2    S    
C18   C20   T    
C28   C30   A    
C13   C15   A    
C16   C18   S    
C5    H1    S    
C30   H16   S    
C6    H2    S    
O17   V3    S    
C59   C64   S    
C38   H24   S    
C30   C32   A    
C17   C19   T    
C8    C10   A    
O9    V2    S    
H17   C57   S    
O11   V4    S    
C21   C23   A    
O10   V1    S    
C5    C15   A    
C35   C57   A    
C6    C16   A    
C33   C57   A    
C62   O17   A    
