data_mof_unit_29683.cif
_audit_creation_date              2012-12-10T18:06:49-0500
_audit_creation_method            fapswitch 2.2
_symmetry_space_group_name_H-M    P1
_symmetry_Int_Tables_number       1
_space_group_crystal_system       triclinic
_cell_length_a                    12.596925
_cell_length_b                    13.147294
_cell_length_c                    15.461724
_cell_angle_alpha                 83.309227
_cell_angle_beta                  98.615231
_cell_angle_gamma                 96.827204
_cell_volume                      2501.11639091

loop_
_atom_site_label
_atom_site_type_symbol
_atom_type_description
_atom_site_fract_x
_atom_site_fract_y
_atom_site_fract_z
_atom_type_partial_charge
C1    C     C_R   0.444647 0.308104 0.512953 0.855296
C2    C     C_R   0.686616 0.542501 0.928474 0.177127
C3    C     C_R   0.577176 0.553313 0.894704 0.091800
C4    C     C_R   0.436378 0.515517 0.335892 0.868359
C5    C     C_R   0.756914 0.516206 0.874214 -0.199313
C6    C     C_R   0.718284 0.496912 0.787680 -0.202374
C7    C     C_R   0.539430 0.528893 0.809499 -0.258141
C8    C     C_R   0.732516 0.928269 0.557259 0.443552
C9    C     C_R   0.595924 0.798649 0.499617 -0.142774
C10   C     C_R   0.301123 0.163796 0.500175 -0.189087
C11   C     C_R   0.269505 0.060067 0.493143 -0.141457
C12   C     C_R   0.461150 0.575273 0.096695 0.091943
C13   C     C_R   0.347143 0.991264 0.502258 -0.192441
C14   C     C_R   0.458480 0.025169 0.522679 0.114233
C15   C     C_R   0.487714 0.126716 0.543813 0.085789
C16   C     C_R   0.557242 0.691441 0.491683 0.891319
C17   C     C_R   0.541698 0.961803 0.522830 0.039222
C18   C     C_R   0.650558 0.994162 0.556750 0.040968
C19   C     C_R   0.673044 0.088857 0.592226 -0.239361
C20   C     C_R   0.593103 0.154462 0.585127 -0.190109
C21   C     C_R   0.518946 0.867332 0.488583 -0.264820
C22   C     C_R   0.703138 0.829251 0.531989 -0.203571
C23   C     C_R   0.355346 0.598919 0.061689 0.177234
C24   C     C_R   0.410492 0.198052 0.522796 -0.118898
C25   C     C_R   0.138296 0.641395 0.622469 -0.303618
C26   C     C_R   0.757541 0.379415 0.396628 0.018366
C27   C     C_R   0.852945 0.353300 0.374947 -0.255144
C28   C     C_R   0.565427 0.490164 0.663744 0.851256
C29   C     C_R   0.950695 0.398885 0.414363 -0.199085
C30   C     C_R   0.952848 0.471118 0.475953 0.017856
C31   C     C_R   0.853390 0.494710 0.495823 0.236571
C32   C     C_R   0.048994 0.520622 0.518433 -0.012794
C33   C     C_R   0.043935 0.591957 0.579939 0.195154
C34   C     C_R   0.540076 0.575962 0.040407 0.068391
C35   C     C_R   0.944850 0.613274 0.598302 -0.285051
C36   C     C_R   0.850880 0.565220 0.556572 -0.229056
C37   C     C_R   0.150861 0.502499 0.502389 -0.054526
C38   C     C_R   0.236587 0.619854 0.603593 0.004574
C39   C     C_R   0.404554 0.540688 0.241669 -0.060422
C40   C     C_R   0.608721 0.502148 0.755522 -0.055340
C41   C     C_R   0.276984 0.597738 0.117536 -0.203591
C42   C     C_R   0.301667 0.569239 0.207384 -0.196298
C43   C     C_R   0.482674 0.543447 0.186166 -0.260067
C44   C     C_R   0.506278 0.580415 0.948988 0.070175
C45   C     C_R   0.402207 0.609653 0.915295 -0.226711
C46   C     C_R   0.328654 0.620728 0.971259 -0.234426
C47   C     C_R   0.650846 0.569976 0.072285 -0.228928
C48   C     C_R   0.723387 0.555668 0.016392 -0.235403
H1    H     H_    0.249072 0.641698 0.943422 0.145764
H2    H     H_    0.311035 0.656952 0.635596 0.134536
H3    H     H_    0.454589 0.527204 0.784968 0.162091
H4    H     H_    0.939849 0.667451 0.644974 0.169466
H5    H     H_    0.135967 0.695822 0.669524 0.149641
H6    H     H_    0.163448 0.450271 0.457132 0.122498
H7    H     H_    0.680920 0.344465 0.366461 0.142870
H8    H     H_    0.022425 0.375886 0.395337 0.134514
H9    H     H_    0.851215 0.298047 0.327898 0.152444
H10   H     H_    0.777275 0.584846 0.573124 0.213131
H11   H     H_    0.773759 0.477928 0.746288 0.163496
H12   H     H_    0.841221 0.509568 0.898963 0.136296
H13   H     H_    0.807406 0.550232 0.042967 0.145676
H14   H     H_    0.196370 0.617282 0.091540 0.135598
H15   H     H_    0.240417 0.569007 0.249669 0.158947
H16   H     H_    0.559538 0.516810 0.213292 0.161902
H17   H     H_    0.376483 0.626215 0.845758 0.144630
H18   H     H_    0.683787 0.578194 0.139998 0.151529
H19   H     H_    0.856734 0.030253 0.569729 0.325664
H20   H     H_    0.763821 0.775881 0.539402 0.173153
H21   H     H_    0.751913 0.113759 0.625587 0.159839
H22   H     H_    0.439886 0.843131 0.455595 0.162477
H23   H     H_    0.240415 0.217504 0.485571 0.154231
H24   H     H_    0.317449 0.911869 0.495158 0.137049
H25   H     H_    0.184911 0.033482 0.476943 0.152932
H26   H     H_    0.614317 0.226700 0.613734 0.168764
N1    N     N_R   0.239390 0.551900 0.544730 -0.102116
N2    N     N_R   0.759950 0.448600 0.455730 -0.131870
O1    O     O_R   0.374950 0.371210 0.521360 -0.610230
O2    O     O_R   0.542050 0.338030 0.492790 -0.614430
O3    O     O_R   0.368720 0.526070 0.390200 -0.617738
O4    O     O_R   0.535820 0.492890 0.361630 -0.619252
O5    O     O_R   0.457950 0.661970 0.507210 -0.611689
O6    O     O_R   0.625050 0.628790 0.478640 -0.633285
O7    O     O_R   0.464180 0.507110 0.638370 -0.614739
O8    O     O_R   0.631280 0.473930 0.609800 -0.642633
O9    O     O_3   0.840468 0.955357 0.584666 -0.778053
Zn1   Zn    Zn3+2 0.388420 0.522150 0.519080 0.937214
Zn2   Zn    Zn3+2 0.611580 0.477850 0.480920 0.923303

loop_
_geom_bond_atom_site_label_1
_geom_bond_atom_site_label_2
_ccdc_geom_bond_type
O2    Zn2   S    
C28   O8    A    
C1    O1    A    
C41   C42   A    
C19   C20   A    
O8    Zn2   S    
C26   H7    S    
C48   H13   S    
C45   C46   A    
C46   H1    S    
C26   C27   A    
C9    C16   S    
C25   H5    S    
C4    O4    A    
C12   C43   A    
C3    C7    A    
C30   C31   A    
C9    C22   A    
C27   C29   A    
C28   C40   S    
O6    Zn2   S    
C8    O9    S    
C35   C36   A    
C26   N2    A    
C7    C40   A    
C47   H18   S    
O5    Zn1   S    
C10   H23   S    
C37   N1    A    
C23   C46   A    
C13   C14   A    
C28   O7    A    
C1    O2    A    
C14   C17   A    
C41   H14   S    
C43   H16   S    
C39   C42   A    
C38   N1    A    
C15   C20   A    
C3    C44   A    
H19   O9    S    
C34   C44   A    
C4    O3    A    
C27   H9    S    
C18   C19   A    
C39   C43   A    
C2    C48   A    
C17   C21   A    
C29   C30   A    
C25   C38   A    
N1    Zn1   S    
C8    C22   A    
C47   C48   A    
C12   C23   A    
C4    C39   S    
C16   O6    A    
C17   C18   A    
C20   H26   S    
C32   C37   A    
N2    Zn2   S    
C22   H20   S    
C37   H6    S    
C15   C24   A    
C13   H24   S    
O1    Zn1   S    
C45   H17   S    
C6    C40   A    
C19   H21   S    
C2    C5    A    
C8    C18   A    
C12   C34   A    
C44   C45   A    
C5    H12   S    
C14   C15   A    
C6    H11   S    
C38   H2    S    
C29   H8    S    
O4    Zn2   S    
C36   H10   S    
C23   C41   A    
C21   H22   S    
C10   C24   A    
C32   C33   A    
C2    C3    A    
C7    H3    S    
C30   C32   A    
C11   C13   A    
C9    C21   A    
C31   N2    A    
C5    C6    A    
C16   O5    A    
C33   C35   A    
C11   H25   S    
C10   C11   A    
O7    Zn1   S    
C1    C24   S    
C35   H4    S    
C31   C36   A    
C34   C47   A    
C42   H15   S    
O3    Zn1   S    
C25   C33   A    
