data_mof_unit_29577.cif
_audit_creation_date              2012-12-10T16:44:43-0500
_audit_creation_method            fapswitch 2.2
_symmetry_space_group_name_H-M    P1
_symmetry_Int_Tables_number       1
_space_group_crystal_system       triclinic
_cell_length_a                    15.029609
_cell_length_b                    8.685835
_cell_length_c                    7.491398
_cell_angle_alpha                 103.221485
_cell_angle_beta                  94.454676
_cell_angle_gamma                 93.18367
_cell_volume                      946.452728387

loop_
_atom_site_label
_atom_site_type_symbol
_atom_type_description
_atom_site_fract_x
_atom_site_fract_y
_atom_site_fract_z
_atom_type_partial_charge
C1    C     C_R   0.496746 0.199722 0.453119 0.851357
C2    C     C_R   0.503253 0.800278 0.546881 0.851357
C3    C     C_R   0.030516 0.389478 0.168820 -0.212101
C4    C     C_R   0.969485 0.610516 0.831185 -0.212108
C5    C     C_2   0.493353 0.031393 0.427447 -0.368971
C6    C     C_2   0.506645 0.968607 0.572554 -0.368971
C7    C     C_R   0.328811 0.498135 0.501448 0.791460
C8    C     C_R   0.671189 0.501865 0.498552 0.791478
C9    C     C_R   0.822403 0.557876 0.663192 -0.254232
C10   C     C_R   0.177599 0.442126 0.336820 -0.254235
C11   C     C_R   0.768041 0.504558 0.496896 -0.063162
C12   C     C_R   0.231960 0.495441 0.503106 -0.063171
C13   C     C_R   0.806354 0.451744 0.331232 -0.244117
C14   C     C_R   0.193646 0.548250 0.668761 -0.244104
C15   C     C_R   0.898936 0.448759 0.331424 0.093059
C16   C     C_R   0.101064 0.551238 0.668578 0.093050
C17   C     C_R   0.953451 0.501536 0.499204 0.069068
C18   C     C_R   0.046550 0.498467 0.500805 0.069076
C19   C     C_R   0.914945 0.557210 0.665451 0.100741
C20   C     C_R   0.085056 0.442792 0.334559 0.100741
C21   C     C_R   0.937866 0.392670 0.167207 -0.219990
C22   C     C_R   0.062134 0.607324 0.832790 -0.219998
Cu1   Cu    Cu3+1 0.510010 0.517380 0.684380 1.009018
Cu2   Cu    Cu3+1 0.489990 0.482620 0.315620 1.009020
H1    H     H_    0.792807 0.600029 0.791288 0.158649
H2    H     H_    0.207195 0.399975 0.208729 0.158651
H3    H     H_    0.764197 0.410425 0.202920 0.174490
H4    H     H_    0.235801 0.589567 0.797057 0.174499
H5    H     H_    0.896716 0.351528 0.037721 0.154820
H6    H     H_    0.103284 0.648455 0.962267 0.154831
H7    H     H_    0.059546 0.345852 0.040520 0.155446
H8    H     H_    0.940454 0.654132 0.959483 0.155454
H9    H     H_    0.479099 0.958844 0.288278 0.167141
H10   H     H_    0.520899 0.041156 0.711722 0.167142
N1    N     N_2   0.474890 0.456420 0.038520 0.125917
N2    N     N_2   0.525110 0.543580 0.961480 0.125919
O1    O     O_R   0.506510 0.286130 0.619770 -0.558387
O2    O     O_R   0.493490 0.713870 0.380230 -0.558386
O3    O     O_R   0.489600 0.256770 0.308360 -0.635024
O4    O     O_R   0.510400 0.743230 0.691640 -0.635018
O5    O     O_R   0.378710 0.514640 0.655720 -0.536709
O6    O     O_R   0.621290 0.485360 0.344280 -0.536700
O7    O     O_R   0.361800 0.485290 0.344300 -0.600637
O8    O     O_R   0.638200 0.514710 0.655700 -0.600638
O9    O     O_3   0.396034 0.402803 0.940470 -0.475917
C23   C     C_3   0.375376 0.247504 0.958647 0.198033
H11   H     H_    0.348240 0.249090 0.092269 0.154830
H12   H     H_    0.434934 0.176286 0.946218 0.126235
C24   C     C_3   0.303757 0.166063 0.806437 -0.868100
H13   H     H_    0.328351 0.161888 0.669530 0.254829
H14   H     H_    0.286927 0.042947 0.818521 0.206058
H15   H     H_    0.242388 0.232007 0.817662 0.246181
O10   O     O_3   0.603969 0.597189 0.059529 -0.475914
C25   C     C_3   0.624633 0.752489 0.041355 0.198024
H16   H     H_    0.565080 0.823716 0.053780 0.126241
H17   H     H_    0.651774 0.750902 0.907740 0.154830
C26   C     C_3   0.696251 0.833916 0.193570 -0.868169
H18   H     H_    0.757589 0.767896 0.182439 0.246235
H19   H     H_    0.713143 0.956987 0.181413 0.206066
H20   H     H_    0.671626 0.838196 0.330464 0.254812

loop_
_geom_bond_atom_site_label_1
_geom_bond_atom_site_label_2
_ccdc_geom_bond_type
Cu2   O2    S    
Cu1   Cu2   S    
C25   H17   S    
C7    O7    A    
C4    C22   A    
C2    O2    A    
N1    N2    D    
Cu1   O5    S    
C1    O1    A    
C9    C11   A    
C24   H15   S    
C10   H2    S    
C7    O5    A    
C17   C18   A    
C9    H1    S    
C3    C20   A    
C2    C6    S    
O9    C23   S    
C3    H7    S    
C11   C13   A    
C23   C24   S    
C8    O8    A    
C26   H18   S    
C4    H8    S    
C10   C12   A    
C8    C11   S    
C1    C5    S    
C17   C19   A    
Cu1   O1    S    
C8    O6    A    
C24   H13   S    
C18   C20   A    
C13   C15   A    
C5    C6    D    
C14   C16   A    
C7    C12   S    
C26   H19   S    
Cu2   N1    S    
C3    C21   A    
C1    O3    A    
Cu1   O4    S    
N1    O9    S    
C23   H12   S    
C2    O4    A    
C15   C21   A    
Cu2   O3    S    
Cu2   O6    S    
C16   C18   A    
Cu1   N2    S    
C10   C20   A    
C25   H16   S    
C15   C17   A    
Cu2   O7    S    
C23   H11   S    
C13   H3    S    
C26   H20   S    
C16   C22   A    
N2    O10   S    
C22   H6    S    
C14   H4    S    
O10   C25   S    
C4    C19   A    
C21   H5    S    
C9    C19   A    
Cu1   O8    S    
C6    H10   S    
C12   C14   A    
C24   H14   S    
C25   C26   S    
C5    H9    S    
