data_mof_unit_54932.cif
_audit_creation_date              2012-12-10T17:16:13-0500
_audit_creation_method            fapswitch 2.2
_symmetry_space_group_name_H-M    P1
_symmetry_Int_Tables_number       1
_space_group_crystal_system       triclinic
_cell_length_a                    19.304411
_cell_length_b                    13.086916
_cell_length_c                    11.642345
_cell_angle_alpha                 100.146673
_cell_angle_beta                  92.976923
_cell_angle_gamma                 91.25174
_cell_volume                      2889.92024437

loop_
_atom_site_label
_atom_site_type_symbol
_atom_type_description
_atom_site_fract_x
_atom_site_fract_y
_atom_site_fract_z
_atom_type_partial_charge
C1    C     C_R   0.499818 0.299397 0.478438 0.775491
C2    C     C_R   0.500303 0.700812 0.521624 0.840909
C3    C     C_R   0.502658 0.814215 0.533502 -0.214755
C4    C     C_R   0.496764 0.186312 0.466427 -0.228378
C5    C     C_R   0.445690 0.021371 0.369928 -0.232753
C6    C     C_R   0.555535 0.978769 0.627420 -0.237526
C7    C     C_R   0.451963 0.127990 0.378578 0.432083
C8    C     C_R   0.542509 0.874018 0.627136 0.413488
C9    C     C_R   0.533369 0.137180 0.548739 -0.105061
C10   C     C_R   0.469695 0.862402 0.446506 -0.093075
C11   C     C_R   0.523315 0.029175 0.543237 0.040976
C12   C     C_R   0.479632 0.970458 0.452125 0.042392
C13   C     C_R   0.438298 0.396072 0.021598 -0.321659
C14   C     C_R   0.563675 0.601332 0.977970 -0.316196
C15   C     C_R   0.443597 0.407095 0.143986 0.101364
C16   C     C_R   0.557884 0.590868 0.855586 0.082605
C17   C     C_R   0.526855 0.544968 0.157124 0.099471
C18   C     C_R   0.473991 0.453961 0.842770 0.045584
C19   C     C_R   0.523177 0.536857 0.034126 0.072498
C20   C     C_R   0.478066 0.461562 0.965648 0.063558
C21   C     C_R   0.367256 0.502887 0.501614 0.800686
C22   C     C_R   0.632531 0.497362 0.498521 0.807044
C23   C     C_R   0.258525 0.565782 0.601472 0.461162
C24   C     C_R   0.738632 0.429416 0.396900 0.464026
C25   C     C_R   0.185799 0.578808 0.594043 -0.080943
C26   C     C_R   0.811759 0.428736 0.392656 -0.081339
C27   C     C_R   0.145622 0.520045 0.498869 -0.076525
C28   C     C_R   0.853384 0.481414 0.490044 -0.087884
C29   C     C_R   0.178507 0.464488 0.404353 -0.149819
C30   C     C_R   0.821922 0.532321 0.589101 -0.141144
C31   C     C_R   0.250298 0.462220 0.405493 -0.264488
C32   C     C_R   0.750279 0.536213 0.591165 -0.234210
C33   C     C_R   0.291055 0.509273 0.504447 -0.170039
C34   C     C_R   0.708159 0.487960 0.494773 -0.176159
C35   C     C_R   0.929620 0.488815 0.490534 0.403055
C36   C     C_R   0.069517 0.512463 0.496790 0.396477
Cu1   Cu    Cu3+1 0.505120 0.507730 0.615930 0.963745
Cu2   Cu    Cu3+1 0.494880 0.492270 0.384070 0.969067
H1    H     H_    0.403236 0.337098 0.971317 0.149737
H2    H     H_    0.599616 0.659067 0.028129 0.150658
H3    H     H_    0.148386 0.421977 0.329217 0.162841
H4    H     H_    0.853118 0.572812 0.664102 0.169851
H5    H     H_    0.273881 0.421411 0.329159 0.158863
H6    H     H_    0.727720 0.579360 0.667601 0.177495
H7    H     H_    0.411184 0.980455 0.300150 0.198278
H8    H     H_    0.590919 0.019289 0.696132 0.197487
H9    H     H_    0.439233 0.396647 0.789158 0.119848
H10   H     H_    0.561590 0.602292 0.210775 0.132561
H11   H     H_    0.589698 0.639863 0.812558 0.152566
H12   H     H_    0.412819 0.356398 0.186306 0.146214
N1    N     N_R   0.030592 0.519371 0.398193 -0.219697
N2    N     N_R   0.968664 0.481550 0.588889 -0.225474
N3    N     N_R   0.961788 0.508633 0.395479 -0.232213
N4    N     N_R   0.037404 0.492361 0.591655 -0.253586
N5    N     N_R   0.512830 0.519350 0.790130 -0.187156
N6    N     N_R   0.487170 0.480650 0.209870 -0.192311
O1    O     O_R   0.503640 0.354460 0.582000 -0.580963
O2    O     O_R   0.496360 0.645540 0.418000 -0.590627
O3    O     O_R   0.494980 0.341410 0.386200 -0.562979
O4    O     O_R   0.505020 0.658590 0.613800 -0.549690
O5    O     O_R   0.404470 0.506520 0.597930 -0.581556
O6    O     O_R   0.595530 0.493480 0.402070 -0.555255
O7    O     O_R   0.395820 0.493460 0.402130 -0.594406
O8    O     O_R   0.604180 0.506540 0.597870 -0.584755
O9    O     O_3   0.298074 0.617221 0.698054 -0.568608
C37   C     C_3   0.309133 0.550563 0.780670 0.098156
H13   H     H_    0.360888 0.572453 0.825175 0.178529
H14   H     H_    0.310598 0.466682 0.740257 0.103878
C38   C     C_3   0.255242 0.565593 0.873809 -0.323460
H15   H     H_    0.252167 0.649524 0.910811 0.271045
H16   H     H_    0.203595 0.536074 0.833698 0.214125
C39   C     C_3   0.274231 0.507371 0.973094 -0.925358
H17   H     H_    0.278874 0.423227 0.938642 0.250906
H18   H     H_    0.233166 0.517022 0.037139 0.269697
H19   H     H_    0.324097 0.538995 0.018875 0.271017
O10   O     O_3   0.697601 0.375473 0.303254 -0.557937
C40   C     C_3   0.665465 0.286225 0.333853 0.101606
H20   H     H_    0.612536 0.277120 0.290515 0.193869
H21   H     H_    0.658987 0.291860 0.429316 0.065117
C41   C     C_3   0.705378 0.188880 0.289164 -0.330959
H22   H     H_    0.710362 0.181662 0.193410 0.259403
H23   H     H_    0.758196 0.195356 0.332981 0.210246
C42   C     C_3   0.668159 0.091520 0.313863 -0.916243
H24   H     H_    0.664813 0.095517 0.409509 0.253761
H25   H     H_    0.697445 0.021905 0.278675 0.264060
H26   H     H_    0.614930 0.083396 0.271485 0.266195
C43   C     C_2   0.152616 0.659728 0.678599 0.366143
H27   H     H_    0.096736 0.662519 0.681597 0.093791
O11   O     O_2   0.187156 0.728295 0.742465 -0.506774
C44   C     C_2   0.844374 0.368897 0.289706 0.399224
H28   H     H_    0.896070 0.339513 0.298992 0.072252
O12   O     O_2   0.814245 0.352185 0.193111 -0.488319
C45   C     C_2   0.422545 0.799628 0.353877 0.385217
H29   H     H_    0.381994 0.750075 0.378155 0.077239
O13   O     O_2   0.431565 0.797813 0.250495 -0.557592
C46   C     C_2   0.582339 0.199676 0.638557 0.402525
H30   H     H_    0.622590 0.248127 0.611789 0.056756
O14   O     O_2   0.575005 0.202857 0.742662 -0.537773
O15   O     O_3   0.574576 0.828747 0.713920 -0.606800
C47   C     C_3   0.541747 0.858941 0.820407 0.061496
H31   H     H_    0.505636 0.794805 0.832298 0.175036
H32   H     H_    0.510710 0.930485 0.824390 0.145750
C48   C     C_3   0.596817 0.878419 0.921726 -0.365086
H33   H     H_    0.629569 0.809443 0.919147 0.217163
H34   H     H_    0.630904 0.945696 0.912427 0.235656
C49   C     C_3   0.563829 0.901112 0.039600 -0.857429
H35   H     H_    0.533450 0.972842 0.046366 0.269667
H36   H     H_    0.605120 0.912427 0.111063 0.256315
H37   H     H_    0.529087 0.835156 0.050621 0.277842
O16   O     O_3   0.414655 0.173860 0.297611 -0.605596
C50   C     C_3   0.352078 0.212091 0.344506 0.074078
H38   H     H_    0.336003 0.274721 0.297201 0.156236
H39   H     H_    0.358296 0.247835 0.438975 0.112638
C51   C     C_3   0.294211 0.127657 0.324376 -0.380590
H40   H     H_    0.291317 0.088596 0.231322 0.240648
H41   H     H_    0.305594 0.068756 0.380155 0.211947
C52   C     C_3   0.224049 0.173604 0.354545 -0.875137
H42   H     H_    0.226033 0.214567 0.446807 0.258745
H43   H     H_    0.183627 0.110403 0.342894 0.265114
H44   H     H_    0.209462 0.229034 0.295986 0.251112

loop_
_geom_bond_atom_site_label_1
_geom_bond_atom_site_label_2
_ccdc_geom_bond_type
C37   H14   S    
C43   H27   S    
C45   H29   S    
C35   N3    A    
C19   C20   A    
C17   H10   S    
C18   H9    S    
C51   H40   S    
C40   H20   S    
C31   H5    S    
C42   H24   S    
C8    O15   S    
C24   C26   A    
C1    O3    A    
C41   H22   S    
C2    O4    A    
C37   C38   S    
C21   C33   S    
C49   H35   S    
C25   C43   S    
C27   C29   A    
C15   H12   S    
C38   H16   S    
O16   C50   S    
Cu2   O2    S    
C48   H34   S    
C50   H38   S    
C28   C35   S    
C23   C33   A    
C46   O14   D    
C31   C33   A    
C48   C49   S    
C21   O5    A    
C37   H13   S    
C45   O13   D    
C39   H19   S    
N2    N4    A    
C40   H21   S    
C22   C34   S    
C21   O7    A    
Cu1   O4    S    
C16   H11   S    
C5    C12   A    
C39   H18   S    
C3    C8    A    
C52   H44   S    
C6    C11   A    
C5    C7    A    
C24   O10   S    
C6    C8    A    
C10   C45   S    
C4    C7    A    
C5    H7    S    
C47   C48   S    
C24   C34   A    
N1    N3    A    
C32   C34   A    
C38   C39   S    
Cu1   Cu2   S    
C1    O1    A    
C22   O6    A    
C44   O12   D    
O15   C47   S    
C17   N6    A    
C46   H30   S    
C47   H32   S    
C32   H6    S    
C50   H39   S    
O10   C40   S    
C9    C11   A    
C9    C46   S    
C36   N1    A    
C10   C12   A    
C18   N5    A    
C41   H23   S    
C42   H25   S    
C13   C15   A    
C14   C16   A    
C26   C44   S    
C48   H33   S    
Cu1   O8    S    
Cu1   O5    S    
C41   C42   S    
Cu2   O7    S    
C40   C41   S    
C6    H8    S    
C13   C20   A    
C29   H3    S    
C14   C19   A    
C39   H17   S    
C51   H41   S    
C11   C12   A    
C2    O2    A    
C27   C36   S    
C25   C27   A    
C26   C28   A    
C7    O16   S    
C1    C4    S    
C15   N6    A    
C23   O9    S    
C52   H43   S    
C2    C3    S    
C16   N5    A    
C29   C31   A    
C3    C10   A    
C52   H42   S    
C30   C32   A    
C44   H28   S    
C49   H36   S    
C28   C30   A    
C47   H31   S    
C17   C19   A    
C50   C51   S    
C18   C20   A    
C23   C25   A    
C38   H15   S    
C13   H1    S    
C51   C52   S    
C36   N4    A    
C14   H2    S    
Cu2   O3    S    
Cu1   N5    S    
C42   H26   S    
Cu2   N6    S    
O9    C37   S    
C35   N2    A    
C43   O11   D    
C30   H4    S    
C22   O8    A    
C4    C9    A    
Cu1   O1    S    
Cu2   O6    S    
C49   H37   S    
