data_mof_unit_46552.cif
_audit_creation_date              2012-12-10T17:43:42-0500
_audit_creation_method            fapswitch 2.2
_symmetry_space_group_name_H-M    P1
_symmetry_Int_Tables_number       1
_space_group_crystal_system       triclinic
_cell_length_a                    14.890186
_cell_length_b                    10.779013
_cell_length_c                    10.043179
_cell_angle_alpha                 91.49724
_cell_angle_beta                  91.070177
_cell_angle_gamma                 95.418493
_cell_volume                      1603.83245984

loop_
_atom_site_label
_atom_site_type_symbol
_atom_type_description
_atom_site_fract_x
_atom_site_fract_y
_atom_site_fract_z
_atom_type_partial_charge
C1    C     C_R   0.503803 0.260883 0.498902 0.926626
C2    C     C_R   0.178671 0.396516 0.530552 -0.283250
C3    C     C_R   0.232663 0.502242 0.496645 -0.074748
C4    C     C_R   0.327575 0.499298 0.498882 0.915256
C5    C     C_R   0.197072 0.612578 0.465375 -0.210089
C6    C     C_R   0.625743 0.149002 0.685106 -0.294463
C7    C     C_R   0.680757 0.094514 0.776529 0.100218
C8    C     C_R   0.693244 0.967194 0.760817 0.371083
C9    C     C_R   0.646399 0.896505 0.656488 0.412035
C10   C     C_R   0.575986 0.946799 0.583893 -0.094247
C11   C     C_R   0.570375 0.076160 0.590134 -0.036749
C12   C     C_R   0.916162 0.626472 0.473230 -0.020617
C13   C     C_R   0.512049 0.128429 0.497323 -0.152758
C14   C     C_R   0.458651 0.052479 0.404215 0.067039
C15   C     C_R   0.451444 0.924297 0.416858 0.337645
C16   C     C_R   0.505018 0.739311 0.501525 1.021009
C17   C     C_R   0.511899 0.872545 0.502260 -0.143474
C18   C     C_R   0.349741 0.380407 0.128468 0.529015
C19   C     C_R   0.268790 0.354754 0.055788 -0.353555
C20   C     C_R   0.270572 0.349201 0.919243 -0.348472
C21   C     C_R   0.353018 0.371051 0.855705 0.546894
C22   C     C_R   0.427558 0.438915 0.924187 -0.038288
C23   C     C_R   0.938769 0.296608 0.567823 -0.201831
C24   C     C_R   0.426522 0.441833 0.067915 -0.025126
C25   C     C_R   0.570671 0.553751 0.074693 0.215892
C26   C     C_R   0.568134 0.559898 0.933009 0.370264
C27   C     C_R   0.672821 0.504772 0.500819 0.880331
C28   C     C_R   0.821424 0.622380 0.463213 0.395508
C29   C     C_R   0.769106 0.513230 0.501816 -0.143664
C30   C     C_R   0.808163 0.407439 0.538581 -0.330685
C31   C     C_R   0.900544 0.406403 0.537846 0.160867
C32   C     C_R   0.955082 0.515742 0.505798 -0.067668
C33   C     C_3   0.814321 0.217811 0.864102 -0.809752
C34   C     C_R   0.031408 0.293591 0.566213 -0.227603
C35   C     C_3   0.726256 0.534672 0.129919 -0.678539
C36   C     C_3   0.164965 0.915136 0.524322 -0.812273
C37   C     C_3   0.917563 0.915003 0.560860 -0.651445
C38   C     C_3   0.455533 0.087988 0.168023 -0.634437
C39   C     C_R   0.086268 0.400386 0.534013 0.166046
C40   C     C_R   0.048460 0.512584 0.504132 0.033646
C41   C     C_R   0.104318 0.620037 0.470526 0.042419
C42   C     C_R   0.067146 0.732368 0.443762 0.113576
C43   C     C_R   0.972912 0.736946 0.448357 0.173541
H1    H     H_    0.628496 0.248996 0.691961 0.202164
H2    H     H_    0.683336 0.235382 0.920955 0.238409
H3    H     H_    0.815760 0.294481 0.792567 0.251947
H4    H     H_    0.855429 0.143995 0.826578 0.252465
H5    H     H_    0.844669 0.256106 0.960126 0.248355
H6    H     H_    0.769955 0.964274 0.921171 0.366705
H7    H     H_    0.727611 0.764581 0.666699 0.387901
H8    H     H_    0.338897 0.891644 0.310250 0.330965
H9    H     H_    0.664615 0.699096 0.128063 0.257592
H10   H     H_    0.783750 0.577478 0.192119 0.243541
H11   H     H_    0.748061 0.533552 0.024830 0.259377
H12   H     H_    0.207788 0.317740 0.103733 0.166551
H13   H     H_    0.709744 0.437164 0.161159 0.231627
H14   H     H_    0.298367 0.288420 0.277096 0.301227
H15   H     H_    0.309932 0.250740 0.714686 0.297733
H16   H     H_    0.613547 0.649591 0.785814 0.407672
H17   H     H_    0.107180 0.889842 0.331487 0.216661
H18   H     H_    0.134153 0.004847 0.531454 0.222273
H19   H     H_    0.238352 0.935599 0.508586 0.243824
H20   H     H_    0.155684 0.866287 0.619992 0.256056
H21   H     H_    0.964945 0.913175 0.367338 0.216206
H22   H     H_    0.981582 0.954177 0.610498 0.204572
H23   H     H_    0.210917 0.308644 0.864857 0.166990
H24   H     H_    0.880920 0.849041 0.628619 0.261437
H25   H     H_    0.874752 0.991732 0.541813 0.225297
H26   H     H_    0.345016 0.087029 0.293497 0.206155
H27   H     H_    0.452355 0.987486 0.138988 0.233564
H28   H     H_    0.527082 0.128290 0.172216 0.236983
H29   H     H_    0.419227 0.136444 0.090402 0.229305
H30   H     H_    0.765828 0.323992 0.563190 0.150765
H31   H     H_    0.896829 0.212880 0.591534 0.143762
H32   H     H_    0.060097 0.207744 0.589315 0.133549
H33   H     H_    0.208647 0.311359 0.552535 0.123954
H34   H     H_    0.242628 0.692335 0.439653 0.199509
H35   H     H_    0.717645 0.703844 0.394210 0.366429
N1    N     N_R   0.499150 0.498800 0.142780 -0.133372
N2    N     N_R   0.499120 0.498720 0.857170 -0.168244
N3    N     N_2   0.722208 0.168152 0.884783 -0.312284
N4    N     N_2   0.648984 0.605856 0.145988 -0.252144
N5    N     N_2   0.125123 0.840352 0.412601 -0.309823
N6    N     N_2   0.935600 0.853383 0.435736 -0.232443
N7    N     N_2   0.414229 0.104888 0.295927 -0.256109
O1    O     O_R   0.500000 0.316780 0.614690 -0.570274
O2    O     O_3   0.749445 0.908331 0.844782 -0.775517
O3    O     O_3   0.671570 0.781238 0.618626 -0.799019
O4    O     O_3   0.388667 0.845706 0.343307 -0.779934
O5    O     O_3   0.358581 0.322406 0.246435 -0.707754
O6    O     O_3   0.364643 0.307292 0.738564 -0.721383
O7    O     O_3   0.636864 0.630240 0.873956 -0.751176
O8    O     O_R   0.499990 0.316750 0.385360 -0.540019
O9    O     O_R   0.367850 0.499980 0.614680 -0.579214
O10   O     O_R   0.367840 0.499960 0.385350 -0.567070
O11   O     O_R   0.500010 0.683250 0.614640 -0.638894
O12   O     O_R   0.500000 0.683220 0.385310 -0.573499
O13   O     O_R   0.632160 0.500040 0.614650 -0.615227
O14   O     O_R   0.632150 0.500020 0.385320 -0.621144
O15   O     O_3   0.782955 0.723293 0.411177 -0.741069
Zn1   Zn    Zn3+2 0.500010 0.500020 0.653130 0.995058
Zn2   Zn    Zn3+2 0.499990 0.499980 0.346870 1.023853

loop_
_geom_bond_atom_site_label_1
_geom_bond_atom_site_label_2
_ccdc_geom_bond_type
C38   H27   S    
C27   O13   A    
C43   N6    S    
C35   H10   S    
C41   C42   A    
H6    O2    S    
C19   C20   A    
C2    H33   S    
C7    C8    A    
C27   O14   A    
C12   C28   A    
C18   C24   A    
C20   H23   S    
C28   C29   A    
C12   C43   A    
C9    O3    S    
C30   C31   A    
H17   N5    S    
C16   O12   A    
C27   C29   S    
C36   N5    S    
C26   O7    S    
C37   H25   S    
C18   C19   A    
H21   N6    S    
C2    C39   A    
O9    Zn1   S    
C8    C9    A    
C37   H22   S    
N1    Zn2   S    
C13   C14   A    
C36   H20   S    
C9    C10   A    
O12   Zn2   S    
O10   Zn2   S    
H7    O3    S    
C34   H32   S    
C28   O15   S    
C6    H1    S    
C21   C22   A    
C12   C32   A    
C35   H11   S    
C33   H3    S    
C36   H19   S    
C35   N4    S    
H15   O6    S    
C38   H29   S    
C16   O11   A    
H14   O5    S    
C38   N7    S    
C34   C39   A    
C18   O5    S    
C6    C11   A    
C30   H30   S    
C16   C17   S    
C25   C26   A    
C26   N2    A    
C23   C31   A    
C29   C30   A    
C15   O4    S    
C4    O10   A    
C24   N1    A    
C31   C32   A    
C23   C34   A    
C37   N6    S    
H9    N4    S    
C4    O9    A    
C40   C41   A    
C7    N3    S    
H35   O15   S    
C25   N4    S    
C33   H4    S    
C22   C24   A    
C1    C13   S    
C42   C43   A    
C23   H31   S    
C5    H34   S    
C36   H18   S    
C39   C40   A    
H26   N7    S    
C21   O6    S    
C19   H12   S    
C1    O1    A    
C15   C17   A    
C5    C41   A    
C38   H28   S    
C35   H13   S    
C25   N1    A    
H2    N3    S    
C42   N5    S    
C14   N7    S    
C3    C5    A    
O8    Zn2   S    
C6    C7    A    
O13   Zn1   S    
N2    Zn1   S    
C8    O2    S    
C2    C3    A    
C22   N2    A    
H8    O4    S    
C11   C13   A    
C37   H24   S    
H16   O7    S    
C32   C40   A    
C10   C11   A    
O14   Zn2   S    
C20   C21   A    
C1    O8    A    
C33   H5    S    
C14   C15   A    
C10   C17   A    
O11   Zn1   S    
O1    Zn1   S    
C33   N3    S    
C3    C4    S    
