data_mof_unit_52670.cif
_audit_creation_date              2013-03-05T15:53:04-0500
_audit_creation_method            fapswitch 2.2
_symmetry_space_group_name_H-M    P1
_symmetry_Int_Tables_number       1
_space_group_crystal_system       triclinic
_cell_length_a                    6.954554
_cell_length_b                    20.454683
_cell_length_c                    24.391857
_cell_angle_alpha                 89.613267
_cell_angle_beta                  90.519292
_cell_angle_gamma                 89.350901
_cell_volume                      3469.37301161

loop_
_atom_site_label
_atom_site_type_symbol
_atom_site_description
_atom_site_fract_x
_atom_site_fract_y
_atom_site_fract_z
_atom_type_partial_charge
O1    O     O_R   0.507320 0.423560 0.460500 -0.590539
O2    O     O_R   0.170760 0.556250 0.437010 -0.590222
O3    O     O_R   0.004030 0.576440 0.539500 -0.587427
C1    C     C_R   0.338556 0.576421 0.421065 0.982561
O4    O     O_R   0.177370 0.422820 0.454110 -0.592265
O5    O     O_R   0.010680 0.442050 0.556720 -0.590075
C2    C     C_R   0.346356 0.398871 0.443508 0.922458
O6    O     O_R   0.500680 0.557950 0.443280 -0.589400
O7    O     O_3   0.340380 0.506470 0.533650 -0.268441
V1    V     V_3+5 0.064130 0.498800 0.493760 1.172530
O8    O     O_R   0.681160 0.443750 0.562990 -0.591095
C3    C     C_R   0.851052 0.423689 0.578888 0.978784
O9    O     O_R   0.674560 0.577180 0.545890 -0.588483
C4    C     C_R   0.842552 0.601072 0.556625 0.962965
V2    V     V_3+5 0.564560 0.501200 0.506240 1.176046
O10   O     O_3   0.838180 0.493530 0.466350 -0.275472
C5    C     C_R   0.977516 0.837759 0.911532 -0.107334
C6    C     C_R   0.846564 0.661942 0.588720 -0.160317
C7    C     C_R   0.057468 0.722846 0.905959 -0.073456
C8    C     C_R   0.045806 0.780250 0.935967 -0.172266
C9    C     C_R   0.923463 0.837761 0.855889 -0.200764
C10   C     C_R   0.937545 0.779901 0.823596 0.085836
C11   C     C_R   0.002654 0.721392 0.850153 -0.020397
C12   C     C_R   0.894030 0.778655 0.765838 0.069584
C13   C     C_R   0.919141 0.719549 0.735333 0.041938
C14   C     C_R   0.981369 0.662947 0.763951 -0.308933
C15   C     C_R   0.018986 0.662910 0.820221 0.324599
C16   C     C_R   0.825980 0.834694 0.737547 -0.198898
C17   C     C_R   0.789236 0.834063 0.681597 -0.137688
C18   C     C_R   0.818028 0.777603 0.650463 -0.015385
C19   C     C_R   0.879203 0.718722 0.677212 0.128433
C20   C     C_R   0.778708 0.778402 0.593213 0.361251
C21   C     C_R   0.789023 0.720283 0.563545 -0.256474
C22   C     C_R   0.894137 0.661169 0.644735 -0.227158
H1    H     H_    0.936030 0.614352 0.661633 0.116520
H2    H     H_    0.754146 0.720704 0.520131 0.157661
H3    H     H_    0.733107 0.878668 0.663210 0.178945
H4    H     H_    0.115639 0.680061 0.926733 0.169456
H5    H     H_    0.092555 0.779963 0.978478 0.124835
H6    H     H_    0.877840 0.884192 0.838959 0.095149
H7    H     H_    0.999683 0.616694 0.743890 0.175281
H8    H     H_    0.797112 0.880446 0.757525 0.129081
C23   C     C_3   0.869574 0.309596 0.769821 -0.129302
C24   C     C_3   0.053101 0.269018 0.784252 -0.149225
H9    H     H_    0.169655 0.284355 0.812614 0.128648
H10   H     H_    0.834261 0.358895 0.785892 0.146452
H11   H     H_    0.216401 0.254732 0.700139 0.121686
C25   C     C_1   0.960290 0.121848 0.875304 -0.289071
C26   C     C_1   0.864056 0.378215 0.624743 -0.280611
C27   C     C_3   0.745602 0.247688 0.777354 -0.161688
C28   C     C_3   0.928914 0.207738 0.791170 0.209362
C29   C     C_3   0.771318 0.231180 0.715888 -0.157251
C30   C     C_3   0.895502 0.292458 0.708967 0.208546
C31   C     C_3   0.954843 0.190606 0.730316 -0.149218
C32   C     C_3   0.078815 0.252511 0.722785 -0.158749
C33   C     C_1   0.947000 0.160397 0.837293 -0.028385
C34   C     C_1   0.877385 0.339739 0.662804 -0.018858
H12   H     H_    0.990173 0.141310 0.714242 0.128777
H13   H     H_    0.654761 0.215845 0.687526 0.122221
H14   H     H_    0.608015 0.245469 0.800000 0.123522
C35   C     C_3   0.505054 0.720067 0.209052 -0.132012
C36   C     C_3   0.307188 0.699090 0.232198 -0.291692
H15   H     H_    0.218651 0.657824 0.217481 0.165304
H16   H     H_    0.582361 0.695358 0.175247 0.169053
C37   C     C_1   0.347680 0.622094 0.375120 -0.295952
C38   C     C_1   0.476523 0.878083 0.124979 -0.251059
C39   C     C_3   0.583709 0.728002 0.268489 -0.047251
C40   C     C_3   0.386093 0.707884 0.291101 0.119284
C41   C     C_3   0.516659 0.800788 0.268089 -0.121689
C42   C     C_3   0.438520 0.792405 0.209104 0.054263
C43   C     C_3   0.318624 0.780159 0.291491 -0.273350
C44   C     C_3   0.245244 0.771546 0.232345 0.390193
C45   C     C_1   0.362196 0.660630 0.337125 0.033594
C46   C     C_1   0.462097 0.839613 0.163013 0.130065
H17   H     H_    0.238789 0.804853 0.324834 0.168708
H18   H     H_    0.604200 0.842344 0.282704 0.167983
H19   H     H_    0.725366 0.709659 0.283739 0.137306
C47   C     C_R   0.471805 0.161877 0.088698 -0.102107
C48   C     C_R   0.352827 0.338160 0.411338 -0.099344
C49   C     C_R   0.530899 0.277863 0.093912 -0.163728
C50   C     C_R   0.522806 0.220580 0.063598 -0.160302
C51   C     C_R   0.429473 0.160692 0.144977 -0.237798
C52   C     C_R   0.440083 0.218445 0.177270 0.110232
C53   C     C_R   0.491472 0.277308 0.150247 0.176568
C54   C     C_R   0.404268 0.219873 0.235225 0.056998
C55   C     C_R   0.420502 0.280148 0.264821 0.062179
C56   C     C_R   0.471414 0.336948 0.235447 -0.195191
C57   C     C_R   0.505622 0.335370 0.179507 -0.227790
C58   C     C_R   0.353411 0.163068 0.264603 -0.188365
C59   C     C_R   0.319227 0.164646 0.320544 -0.218799
C60   C     C_R   0.333333 0.222713 0.349801 0.170470
C61   C     C_R   0.384659 0.281579 0.322774 0.111271
C62   C     C_R   0.293899 0.222161 0.406136 -0.160171
C63   C     C_R   0.301914 0.279451 0.436444 -0.161548
C64   C     C_R   0.395169 0.339340 0.355060 -0.243340
H20   H     H_    0.544920 0.380347 0.158891 0.139902
H21   H     H_    0.430949 0.386209 0.337811 0.101616
H22   H     H_    0.266959 0.278102 0.479637 0.113539
H23   H     H_    0.279980 0.119666 0.341164 0.147954
H24   H     H_    0.570891 0.322758 0.073322 0.129113
H25   H     H_    0.557753 0.221930 0.020405 0.114785
H26   H     H_    0.393595 0.113829 0.162219 0.108128
H27   H     H_    0.486836 0.383912 0.254510 0.132504
H28   H     H_    0.338046 0.116100 0.245542 0.140642
H29   H     H_    0.253959 0.177263 0.426731 0.131025
O11   O     O_R   0.323550 0.942140 0.056770 -0.583243
O12   O     O_R   0.647080 0.077200 0.045890 -0.591073
O13   O     O_R   0.813610 0.057920 0.943260 -0.592263
C65   C     C_R   0.478141 0.101175 0.056517 0.926591
O14   O     O_R   0.653470 0.943760 0.063000 -0.576266
O15   O     O_R   0.820050 0.923540 0.960490 -0.588899
C66   C     C_R   0.485657 0.923669 0.078987 0.969351
O16   O     O_R   0.317110 0.076520 0.039540 -0.589850
O17   O     O_3   0.483830 0.993580 0.966380 -0.276458
V3    V     V_3+5 0.760140 0.001190 0.006240 1.186564
O18   O     O_R   0.149510 0.922740 0.954070 -0.592242
C67   C     C_R   0.981486 0.898828 0.943389 0.927610
O19   O     O_R   0.143120 0.056170 0.936970 -0.593165
C68   C     C_R   0.973251 0.076290 0.921105 0.975296
V4    V     V_3+5 0.259690 0.998700 0.993700 1.177482
O20   O     O_3   0.986130 0.006420 0.033620 -0.263383
N1    N     N_R   0.072303 0.602109 0.846418 0.234854
O21   O     O_R   0.194910 0.562866 0.823127 -0.385828
O22   O     O_R   0.973754 0.580730 0.887806 -0.388716
N2    N     N_R   0.728882 0.837772 0.564330 0.230556
O23   O     O_R   0.595397 0.837423 0.526601 -0.378950
O24   O     O_R   0.839686 0.888412 0.568141 -0.387391
N3    N     N_R   0.060563 0.796249 0.212112 0.228526
O25   O     O_R   0.944014 0.757688 0.186236 -0.442022
O26   O     O_R   0.016676 0.857888 0.216947 -0.416551

loop_
_geom_bond_atom_site_label_1
_geom_bond_atom_site_label_2
_geom_bond_distance
_ccdc_geom_bond_type
C35   C42   1.545329 S    
C13   C19   1.442401 A    
C43   H17   1.110057 S    
C56   C57   1.387702 A    
C57   H20   1.084384 S    
C62   C63   1.391145 A    
V3    O20   1.706848 S    
C4    C6    1.475604 S    
O2    C1    1.303924 A    
C7    C8    1.389809 A    
C39   H19   1.110301 S    
C1    O6    1.297734 A    
N3    O25   1.299776 A    
C21   H2    1.084170 S    
C3    C26   1.451427 S    
C37   C45   1.218222 T    
V1    O10   1.706935 S    
C50   H25   1.083620 S    
C54   C55   1.437925 A    
C29   C30   1.539401 S    
C14   C15   1.394904 A    
C36   H15   1.110094 S    
C44   N3    1.455661 S    
O13   V3    1.959788 S    
H11   C32   1.110393 S    
C16   C17   1.386337 A    
C29   H13   1.110209 S    
C22   H1    1.076102 S    
O5    C3    1.297469 A    
C1    C37   1.456456 S    
C63   H22   1.083619 S    
V2    O10   2.149703 S    
C38   C46   1.217997 T    
C5    C8    1.391865 A    
C26   C34   1.215233 T    
O18   C67   1.296815 A    
C41   H18   1.110024 S    
C28   C33   1.482952 S    
C41   C43   1.557190 S    
C35   C39   1.555071 S    
O19   C68   1.301267 A    
C62   H29   1.083960 S    
O8    V2    1.972486 S    
C23   C30   1.539187 S    
C42   C46   1.488462 S    
C27   C29   1.550527 S    
O1    V2    1.988839 S    
C11   C15   1.409646 A    
O7    V1    2.153444 S    
C49   C53   1.403632 A    
O9    C4    1.296714 A    
C49   H24   1.083959 S    
O12   C65   1.297017 A    
O13   C68   1.297474 A    
C35   C36   1.555822 S    
C23   H10   1.110103 S    
C15   N1    1.437708 S    
C29   C31   1.550991 S    
O17   V3    2.153386 S    
C25   C68   1.451469 S    
O19   V4    1.972304 S    
C30   C32   1.539944 S    
C39   C40   1.544605 S    
C53   C57   1.393690 A    
C12   C13   1.433711 A    
C48   C63   1.395038 A    
C58   C59   1.387718 A    
C60   C61   1.419551 A    
O4    C2    1.296984 A    
C8    H5    1.083829 S    
C54   C58   1.411134 A    
C55   C56   1.411126 A    
O11   C66   1.297666 A    
C40   C45   1.488117 S    
C61   C64   1.426511 A    
C5    C9    1.405043 A    
O18   V4    1.992356 S    
C39   C41   1.555015 S    
C20   N2    1.437223 S    
C35   H16   1.109915 S    
C7    C11   1.410837 A    
C23   C24   1.551062 S    
C48   C64   1.406670 A    
C17   C18   1.399976 A    
C7    H4    1.081016 S    
C60   C62   1.403647 A    
O16   V4    1.993433 S    
C47   C51   1.406677 A    
C52   C53   1.419573 A    
C27   C28   1.539966 S    
C51   H26   1.076977 S    
C19   C22   1.426718 A    
C36   C44   1.538752 S    
C6    C22   1.402820 A    
O12   V3    1.994307 S    
O3    C4    1.299230 A    
C56   H27   1.076089 S    
C24   C28   1.539440 S    
C52   C54   1.438054 A    
O6    V2    1.963445 S    
O9    V2    1.992428 S    
C58   H28   1.076096 S    
N2    O23   1.301360 A    
C10   C12   1.438720 A    
N1    O22   1.301353 A    
O2    V1    1.965539 S    
C59   H23   1.084385 S    
C24   H9    1.110209 S    
C2    C48   1.473903 S    
C31   H12   1.110082 S    
C25   C33   1.215262 T    
C31   C32   1.550782 S    
C30   C34   1.482911 S    
O11   V4    1.963236 S    
O1    C2    1.298911 A    
C10   C11   1.424385 A    
C12   C16   1.408971 A    
C49   C50   1.391127 A    
N3    O26   1.300245 A    
O5    V1    1.959618 S    
C42   C44   1.527637 S    
O8    C3    1.301268 A    
C64   H21   1.076971 S    
C23   C27   1.550837 S    
C65   O16   1.298920 A    
C36   C40   1.545703 S    
O15   C67   1.299408 A    
C28   C31   1.539164 S    
C27   H14   1.110394 S    
C20   C21   1.397396 A    
C13   C14   1.409708 A    
O4    V1    1.994318 S    
O3    V1    1.989687 S    
C55   C61   1.438048 A    
C18   C20   1.420469 A    
C24   C32   1.550551 S    
C59   C60   1.393713 A    
C18   C19   1.424789 A    
C9    H6    1.076428 S    
C40   C43   1.546093 S    
C16   H8    1.075753 S    
C47   C65   1.473864 S    
C47   C50   1.395027 A    
O7    V2    1.704520 S    
C41   C42   1.544669 S    
C6    C21   1.391457 A    
O14   C66   1.303822 A    
C43   C44   1.537837 S    
C14   H7    1.074887 S    
C51   C52   1.426503 A    
C17   H3    1.081293 S    
N2    O24   1.301344 A    
V4    O20   2.149739 S    
O15   V3    1.989715 S    
C38   C66   1.456195 S    
N1    O21   1.301379 A    
C9    C10   1.429039 A    
O14   V3    1.965572 S    
O17   V4    1.703218 S    
C5    C67   1.475939 S    
