data_mof_unit_24712.cif
_audit_creation_date              2012-12-10T22:11:13-0500
_audit_creation_method            fapswitch 2.2
_symmetry_space_group_name_H-M    P1
_symmetry_Int_Tables_number       1
_space_group_crystal_system       triclinic
_cell_length_a                    12.127375
_cell_length_b                    12.295123
_cell_length_c                    23.017574
_cell_angle_alpha                 90.800197
_cell_angle_beta                  90.806803
_cell_angle_gamma                 90.943819
_cell_volume                      3430.94260467

loop_
_atom_site_label
_atom_site_type_symbol
_atom_type_description
_atom_site_fract_x
_atom_site_fract_y
_atom_site_fract_z
_atom_type_partial_charge
C1    C     C_R   0.655949 0.998623 0.580049 0.896510
C2    C     C_R   0.097972 0.872722 0.825257 -0.167164
C3    C     C_R   0.903314 0.209553 0.134698 -0.277751
C4    C     C_R   0.096686 0.790446 0.865301 -0.277751
C5    C     C_R   0.157732 0.910726 0.296412 -0.223703
C6    C     C_R   0.842268 0.089274 0.703588 -0.223703
C7    C     C_R   0.242311 0.909105 0.338063 0.433704
C8    C     C_R   0.757689 0.090895 0.661937 0.433704
C9    C     C_R   0.838921 0.098117 0.301729 -0.393792
C10   C     C_R   0.161078 0.901883 0.698271 -0.393793
C11   C     C_R   0.756748 0.099103 0.343247 0.462661
C12   C     C_R   0.344051 0.001377 0.419951 0.896510
C13   C     C_R   0.243252 0.900897 0.656752 0.462661
C14   C     C_3   0.994552 0.006059 0.247359 -0.020612
C15   C     C_3   0.005448 0.993941 0.752641 -0.020612
C16   C     C_R   0.653326 0.002070 0.419963 0.919382
C17   C     C_R   0.346674 0.997930 0.580037 0.919381
C18   C     C_R   0.093533 0.003986 0.289028 0.099472
C19   C     C_R   0.906466 0.996014 0.710972 0.099472
C20   C     C_R   0.259815 0.001003 0.374476 -0.070100
C21   C     C_R   0.740185 0.998997 0.625524 -0.070100
C22   C     C_R   0.896412 0.002503 0.288404 0.024323
C23   C     C_R   0.893611 0.774643 0.145970 -0.200401
C24   C     C_R   0.103588 0.997497 0.711596 0.024323
C25   C     C_R   0.734979 0.003736 0.374345 -0.115164
C26   C     C_R   0.265021 0.996264 0.625655 -0.115164
C27   C     C_R   0.996132 0.106054 0.208852 0.052299
C28   C     C_R   0.003868 0.893946 0.791148 0.052299
C29   C     C_R   0.999463 0.271486 0.126612 -0.076071
C30   C     C_R   0.000537 0.728514 0.873387 -0.076070
C31   C     C_R   0.992080 0.913126 0.202908 0.195188
C32   C     C_R   0.007920 0.086873 0.797092 0.195188
C33   C     C_R   0.990547 0.752232 0.116293 -0.023180
C34   C     C_R   0.106389 0.225357 0.854030 -0.200402
C35   C     C_R   0.009453 0.247768 0.883707 -0.023180
C36   C     C_R   0.992838 0.663142 0.074656 0.863108
C37   C     C_R   0.007162 0.336858 0.925344 0.863108
C38   C     C_R   0.999229 0.353373 0.081644 0.899379
C39   C     C_R   0.000771 0.646627 0.918356 0.899379
C40   C     C_R   0.112266 0.094109 0.326452 -0.181537
C41   C     C_R   0.887734 0.905891 0.673548 -0.181537
C42   C     C_R   0.195004 0.093049 0.368164 -0.280406
C43   C     C_R   0.804996 0.906951 0.631836 -0.280405
C44   C     C_R   0.874251 0.907281 0.320591 0.478416
C45   C     C_R   0.086234 0.895778 0.169099 -0.202892
C46   C     C_R   0.125749 0.092719 0.679409 0.478416
C47   C     C_R   0.792815 0.908860 0.362629 -0.389814
C48   C     C_R   0.207185 0.091141 0.637371 -0.389814
C49   C     C_R   0.093338 0.167318 0.199805 -0.297955
C50   C     C_R   0.906661 0.832683 0.800195 -0.297956
C51   C     C_R   0.095234 0.251706 0.159941 0.458815
C52   C     C_R   0.904766 0.748294 0.840059 0.458815
C53   C     C_R   0.893801 0.855520 0.188346 -0.096880
C54   C     C_R   0.106199 0.144480 0.811654 -0.096880
C55   C     C_R   0.913766 0.104222 0.830901 -0.202892
C56   C     C_R   0.086203 0.814598 0.127090 -0.188661
C57   C     C_R   0.913797 0.185402 0.872910 -0.188661
C58   C     C_R   0.902028 0.127278 0.174743 -0.167163
H1    H     H_    0.206709 0.163750 0.396335 0.185690
H2    H     H_    0.859137 0.162781 0.728562 0.174935
H3    H     H_    0.776595 0.836065 0.387313 0.181687
H4    H     H_    0.223405 0.163935 0.612687 0.181688
H5    H     H_    0.817963 0.729073 0.136917 0.160538
H6    H     H_    0.182037 0.270927 0.863082 0.160538
H7    H     H_    0.909262 0.756189 0.337302 0.337409
H8    H     H_    0.090738 0.243811 0.662698 0.337409
H9    H     H_    0.169507 0.148054 0.221956 0.142763
H10   H     H_    0.830493 0.851946 0.778044 0.142763
H11   H     H_    0.859970 0.174415 0.281686 0.169373
H12   H     H_    0.793291 0.836249 0.603665 0.185690
H13   H     H_    0.140029 0.825585 0.718314 0.169373
H14   H     H_    0.248185 0.290187 0.179846 0.328935
H15   H     H_    0.751814 0.709814 0.820155 0.328935
H16   H     H_    0.161011 0.800833 0.103086 0.163097
H17   H     H_    0.838989 0.199166 0.896914 0.163097
H18   H     H_    0.829400 0.222604 0.108928 0.181677
H19   H     H_    0.170600 0.777396 0.891072 0.181678
H20   H     H_    0.285381 0.762796 0.314469 0.331547
H21   H     H_    0.714619 0.237204 0.685531 0.331547
H22   H     H_    0.722704 0.251039 0.327980 0.330721
H23   H     H_    0.816538 0.872806 0.209143 0.128759
H24   H     H_    0.277296 0.748960 0.672019 0.330721
H25   H     H_    0.061799 0.165697 0.323405 0.165199
H26   H     H_    0.938201 0.834303 0.676595 0.165198
H27   H     H_    0.183462 0.127194 0.790857 0.128759
H28   H     H_    0.160732 0.944232 0.176145 0.142323
H29   H     H_    0.839268 0.055768 0.823855 0.142323
H30   H     H_    0.827398 0.078538 0.178742 0.150402
H31   H     H_    0.172602 0.921461 0.821258 0.150402
H32   H     H_    0.140863 0.837219 0.271437 0.174934
O1    O     O_R   0.621380 0.090460 0.561410 -0.557973
O2    O     O_R   0.912410 0.372520 0.941210 -0.624922
O3    O     O_R   0.905660 0.383870 0.059980 -0.647129
O4    O     O_R   0.094340 0.616130 0.940020 -0.647129
O5    O     O_R   0.092570 0.390420 0.063230 -0.550802
O6    O     O_R   0.907430 0.609580 0.936770 -0.550802
O7    O     O_R   0.900680 0.620930 0.055550 -0.630753
O8    O     O_R   0.099320 0.379070 0.944450 -0.630753
O9    O     O_3   0.934928 0.814598 0.311212 -0.785941
O10   O     O_3   0.065072 0.185402 0.688788 -0.785941
O11   O     O_3   0.189628 0.314419 0.152687 -0.752178
O12   O     O_R   0.378620 0.909540 0.438590 -0.557973
O13   O     O_3   0.810372 0.685581 0.847314 -0.752178
O14   O     O_3   0.308233 0.819023 0.343721 -0.747564
O15   O     O_3   0.691767 0.180977 0.656278 -0.747564
O16   O     O_3   0.697847 0.192432 0.354167 -0.741713
O17   O     O_3   0.302152 0.807568 0.645833 -0.741712
O18   O     O_R   0.617150 0.909540 0.438590 -0.641037
O19   O     O_R   0.382850 0.090460 0.561410 -0.641037
O20   O     O_R   0.619720 0.093230 0.440890 -0.558412
O21   O     O_R   0.380280 0.906770 0.559110 -0.558412
O22   O     O_R   0.618800 0.906770 0.559110 -0.642976
O23   O     O_R   0.381200 0.093230 0.440890 -0.642976
O24   O     O_R   0.087590 0.627480 0.058790 -0.624922
Zn1   Zn    Zn3+2 0.501730 0.123520 0.501540 1.037008
Zn2   Zn    Zn3+2 0.498270 0.876480 0.498460 1.037008
Zn3   Zn    Zn3+2 0.125690 0.504390 0.002180 0.992162
Zn4   Zn    Zn3+2 0.874310 0.495610 0.997820 0.992162

loop_
_geom_bond_atom_site_label_1
_geom_bond_atom_site_label_2
_ccdc_geom_bond_type
C52   O13   S    
C1    C21   S    
C14   C18   S    
C14   C31   S    
C13   O17   S    
C36   O24   A    
C8    O15   S    
C49   C51   A    
C16   O20   A    
C15   C32   S    
O5    Zn3   S    
C15   C19   S    
C6    C19   A    
C17   C26   S    
O6    Zn4   S    
C35   C37   S    
C9    H11   S    
C1    O22   A    
O4    Zn3   S    
C9    C22   A    
H14   O11   S    
C11   C25   A    
H22   O16   S    
C33   C36   S    
H21   O15   S    
C53   H23   S    
C34   C35   A    
H8    O10   S    
O7    Zn4   S    
C3    C29   A    
O2    Zn4   S    
C57   H17   S    
C18   C40   A    
C21   C43   A    
C28   C50   A    
C22   C44   A    
C45   C56   A    
C23   C33   A    
C38   O5    A    
C50   C52   A    
O21   Zn2   S    
C14   C27   S    
C25   C47   A    
C32   C55   A    
C5    H32   S    
C44   C47   A    
C26   C48   A    
C10   H13   S    
C33   C56   A    
C40   C42   A    
C1    O1    A    
C41   C43   A    
C40   H25   S    
C17   O21   A    
C32   C54   A    
C37   O8    A    
C23   C53   A    
C46   C48   A    
C56   H16   S    
H20   O14   S    
C6    H2    S    
H7    O9    S    
C5    C7    A    
C16   O18   A    
C6    C8    A    
C5    C18   A    
C10   C24   A    
C41   H26   S    
C27   C58   A    
C17   O19   A    
C29   C38   S    
C2    H31   S    
C2    C4    A    
C39   O4    A    
C12   O12   A    
C48   H4    S    
C12   C20   S    
C11   O16   S    
C34   H6    S    
C8    C21   A    
H24   O17   S    
C31   C53   A    
C3    H18   S    
C9    C11   A    
C36   O7    A    
C15   C24   S    
C34   C54   A    
C43   H12   S    
C7    O14   S    
C55   C57   A    
C13   C26   A    
O3    Zn4   S    
O22   Zn2   S    
O8    Zn3   S    
C12   O23   A    
C29   C51   A    
C16   C25   S    
C46   O10   S    
C49   H9    S    
C37   O2    A    
C10   C13   A    
C58   H30   S    
C42   H1    S    
C47   H3    S    
C54   H27   S    
C20   C42   A    
C51   O11   S    
C35   C57   A    
C24   C46   A    
C14   C22   S    
C45   H28   S    
C4    H19   S    
O18   Zn2   S    
C15   C28   S    
C30   C52   A    
C38   O3    A    
C23   H5    S    
C44   O9    S    
O1    Zn1   S    
C30   C39   S    
C55   H29   S    
C39   O6    A    
O24   Zn3   S    
O12   Zn2   S    
O19   Zn1   S    
C3    C58   A    
C19   C41   A    
H15   O13   S    
C7    C20   A    
C31   C45   A    
C2    C28   A    
C50   H10   S    
O20   Zn1   S    
C4    C30   A    
C27   C49   A    
O23   Zn1   S    
