data_mof_unit_21622.cif
_audit_creation_date              2012-10-26T18:27:32-0400
_audit_creation_method            fapswitch 2.2
_symmetry_space_group_name_H-M    P1
_symmetry_Int_Tables_number       1
_space_group_crystal_system       triclinic
_cell_length_a                    10.772936
_cell_length_b                    10.988384
_cell_length_c                    9.822056
_cell_angle_alpha                 110.570481
_cell_angle_beta                  98.257278
_cell_angle_gamma                 90.933839
_cell_volume                      1074.48850976

loop_
_atom_site_label
_atom_site_type_symbol
_atom_type_description
_atom_site_fract_x
_atom_site_fract_y
_atom_site_fract_z
_atom_type_partial_charge
C1    C     C_R   0.494097 0.254153 0.441362 0.552652
C2    C     C_2   0.552973 0.932059 0.486823 0.213891
C3    C     C_2   0.511012 0.510209 0.080973 -0.004724
C4    C     C_R   0.262846 0.503818 0.502012 0.535212
C5    C     C_2   0.488950 0.489816 0.919034 -0.019845
C6    C     C_R   0.512901 0.745902 0.558324 0.568786
C7    C     C_R   0.737442 0.504640 0.499923 0.540088
C8    C     C_R   0.159050 0.731777 0.699395 -0.102248
C9    C     C_R   0.107844 0.839482 0.792217 -0.119965
C10   C     C_R   0.978430 0.840612 0.789419 -0.119956
C11   C     C_R   0.899406 0.734003 0.693859 -0.097034
C12   C     C_R   0.080898 0.621648 0.603097 0.025099
C13   C     C_R   0.949324 0.622757 0.600326 0.028348
C14   C     C_R   0.129637 0.512007 0.505358 0.004365
C15   C     C_R   0.049793 0.409071 0.403217 -0.149918
C16   C     C_R   0.921504 0.410077 0.400690 -0.151600
C17   C     C_R   0.871258 0.514077 0.500274 0.006122
C18   C     C_2   0.502168 0.115338 0.409524 -0.142150
C19   C     C_2   0.545460 0.071704 0.517045 -0.165043
C20   C     C_2   0.524245 0.885410 0.588400 -0.063468
Cu1   Cu    Cu3+1 0.521920 0.521810 0.644910 0.924426
Cu2   Cu    Cu3+1 0.478080 0.478190 0.355090 0.966364
H1    H     H_    0.087375 0.326224 0.326756 0.124301
H2    H     H_    0.799290 0.741106 0.692245 0.135268
H3    H     H_    0.861253 0.327623 0.323253 0.124679
H4    H     H_    0.568486 0.138235 0.630713 0.131832
H5    H     H_    0.505632 0.951172 0.694443 0.037981
H6    H     H_    0.622643 0.902795 0.306704 0.316926
H7    H     H_    0.474742 0.048737 0.296626 0.117944
H8    H     H_    0.415181 0.418394 0.846802 0.148837
H9    H     H_    0.584659 0.581757 0.153206 0.184274
H10   H     H_    0.624990 0.621046 0.933509 0.209091
H11   H     H_    0.375690 0.378191 0.066309 0.200204
H12   H     H_    0.259696 0.737193 0.702428 0.138579
H13   H     H_    0.168754 0.923117 0.865315 0.112583
H14   H     H_    0.938930 0.925136 0.860293 0.111616
N1    N     N_2   0.445130 0.445430 0.137370 -0.354570
N2    N     N_2   0.554930 0.554500 0.862630 -0.350430
O1    O     O_R   0.511700 0.332330 0.577400 -0.492258
O2    O     O_R   0.474680 0.295500 0.332650 -0.495536
O3    O     O_R   0.338160 0.518420 0.622400 -0.504295
O4    O     O_R   0.301140 0.481590 0.377650 -0.492704
O5    O     O_R   0.525320 0.704500 0.667350 -0.525222
O6    O     O_R   0.488300 0.667670 0.422600 -0.423894
O7    O     O_R   0.698860 0.518410 0.622350 -0.498550
O8    O     O_R   0.661840 0.481580 0.377600 -0.496515
O9    O     O_3   0.586437 0.849506 0.356408 -0.689543

loop_
_geom_bond_atom_site_label_1
_geom_bond_atom_site_label_2
_ccdc_geom_bond_type
C10   H14   S    
H6    O9    S    
Cu1   O5    S    
C20   H5    S    
H10   N2    S    
C2    O9    S    
C6    C20   S    
C9    C10   A    
Cu1   O1    S    
C13   C17   A    
C8    C12   A    
Cu2   O2    S    
C15   H1    S    
C18   H7    S    
C8    H12   S    
C5    N2    D    
C3    H9    S    
C11   C13   A    
C1    C18   S    
Cu2   O4    S    
C4    O4    A    
Cu1   O3    S    
C7    O7    A    
Cu2   O8    S    
C12   C14   A    
C18   C19   D    
Cu1   O7    S    
C6    O5    A    
C4    C14   S    
H11   N1    S    
C4    O3    A    
C1    O1    A    
C2    C20   D    
C15   C16   A    
C7    O8    A    
C11   H2    S    
C12   C13   A    
C3    N1    D    
C5    H8    S    
C10   C11   A    
C16   H3    S    
C9    H13   S    
C19   H4    S    
C14   C15   A    
C8    C9    A    
C6    O6    A    
C1    O2    A    
C3    C5    S    
C2    C19   S    
Cu1   Cu2   S    
Cu2   N1    S    
Cu2   O6    S    
Cu1   N2    S    
C16   C17   A    
C7    C17   S    
