data_mof_unit_47536.cif
_audit_creation_date              2012-12-10T19:27:30-0500
_audit_creation_method            fapswitch 2.2
_symmetry_space_group_name_H-M    P1
_symmetry_Int_Tables_number       1
_space_group_crystal_system       triclinic
_cell_length_a                    23.426767
_cell_length_b                    10.534071
_cell_length_c                    9.758717
_cell_angle_alpha                 90.389053
_cell_angle_beta                  90.010346
_cell_angle_gamma                 90.643014
_cell_volume                      2408.04138468

loop_
_atom_site_label
_atom_site_type_symbol
_atom_type_description
_atom_site_fract_x
_atom_site_fract_y
_atom_site_fract_z
_atom_type_partial_charge
C1    C     C_R   0.502372 0.257852 0.499204 0.939997
C2    C     C_R   0.497638 0.742146 0.500798 0.940113
C3    C     C_R   0.239790 0.555191 0.609428 -0.092803
C4    C     C_R   0.760059 0.445312 0.389197 -0.092728
C5    C     C_R   0.298877 0.555064 0.605061 -0.253598
C6    C     C_R   0.700994 0.445182 0.394229 -0.253310
C7    C     C_R   0.327431 0.489392 0.500398 -0.054976
C8    C     C_R   0.672578 0.510447 0.499403 -0.055127
C9    C     C_R   0.295878 0.419838 0.400206 0.159115
C10   C     C_R   0.704263 0.579739 0.599566 0.158963
C11   C     C_R   0.236370 0.422407 0.405707 -0.125129
C12   C     C_R   0.763776 0.577326 0.593472 -0.124722
C13   C     C_R   0.208655 0.489741 0.509228 0.286591
C14   C     C_R   0.791346 0.510492 0.489317 0.284714
C15   C     C_3   0.539102 0.040220 0.592346 0.082022
C16   C     C_3   0.460925 0.959768 0.407664 0.081922
C17   C     C_3   0.551541 0.953308 0.468431 0.248071
C18   C     C_3   0.448485 0.046677 0.531578 0.248054
C19   C     C_3   0.497128 0.877207 0.502854 -0.264885
C20   C     C_3   0.502897 0.122786 0.497156 -0.264825
C21   C     C_3   0.484512 0.963597 0.627153 0.107374
C22   C     C_3   0.515516 0.036392 0.372858 0.107184
C23   C     C_R   0.389570 0.495821 0.499814 0.884280
C24   C     C_R   0.610433 0.504147 0.500171 0.884391
C25   C     C_3   0.474822 0.399455 0.047916 -0.072692
C26   C     C_3   0.525181 0.600543 0.952084 -0.072581
C27   C     C_3   0.526301 0.402295 0.950863 -0.074498
C28   C     C_3   0.473701 0.597705 0.049136 -0.074601
C29   C     C_3   0.448517 0.497209 0.951318 -0.073342
C30   C     C_3   0.551484 0.502788 0.048682 -0.073266
C31   C     C_R   0.882180 0.613974 0.460206 0.513858
C32   C     C_R   0.117729 0.386854 0.538100 0.514660
C33   C     C_R   0.877958 0.394387 0.519201 0.497144
C34   C     C_R   0.122188 0.605717 0.476482 0.495130
C35   C     C_R   0.938110 0.386307 0.519393 -0.049240
C36   C     C_R   0.061972 0.613986 0.475130 -0.041807
C37   C     C_R   0.969929 0.500052 0.495089 -0.050810
C38   C     C_R   0.030097 0.500562 0.500466 -0.052075
C39   C     C_R   0.941618 0.613765 0.465344 -0.038738
C40   C     C_R   0.058349 0.387064 0.531509 -0.040462
C41   C     C_R   0.967876 0.271285 0.544466 0.157052
C42   C     C_R   0.032250 0.728898 0.448258 0.159674
C43   C     C_R   0.027317 0.275037 0.553208 -0.196681
C44   C     C_R   0.972649 0.725793 0.442836 -0.199393
H1    H     H_    0.549418 0.321193 0.906053 0.104909
H2    H     H_    0.450577 0.678799 0.093944 0.104998
H3    H     H_    0.452810 0.315753 0.092699 0.115550
H4    H     H_    0.547218 0.684218 0.907304 0.115532
H5    H     H_    0.405127 0.495194 0.905571 0.135700
H6    H     H_    0.594873 0.504793 0.094435 0.135523
H7    H     H_    0.049624 0.188163 0.575566 0.186055
H8    H     H_    0.950084 0.813036 0.422870 0.184239
H9    H     H_    0.218067 0.607354 0.689556 0.144702
H10   H     H_    0.781656 0.393579 0.308547 0.146219
H11   H     H_    0.322375 0.608285 0.682447 0.159890
H12   H     H_    0.677405 0.392181 0.316825 0.160012
H13   H     H_    0.211182 0.371658 0.329438 0.142851
H14   H     H_    0.789068 0.627871 0.669697 0.142799
N1    N     N_R   0.852075 0.505940 0.487885 -0.349227
N2    N     N_R   0.147933 0.494523 0.509773 -0.348742
N3    N     N_3   0.499960 0.500030 0.863290 -0.072993
N4    N     N_3   0.500040 0.499970 0.136710 -0.072995
O1    O     O_R   0.500000 0.313960 0.616610 -0.602698
O2    O     O_R   0.500000 0.686040 0.383390 -0.602734
O3    O     O_R   0.500030 0.313950 0.383350 -0.640003
O4    O     O_R   0.499970 0.686050 0.616650 -0.639924
O5    O     O_R   0.416140 0.499970 0.616650 -0.610957
O6    O     O_R   0.583860 0.500030 0.383350 -0.611040
O7    O     O_R   0.416170 0.499960 0.383400 -0.625388
O8    O     O_R   0.583830 0.500040 0.616600 -0.625412
O9    O     O_2   0.854338 0.721428 0.428362 -0.555358
O10   O     O_2   0.145434 0.279691 0.571735 -0.564249
O11   O     O_2   0.844919 0.294140 0.553643 -0.568412
O12   O     O_2   0.155465 0.705605 0.442188 -0.568545
Zn1   Zn    Zn3+2 0.499980 0.500010 0.655740 0.943323
Zn2   Zn    Zn3+2 0.500020 0.499990 0.344260 0.943278
C45   C     C_3   0.939934 0.141082 0.557794 -0.350251
C46   C     C_3   0.924164 0.112642 0.706379 -0.756387
H15   H     H_    0.895645 0.186315 0.749193 0.288393
H16   H     H_    0.902025 0.019048 0.711727 0.250390
H17   H     H_    0.963396 0.109048 0.770147 0.233115
H18   H     H_    0.902991 0.128622 0.487972 0.253939
H19   H     H_    0.969862 0.066532 0.522916 0.171347
C47   C     C_3   0.060754 0.857987 0.429033 -0.354978
C48   C     C_3   0.082721 0.912349 0.565152 -0.761308
H20   H     H_    0.046194 0.935062 0.633246 0.229687
H21   H     H_    0.110582 0.844611 0.619224 0.282781
H22   H     H_    0.107649 0.000627 0.545871 0.270405
H23   H     H_    0.094753 0.854337 0.350303 0.254967
H24   H     H_    0.030114 0.927449 0.386906 0.165646
C49   C     C_3   0.322912 0.337874 0.290378 -0.374376
C50   C     C_3   0.324651 0.406356 0.153148 -0.858761
H25   H     H_    0.280790 0.430298 0.119556 0.260617
H26   H     H_    0.350510 0.495040 0.161351 0.271709
H27   H     H_    0.343998 0.343629 0.074417 0.246952
H28   H     H_    0.366393 0.307190 0.319092 0.239603
H29   H     H_    0.297485 0.248804 0.277942 0.215314
C51   C     C_3   0.677352 0.661366 0.709863 -0.374150
C52   C     C_3   0.675596 0.592305 0.846747 -0.859483
H30   H     H_    0.649661 0.503758 0.838172 0.271731
H31   H     H_    0.719449 0.568045 0.880125 0.260283
H32   H     H_    0.656320 0.654783 0.925815 0.247092
H33   H     H_    0.702853 0.750292 0.722694 0.215140
H34   H     H_    0.633892 0.692368 0.681369 0.239434
Br1   Br    Br    0.624425 0.875254 0.426244 -0.575324
Br2   Br    Br    0.375589 0.124645 0.573816 -0.576564
C53   C     C_3   0.584424 0.096825 0.689172 -0.341930
C54   C     C_3   0.618506 0.996728 0.765234 -0.839035
H35   H     H_    0.590259 0.922770 0.809523 0.250503
H36   H     H_    0.649661 0.951409 0.695809 0.291369
H37   H     H_    0.642877 0.042968 0.849821 0.246246
H38   H     H_    0.614313 0.157417 0.629273 0.210872
H39   H     H_    0.563099 0.158084 0.764974 0.199646
C55   C     C_3   0.415639 0.903108 0.310784 -0.341811
C56   C     C_3   0.381475 0.003160 0.234880 -0.839004
H40   H     H_    0.350230 0.048098 0.304358 0.291272
H41   H     H_    0.409654 0.077396 0.190868 0.250539
H42   H     H_    0.357199 0.956966 0.150108 0.246372
H43   H     H_    0.437008 0.842032 0.234886 0.199702
H44   H     H_    0.385800 0.842328 0.370605 0.210801
C57   C     C_3   0.464112 0.913956 0.766743 -0.329453
C58   C     C_3   0.449082 0.019312 0.868226 -0.851251
H45   H     H_    0.484121 0.090025 0.877985 0.257538
H46   H     H_    0.409607 0.068177 0.837630 0.302580
H47   H     H_    0.441125 0.976718 0.970030 0.242039
H48   H     H_    0.425831 0.852401 0.750844 0.212948
H49   H     H_    0.497852 0.855065 0.812290 0.201871
C59   C     C_3   0.535899 0.086073 0.233274 -0.329504
C60   C     C_3   0.551018 0.980764 0.131821 -0.851176
H50   H     H_    0.590527 0.932051 0.162453 0.302621
H51   H     H_    0.516031 0.909926 0.122028 0.257510
H52   H     H_    0.558963 0.023387 0.030030 0.241990
H53   H     H_    0.502121 0.144834 0.187691 0.201873
H54   H     H_    0.574136 0.147763 0.249188 0.212982

loop_
_geom_bond_atom_site_label_1
_geom_bond_atom_site_label_2
_ccdc_geom_bond_type
C18   C21   S    
C11   C13   A    
C53   H38   S    
C23   O7    A    
C36   C42   A    
C59   C60   S    
C9    C49   S    
C55   C56   S    
C24   O8    A    
C32   O10   S    
C13   N2    S    
C29   H5    S    
C45   C46   S    
N3    Zn1   S    
C14   N1    S    
C28   H2    S    
O3    Zn2   S    
C47   H24   S    
C28   C29   S    
C19   C21   S    
C26   N3    S    
C57   H49   S    
C59   H54   S    
C41   C45   S    
C46   H16   S    
C27   H1    S    
C45   H19   S    
C15   C53   S    
C51   H33   S    
C54   H35   S    
O7    Zn2   S    
C15   C17   S    
C23   O5    A    
C10   C51   S    
C53   H39   S    
C27   N3    S    
C33   C35   A    
C49   H28   S    
C40   C43   A    
C54   H36   S    
C56   H41   S    
C1    O3    A    
C53   C54   S    
C25   H3    S    
C18   C20   S    
C55   H43   S    
C3    C13   A    
C26   H4    S    
C60   H52   S    
C12   H14   S    
C44   H8    S    
C31   O9    S    
C30   H6    S    
C33   N1    A    
C27   C30   S    
C34   N2    A    
C41   C43   A    
N4    Zn2   S    
C42   C44   A    
C1    O1    A    
C2    O2    A    
C48   H21   S    
C25   C29   S    
C15   C20   S    
C29   N3    S    
C42   C47   S    
C47   C48   S    
C4    C6    A    
C6    H12   S    
C49   C50   S    
C5    C7    A    
C46   H15   S    
C17   C19   S    
C6    C8    A    
C3    C5    A    
C48   H20   S    
C50   H27   S    
C18   Br2   S    
C37   C38   A    
C17   Br1   S    
C22   C59   S    
C52   H30   S    
C56   H42   S    
C50   H26   S    
O2    Zn2   S    
C16   C18   S    
O6    Zn2   S    
C49   H29   S    
C9    C11   A    
C57   C58   S    
C10   C12   A    
C34   O12   S    
C33   O11   S    
C52   H31   S    
C20   C22   S    
C26   C30   S    
C4    H10   S    
C30   N4    S    
O5    Zn1   S    
C47   H23   S    
C32   N2    A    
C58   H46   S    
C60   H50   S    
C48   H22   S    
C31   N1    A    
C7    C9    A    
C1    C20   S    
C16   C22   S    
C35   C37   A    
C2    C19   S    
C5    H11   S    
C12   C14   A    
C2    O4    A    
C16   C55   S    
C39   C44   A    
C25   C27   S    
C26   C28   S    
C17   C22   S    
C54   H37   S    
C58   H47   S    
C36   C38   A    
C57   H48   S    
C37   C39   A    
C4    C14   A    
C59   H53   S    
C38   C40   A    
C3    H9    S    
C46   H17   S    
C43   H7    S    
O1    Zn1   S    
C45   H18   S    
C16   C19   S    
C7    C23   S    
O4    Zn1   S    
C50   H25   S    
C8    C24   S    
C31   C39   A    
C34   C36   A    
C25   N4    S    
C32   C40   A    
C21   C57   S    
C35   C41   A    
C24   O6    A    
C15   C21   S    
C52   H32   S    
C8    C10   A    
C51   C52   S    
O8    Zn1   S    
C58   H45   S    
C11   H13   S    
C51   H34   S    
C55   H44   S    
C56   H40   S    
C60   H51   S    
C28   N4    S    
