data_mof_unit_47849.cif
_audit_creation_date              2012-12-10T18:33:47-0500
_audit_creation_method            fapswitch 2.2
_symmetry_space_group_name_H-M    P1
_symmetry_Int_Tables_number       1
_space_group_crystal_system       triclinic
_cell_length_a                    10.508744
_cell_length_b                    14.99378
_cell_length_c                    15.389827
_cell_angle_alpha                 82.405471
_cell_angle_beta                  89.678251
_cell_angle_gamma                 104.602958
_cell_volume                      2324.07556397

loop_
_atom_site_label
_atom_site_type_symbol
_atom_type_description
_atom_site_fract_x
_atom_site_fract_y
_atom_site_fract_z
_atom_type_partial_charge
C1    C     C_R   0.483785 0.442029 0.662593 0.910782
C2    C     C_R   0.597172 0.484436 0.045855 -0.124680
C3    C     C_R   0.584558 0.388952 0.076317 0.713760
C4    C     C_R   0.673225 0.609481 0.925164 0.745632
C5    C     C_R   0.565868 0.324204 0.017345 -0.314950
C6    C     C_R   0.699097 0.674264 0.984081 -0.283871
C7    C     C_R   0.694023 0.840859 0.640968 0.453085
C8    C     C_R   0.312858 0.160502 0.355358 0.455508
C9    C     C_R   0.658690 0.751498 0.617489 -0.041466
C10   C     C_R   0.342618 0.248610 0.381815 -0.043273
C11   C     C_R   0.517588 0.794987 0.509818 -0.047014
C12   C     C_R   0.520518 0.558056 0.337408 0.919029
C13   C     C_R   0.483013 0.205322 0.490109 -0.038173
C14   C     C_R   0.542564 0.885792 0.532668 -0.096769
C15   C     C_R   0.457209 0.114127 0.468147 -0.102398
C16   C     C_R   0.742573 0.501005 0.500098 0.937202
C17   C     C_R   0.257402 0.498996 0.499932 0.945848
C18   C     C_R   0.634467 0.909134 0.599064 -0.088661
C19   C     C_R   0.366588 0.090891 0.400978 -0.076605
C20   C     C_R   0.481048 0.953637 0.490541 0.048750
C21   C     C_R   0.517199 0.045951 0.511443 0.045901
C22   C     C_R   0.612421 0.067462 0.574930 -0.320152
C23   C     C_R   0.526493 0.473218 0.814343 0.654130
C24   C     C_R   0.383957 0.931594 0.428389 -0.336814
C25   C     C_R   0.666110 0.000189 0.620894 0.539342
C26   C     C_R   0.331943 0.999084 0.381039 0.549328
C27   C     C_3   0.932312 0.432580 0.559447 0.718315
C28   C     C_3   0.067596 0.567476 0.440660 0.716833
C29   C     C_3   0.046688 0.512400 0.580397 -0.312794
C30   C     C_3   0.953230 0.487655 0.419703 -0.308913
C31   C     C_3   0.121776 0.497423 0.500066 -0.184177
C32   C     C_3   0.878157 0.502618 0.500029 -0.178896
C33   C     C_3   0.008874 0.416466 0.480077 -0.273003
C34   C     C_R   0.536916 0.527751 0.185231 0.667149
C35   C     C_3   0.991027 0.583582 0.520029 -0.279548
C36   C     C_R   0.496526 0.408320 0.755110 -0.202371
C37   C     C_R   0.555551 0.592419 0.244665 -0.201034
C38   C     C_R   0.516670 0.286394 0.870450 -0.156929
C39   C     C_R   0.669743 0.713179 0.129904 -0.146311
C40   C     C_R   0.493363 0.314772 0.783249 -0.239284
C41   C     C_R   0.622550 0.685477 0.216763 -0.264875
C42   C     C_3   0.907026 0.861958 0.680019 -0.178715
C43   C     C_3   0.284868 0.190125 0.208462 -0.215727
C44   C     C_3   0.695114 0.036652 0.759332 -0.201360
C45   C     C_R   0.567405 0.447894 0.898064 -0.015503
C46   C     C_3   0.295899 0.949936 0.247110 -0.224616
C47   C     C_R   0.599953 0.551765 0.102259 -0.019196
C48   C     C_R   0.550883 0.352266 0.928678 0.008487
C49   C     C_R   0.657318 0.646952 0.071999 -0.014010
C50   C     C_R   0.611798 0.514620 0.955053 -0.138097
F1    F     F_    0.857103 0.363340 0.620809 -0.664389
F2    F     F_    0.142719 0.636768 0.379312 -0.667250
F3    F     F_    0.447461 0.444183 0.205539 -0.655907
F4    F     F_    0.502464 0.558375 0.793650 -0.627966
F5    F     F_    0.602842 0.359037 0.161407 -0.646631
F6    F     F_    0.719635 0.638471 0.840931 -0.634571
H1    H     H_    0.088121 0.520923 0.645890 0.190485
H2    H     H_    0.980556 0.651834 0.535154 0.182007
H3    H     H_    0.557469 0.251658 0.041687 0.160076
H4    H     H_    0.747059 0.746323 0.960195 0.180467
H5    H     H_    0.638411 0.736572 0.261820 0.189118
H6    H     H_    0.471498 0.263562 0.738342 0.181304
H7    H     H_    0.508023 0.213303 0.892294 0.144759
H8    H     H_    0.716951 0.785866 0.108292 0.156449
H9    H     H_    0.938444 0.912631 0.619334 0.154913
H10   H     H_    0.916184 0.791897 0.669386 0.142764
H11   H     H_    0.975587 0.885578 0.731731 0.192318
H12   H     H_    0.911725 0.479158 0.354221 0.193733
H13   H     H_    0.384878 0.180061 0.197248 0.163603
H14   H     H_    0.289464 0.265426 0.204051 0.212292
H15   H     H_    0.223502 0.162784 0.154726 0.179652
H16   H     H_    0.620068 0.971461 0.785219 0.160046
H17   H     H_    0.649253 0.096275 0.748952 0.139400
H18   H     H_    0.769181 0.051092 0.810122 0.193553
H19   H     H_    0.321547 0.882208 0.262436 0.165763
H20   H     H_    0.384498 0.005641 0.220933 0.130669
H21   H     H_    0.223979 0.942802 0.194380 0.194943
H22   H     H_    0.546120 0.228914 0.541570 0.157198
H23   H     H_    0.454973 0.771880 0.457934 0.161079
H24   H     H_    0.299047 0.301993 0.350309 0.179559
H25   H     H_    0.699059 0.697235 0.650764 0.202716
H26   H     H_    0.649839 0.136795 0.590687 0.180953
H27   H     H_    0.343629 0.861556 0.415268 0.179625
H28   H     H_    0.019297 0.348200 0.464985 0.193344
N1    N     N_R   0.574200 0.731700 0.552740 -0.138847
N2    N     N_R   0.425800 0.268300 0.447260 -0.131836
O1    O     O_R   0.462600 0.383110 0.605620 -0.630207
O2    O     O_3   0.225402 0.141162 0.289242 -0.567656
O3    O     O_3   0.759583 0.026889 0.681817 -0.564073
O4    O     O_3   0.236781 0.972545 0.320976 -0.546892
O5    O     O_R   0.537400 0.616890 0.394380 -0.629973
O6    O     O_R   0.510210 0.531900 0.639510 -0.545761
O7    O     O_R   0.489790 0.468100 0.360490 -0.547608
O8    O     O_R   0.662240 0.425610 0.483080 -0.595280
O9    O     O_R   0.337760 0.574390 0.516920 -0.595388
O10   O     O_R   0.709860 0.574400 0.516970 -0.638138
O11   O     O_R   0.290140 0.425600 0.483030 -0.631070
O12   O     O_3   0.778167 0.858801 0.709016 -0.552163
Zn1   Zn    Zn3+2 0.468210 0.400660 0.477370 0.997699
Zn2   Zn    Zn3+2 0.531790 0.599340 0.522630 0.992221

loop_
_geom_bond_atom_site_label_1
_geom_bond_atom_site_label_2
_ccdc_geom_bond_type
C1    O1    A    
C38   C40   A    
C23   C45   A    
C7    O12   S    
C27   C29   S    
C34   C37   A    
C14   C18   A    
C12   O5    A    
C41   H5    S    
C46   H20   S    
C39   C41   A    
C27   C33   S    
C15   C19   A    
C39   H8    S    
C35   H2    S    
C43   O2    S    
C22   H26   S    
C24   H27   S    
C24   C26   A    
C42   O12   S    
C11   C14   A    
C40   H6    S    
C12   C37   S    
C19   C26   A    
C1    O6    A    
C2    C50   A    
C9    N1    A    
C3    F5    S    
C20   C24   A    
C28   C35   S    
C22   C25   A    
C13   N2    A    
C42   H9    S    
C31   C33   S    
C17   O9    A    
O5    Zn2   S    
O7    Zn1   S    
C38   C48   A    
C43   H13   S    
C21   C22   A    
C4    F6    S    
C18   C25   A    
C46   H19   S    
O11   Zn1   S    
C27   F1    S    
O1    Zn1   S    
C5    C48   A    
C16   O10   A    
C8    C19   A    
C5    H3    S    
C32   C35   S    
C14   C20   A    
C36   C40   A    
C47   C49   A    
C10   H24   S    
O9    Zn2   S    
C4    C50   A    
C8    O2    S    
C6    H4    S    
C7    C18   A    
C44   H18   S    
N2    Zn1   S    
C11   H23   S    
C4    C6    A    
C39   C49   A    
C29   H1    S    
C43   H14   S    
C13   C15   A    
C42   H11   S    
C17   C31   S    
C12   O7    A    
C16   C32   S    
O6    Zn2   S    
C23   F4    S    
C38   H7    S    
C45   C48   A    
C7    C9    A    
C13   H22   S    
C10   N2    A    
C43   H15   S    
C30   C33   S    
C27   C32   S    
C16   O8    A    
C28   C31   S    
C3    C5    A    
C46   H21   S    
C46   O4    S    
C2    C47   A    
C26   O4    S    
C29   C35   S    
C25   O3    S    
O8    Zn1   S    
C28   C30   S    
C2    C3    A    
C29   C31   S    
N1    Zn2   S    
C30   C32   S    
C28   F2    S    
C45   C50   A    
C11   N1    A    
O10   Zn2   S    
C44   H16   S    
C6    C49   A    
C37   C41   A    
C44   H17   S    
C33   H28   S    
C15   C21   A    
C20   C21   A    
C34   F3    S    
C8    C10   A    
C23   C36   A    
C42   H10   S    
C34   C47   A    
C17   O11   A    
C30   H12   S    
C44   O3    S    
C1    C36   S    
C9    H25   S    
