data_mof_unit_9369.cif
_audit_creation_date              2012-12-10T20:45:28-0500
_audit_creation_method            fapswitch 2.2
_symmetry_space_group_name_H-M    P1
_symmetry_Int_Tables_number       1
_space_group_crystal_system       triclinic
_cell_length_a                    10.793582
_cell_length_b                    10.6542
_cell_length_c                    9.88929
_cell_angle_alpha                 90.239606
_cell_angle_beta                  91.259198
_cell_angle_gamma                 90.106341
_cell_volume                      1136.95176846

loop_
_atom_site_label
_atom_site_type_symbol
_atom_type_description
_atom_site_fract_x
_atom_site_fract_y
_atom_site_fract_z
_atom_type_partial_charge
C1    C     C_R   0.498339 0.260210 0.500025 0.877562
C2    C     C_R   0.195624 0.613469 0.984919 -0.100707
C3    C     C_R   0.931003 0.530580 0.383549 -0.222399
C4    C     C_R   0.872749 0.507129 0.505419 -0.097758
C5    C     C_R   0.942762 0.490392 0.625855 0.005022
C6    C     C_R   0.069444 0.489685 0.619081 -0.248782
C7    C     C_R   0.127677 0.508880 0.496280 -0.090473
C8    C     C_R   0.057953 0.532686 0.377129 -0.016026
C9    C     C_R   0.873348 0.587074 0.840107 -0.149874
C10   C     C_R   0.828789 0.577280 0.971097 0.313262
C11   C     C_R   0.800585 0.459057 0.023613 -0.181632
C12   C     C_R   0.260126 0.503143 0.498352 0.861737
C13   C     C_R   0.817216 0.350975 0.945470 -0.215321
C14   C     C_R   0.862203 0.360614 0.814543 -0.138420
C15   C     C_R   0.889961 0.478899 0.761406 0.102351
C16   C     C_R   0.529573 0.064325 0.616508 0.121683
C17   C     C_R   0.487125 0.128329 0.502408 -0.088329
C18   C     C_R   0.426058 0.064229 0.396502 -0.225264
C19   C     C_R   0.426507 0.934328 0.396159 -0.218545
C20   C     C_R   0.486312 0.871368 0.503051 -0.083932
C21   C     C_R   0.528576 0.936450 0.617163 0.113769
C22   C     C_3   0.651603 0.929060 0.689166 -0.464047
C23   C     C_R   0.498129 0.739706 0.500334 0.880851
C24   C     C_3   0.653125 0.071347 0.687655 -0.488787
C25   C     C_R   0.505779 0.390040 0.070518 0.212096
C26   C     C_R   0.503866 0.609318 0.072396 -0.071056
C27   C     C_R   0.504327 0.609342 0.928787 -0.128918
C28   C     C_R   0.505322 0.390113 0.928337 0.247329
C29   C     C_3   0.414742 0.284643 0.919816 -0.510615
C30   C     C_3   0.416261 0.283544 0.073375 -0.522889
C31   C     C_R   0.740046 0.501702 0.501886 0.878801
C32   C     C_R   0.203456 0.704738 0.086844 -0.135521
C33   C     C_R   0.161376 0.677946 0.216371 -0.069664
C34   C     C_R   0.111266 0.559375 0.244053 0.165287
C35   C     C_R   0.104201 0.468153 0.141652 -0.148537
C36   C     C_R   0.146787 0.495061 0.012850 -0.130792
H1    H     H_    0.227739 0.634350 0.884566 0.138170
H2    H     H_    0.764877 0.450426 0.124277 0.164540
H3    H     H_    0.795070 0.259799 0.986406 0.152826
H4    H     H_    0.875778 0.276493 0.754892 0.129244
H5    H     H_    0.382376 0.113823 0.313126 0.156694
H6    H     H_    0.384953 0.883835 0.311245 0.152423
H7    H     H_    0.644027 0.889350 0.792448 0.218981
H8    H     H_    0.724475 0.885909 0.626254 0.203771
H9    H     H_    0.647674 0.113773 0.790169 0.202676
H10   H     H_    0.726415 0.111317 0.623146 0.197382
H11   H     H_    0.504922 0.697798 0.126202 0.169533
H12   H     H_    0.241815 0.796255 0.065371 0.119601
H13   H     H_    0.505871 0.697792 0.875814 0.155842
H14   H     H_    0.324433 0.313101 0.873646 0.207022
H15   H     H_    0.455365 0.198571 0.875501 0.205320
H16   H     H_    0.326367 0.309690 0.118141 0.219387
H17   H     H_    0.459965 0.197520 0.115507 0.203157
H18   H     H_    0.166374 0.749548 0.294375 0.109158
H19   H     H_    0.064697 0.376680 0.161391 0.129212
H20   H     H_    0.140585 0.423931 0.934963 0.122958
H21   H     H_    0.877736 0.549234 0.292278 0.201253
H22   H     H_    0.122588 0.473681 0.711284 0.160294
H23   H     H_    0.896014 0.678527 0.799936 0.148136
N1    N     N_R   0.499160 0.499140 0.142800 -0.112170
N2    N     N_R   0.499160 0.499180 0.857150 -0.112631
O1    O     O_R   0.500020 0.316790 0.614690 -0.617298
O2    O     O_R   0.500000 0.316760 0.385350 -0.621974
O3    O     O_R   0.316770 0.500030 0.614670 -0.632840
O4    O     O_R   0.316750 0.499990 0.385330 -0.616539
O5    O     O_R   0.500000 0.683240 0.614650 -0.630835
O6    O     O_R   0.499980 0.683210 0.385310 -0.620150
O7    O     O_R   0.683250 0.500010 0.614670 -0.605705
O8    O     O_R   0.683230 0.499970 0.385330 -0.619321
Zn1   Zn    Zn3+2 0.500010 0.500020 0.653130 0.946936
Zn2   Zn    Zn3+2 0.499990 0.499980 0.346870 0.955906
Br1   Br    Br    0.808590 0.725778 0.077288 -0.612424

loop_
_geom_bond_atom_site_label_1
_geom_bond_atom_site_label_2
_ccdc_geom_bond_type
N2    Zn1   S    
C13   C14   A    
C11   H2    S    
C19   H6    S    
C16   C21   A    
C36   H20   S    
C25   N1    A    
O3    Zn1   S    
O5    Zn1   S    
C11   C13   A    
C12   O4    A    
C6    H22   S    
C1    C17   S    
C19   C20   A    
C20   C23   S    
C33   H18   S    
C24   H10   S    
C32   C33   A    
C33   C34   A    
C9    C15   A    
C7    C8    A    
C16   C24   S    
C8    C34   S    
C21   C22   S    
C1    O1    A    
C25   C28   A    
C32   H12   S    
C2    H1    S    
C26   C27   A    
C29   C30   S    
C26   H11   S    
C24   H9    S    
C1    O2    A    
C23   O5    A    
C2    C32   A    
C28   C29   S    
O2    Zn2   S    
C17   C18   A    
C6    C7    A    
O6    Zn2   S    
C29   H14   S    
C3    C8    A    
C29   H15   S    
C5    C6    A    
C12   O3    A    
C30   H17   S    
C22   C24   S    
C7    C12   S    
C5    C15   S    
C4    C31   S    
C13   H3    S    
C10   C11   A    
C28   N2    A    
C14   H4    S    
C3    C4    A    
C3    H21   S    
C31   O8    A    
C2    C36   A    
C20   C21   A    
O1    Zn1   S    
O7    Zn1   S    
C34   C35   A    
C9    C10   A    
C18   H5    S    
C23   O6    A    
C25   C30   S    
O8    Zn2   S    
C30   H16   S    
C14   C15   A    
C18   C19   A    
C35   C36   A    
C27   N2    A    
N1    Zn2   S    
O4    Zn2   S    
C26   N1    A    
C31   O7    A    
C35   H19   S    
C22   H8    S    
C27   H13   S    
C16   C17   A    
C4    C5    A    
C9    H23   S    
C22   H7    S    
C10   Br1   S    
