data_mof_unit_65556.cif
_audit_creation_date              2012-12-10T17:46:11-0500
_audit_creation_method            fapswitch 2.2
_symmetry_space_group_name_H-M    P1
_symmetry_Int_Tables_number       1
_space_group_crystal_system       triclinic
_cell_length_a                    37.286851
_cell_length_b                    30.392781
_cell_length_c                    21.737174
_cell_angle_alpha                 89.999895
_cell_angle_beta                  54.531469
_cell_angle_gamma                 90.000055
_cell_volume                      20062.5118643

loop_
_atom_site_label
_atom_site_type_symbol
_atom_type_description
_atom_site_fract_x
_atom_site_fract_y
_atom_site_fract_z
_atom_type_partial_charge
C1    C     C_R   0.085142 0.499969 0.415205 0.791757
C2    C     C_R   0.914858 0.499969 0.584796 0.791754
C3    C     C_R   0.585142 0.999969 0.415206 0.791764
C4    C     C_R   0.414858 0.999969 0.584795 0.791757
C5    C     C_R   0.999141 0.499193 0.815854 -0.131210
C6    C     C_R   0.000859 0.499193 0.184146 -0.131217
C7    C     C_R   0.499141 0.999193 0.815854 -0.131226
C8    C     C_R   0.500859 0.999193 0.184147 -0.131248
C9    C     C_R   0.028644 0.523721 0.752129 0.035165
C10   C     C_R   0.971349 0.523713 0.247877 0.035171
C11   C     C_R   0.528653 0.023711 0.752121 0.035236
C12   C     C_R   0.471330 0.023691 0.247897 0.035256
C13   C     C_3   0.066982 0.554159 0.718001 -0.446529
C14   C     C_3   0.933002 0.554139 0.282015 -0.446509
C15   C     C_3   0.567001 0.054135 0.717981 -0.446561
C16   C     C_3   0.432959 0.054087 0.282060 -0.446516
C17   C     C_3   0.065789 0.555003 0.648201 0.235694
C18   C     C_3   0.934195 0.554984 0.351816 0.235676
C19   C     C_3   0.565808 0.054980 0.648180 0.235612
C20   C     C_3   0.434152 0.054932 0.351861 0.235558
C21   C     C_R   0.202873 0.461102 0.286527 -0.159218
C22   C     C_R   0.797127 0.461100 0.713464 -0.159216
C23   C     C_R   0.702873 0.961101 0.286539 -0.159222
C24   C     C_R   0.297126 0.961101 0.713470 -0.159183
C25   C     C_R   0.156999 0.460849 0.333313 -0.186938
C26   C     C_R   0.843001 0.460847 0.666679 -0.186910
C27   C     C_R   0.656999 0.960848 0.333333 -0.186848
C28   C     C_R   0.343001 0.960848 0.666684 -0.186878
C29   C     C_R   0.133578 0.499990 0.367171 -0.019569
C30   C     C_R   0.866422 0.499990 0.632831 -0.019544
C31   C     C_R   0.633578 0.999990 0.367174 -0.019604
C32   C     C_R   0.366422 0.999990 0.632829 -0.019518
C33   C     C_R   0.156856 0.539202 0.354615 -0.117049
C34   C     C_R   0.843143 0.539203 0.645399 -0.117078
C35   C     C_R   0.656856 0.039203 0.354609 -0.117048
C36   C     C_R   0.343144 0.039202 0.645389 -0.117081
C37   C     C_R   0.202745 0.539244 0.308977 -0.149727
C38   C     C_R   0.797255 0.539245 0.691037 -0.149733
C39   C     C_R   0.702745 0.039245 0.308971 -0.149720
C40   C     C_R   0.297255 0.039244 0.691026 -0.149726
C41   C     C_R   0.225946 0.500267 0.274306 0.092617
C42   C     C_R   0.774054 0.500266 0.725696 0.092638
C43   C     C_R   0.725946 0.000268 0.274309 0.092589
C44   C     C_R   0.274054 0.000267 0.725694 0.092629
C45   C     C_R   0.999781 0.499952 0.618839 0.856137
C46   C     C_R   0.000219 0.499952 0.381161 0.856148
C47   C     C_R   0.499781 0.999952 0.618839 0.856144
C48   C     C_R   0.500218 0.999952 0.381162 0.856164
C49   C     C_R   0.297599 0.516658 0.253219 -0.145324
C50   C     C_R   0.702401 0.516676 0.746794 -0.145320
C51   C     C_R   0.797599 0.016662 0.253218 -0.145291
C52   C     C_R   0.202401 0.016659 0.746782 -0.145292
C53   C     C_R   0.343486 0.516184 0.207520 -0.176062
C54   C     C_R   0.656514 0.516202 0.792492 -0.176065
C55   C     C_R   0.843486 0.016188 0.207518 -0.176002
C56   C     C_R   0.156514 0.016185 0.792481 -0.176002
C57   C     C_R   0.366574 0.500235 0.133223 -0.031014
C58   C     C_R   0.633426 0.500234 0.866778 -0.031002
C59   C     C_R   0.866574 0.000236 0.133223 -0.030956
C60   C     C_R   0.133426 0.000235 0.866777 -0.030956
C61   C     C_R   0.343116 0.484454 0.105474 -0.166294
C62   C     C_R   0.656883 0.484435 0.894517 -0.166289
C63   C     C_R   0.843116 0.984451 0.105477 -0.166355
C64   C     C_R   0.156884 0.984452 0.894525 -0.166357
C65   C     C_R   0.297205 0.484141 0.151726 -0.161908
C66   C     C_R   0.702794 0.484122 0.848265 -0.161904
C67   C     C_R   0.797204 0.984139 0.151730 -0.161913
C68   C     C_R   0.202795 0.984139 0.848273 -0.161914
C69   C     C_R   0.274258 0.500402 0.225692 0.093882
C70   C     C_R   0.725741 0.500401 0.774310 0.093883
C71   C     C_R   0.774258 0.000403 0.225693 0.093918
C72   C     C_R   0.225742 0.000402 0.774308 0.093910
C73   C     C_R   0.000001 0.633550 1.000000 -0.165954
C74   C     C_R   0.500000 0.133545 0.000000 -0.165910
C75   C     C_R   0.000002 0.725961 0.999999 -0.106837
C76   C     C_R   0.500000 0.225954 0.000002 -0.106809
C77   C     C_R   0.500000 0.725909 1.000000 0.144955
C78   C     C_R   0.000000 0.225909 1.000000 0.144954
C79   C     C_R   1.000000 0.414956 0.000000 0.905739
C80   C     C_R   0.500000 0.914956 0.000000 0.905743
C81   C     C_R   0.039807 0.656867 0.964304 -0.216119
C82   C     C_R   0.960194 0.656867 0.035695 -0.216121
C83   C     C_R   0.539747 0.156860 0.965401 -0.216053
C84   C     C_R   0.460253 0.156860 0.034601 -0.216055
C85   C     C_R   0.999854 0.499829 0.881428 0.844093
C86   C     C_R   0.000145 0.499829 0.118572 0.844098
C87   C     C_R   0.499855 0.999829 0.881428 0.844084
C88   C     C_R   0.500145 0.999828 0.118572 0.844091
C89   C     C_R   0.000000 0.585086 1.000000 0.816275
C90   C     C_R   0.500000 0.085085 1.000000 0.816227
C91   C     C_R   0.500000 0.366406 0.000000 -0.041886
C92   C     C_R   0.000001 0.866411 1.000000 -0.041694
C93   C     C_R   0.500000 0.414859 1.000000 0.800587
C94   C     C_R   1.000000 0.914861 0.000000 0.800542
C95   C     C_R   0.414911 0.500042 0.085002 0.789777
C96   C     C_R   0.585089 0.500042 0.914998 0.789770
C97   C     C_R   0.914911 0.000042 0.085002 0.789754
C98   C     C_R   0.085089 0.000042 0.914998 0.789753
C99   C     C_R   0.496222 0.343035 0.948188 -0.176685
C100  C     C_R   0.503779 0.343036 0.051813 -0.176688
C101  C     C_R   0.995639 0.843042 0.948850 -0.176679
C102  C     C_R   0.004363 0.843042 0.051148 -0.176678
C103  C     C_R   0.500000 0.585086 1.000000 0.789507
C104  C     C_R   1.000000 0.085086 1.000000 0.789498
C105  C     C_R   0.025292 0.297617 0.017905 -0.184843
C106  C     C_R   0.974708 0.297617 0.982095 -0.184842
C107  C     C_R   0.525294 0.797617 0.017901 -0.184846
C108  C     C_R   0.474706 0.797617 0.982100 -0.184841
C109  C     C_R   0.025433 0.343479 0.018065 0.335340
C110  C     C_R   0.974566 0.343479 0.981935 0.335341
C111  C     C_R   0.525435 0.843479 0.018061 0.335343
C112  C     C_R   0.474565 0.843479 0.981940 0.335344
C113  C     C_R   1.000000 0.366787 0.000000 -0.194403
C114  C     C_R   0.500000 0.866787 0.000001 -0.194403
C115  C     C_R   0.496148 0.297169 0.948330 -0.072776
C116  C     C_R   0.503853 0.297170 0.051672 -0.072777
C117  C     C_R   0.995549 0.797175 0.949013 -0.072758
C118  C     C_R   0.004456 0.797176 0.050984 -0.072760
C119  C     C_R   0.000000 0.274396 1.000000 -0.040646
C120  C     C_R   0.500000 0.774396 0.000000 -0.040631
C121  C     C_R   0.502489 0.702628 0.941882 -0.152704
C122  C     C_R   0.497512 0.702628 0.058118 -0.152702
C123  C     C_R   0.002498 0.202628 0.941873 -0.152707
C124  C     C_R   0.997502 0.202628 0.058126 -0.152705
C125  C     C_R   0.502455 0.656800 0.941896 -0.180551
C126  C     C_R   0.497545 0.656799 0.058103 -0.180547
C127  C     C_R   0.002464 0.156800 0.941887 -0.180551
C128  C     C_R   0.997535 0.156800 0.058113 -0.180551
C129  C     C_R   0.500000 0.633475 1.000000 -0.036624
C130  C     C_R   1.000000 0.133475 1.000000 -0.036620
C131  C     C_R   0.500000 0.274189 0.000001 0.199303
C132  C     C_R   0.000002 0.774196 0.999998 0.199392
C133  C     C_R   0.039977 0.702766 0.964275 0.355360
C134  C     C_R   0.960026 0.702767 0.035724 0.355360
C135  C     C_R   0.539914 0.202759 0.965393 0.355375
C136  C     C_R   0.460086 0.202759 0.034610 0.355374
C137  C     C_R   0.027430 0.524719 0.691361 0.018103
C138  C     C_R   0.972562 0.524711 0.308646 0.018091
C139  C     C_R   0.527439 0.024709 0.691352 0.018142
C140  C     C_R   0.472543 0.024689 0.308667 0.018125
C141  C     C_R   0.997860 0.499885 0.686953 -0.192564
C142  C     C_R   0.002139 0.499885 0.313048 -0.192551
C143  C     C_R   0.497860 0.999884 0.686952 -0.192549
C144  C     C_R   0.502139 0.999885 0.313050 -0.192523
C145  C     C_R   0.966624 0.474262 0.750993 0.443354
C146  C     C_R   0.033382 0.474270 0.249001 0.443352
C147  C     C_R   0.466616 0.974271 0.751000 0.443352
C148  C     C_R   0.533401 0.974294 0.248984 0.443338
C149  C     C_R   0.967596 0.474089 0.815002 -0.235820
C150  C     C_R   0.032411 0.474097 0.184992 -0.235809
C151  C     C_R   0.467587 0.974099 0.815010 -0.235802
C152  C     C_R   0.532429 0.974120 0.184975 -0.235763
Cu1   Cu    Cu3+1 0.000000 0.544020 0.500000 0.966121
Cu2   Cu    Cu3+1 0.500000 0.044020 0.500000 0.966113
Cu3   Cu    Cu3+1 0.000000 0.455930 0.500000 1.037003
Cu4   Cu    Cu3+1 0.500000 0.955930 0.500000 1.037051
Cu5   Cu    Cu3+1 0.955930 0.499910 0.044070 1.018353
Cu6   Cu    Cu3+1 0.044070 0.499910 0.955930 1.018354
Cu7   Cu    Cu3+1 0.455930 0.999910 0.044070 1.018363
Cu8   Cu    Cu3+1 0.544070 0.999910 0.955930 1.018369
Cu9   Cu    Cu3+1 0.499980 0.499990 0.061820 0.964996
Cu10  Cu    Cu3+1 0.500020 0.499990 0.938180 0.964998
Cu11  Cu    Cu3+1 0.999980 0.999990 0.061820 0.965018
Cu12  Cu    Cu3+1 0.000020 0.999990 0.938180 0.965019
H1    H     H_    0.220187 0.569766 0.299901 0.137003
H2    H     H_    0.779813 0.569769 0.700123 0.136992
H3    H     H_    0.720187 0.069769 0.299887 0.136991
H4    H     H_    0.279813 0.069767 0.700105 0.136982
H5    H     H_    0.280264 0.529152 0.310376 0.150424
H6    H     H_    0.719736 0.529185 0.689646 0.150417
H7    H     H_    0.780264 0.029159 0.310373 0.150415
H8    H     H_    0.219736 0.029155 0.689625 0.150414
H9    H     H_    0.360898 0.528716 0.229990 0.155609
H10   H     H_    0.639102 0.528748 0.770032 0.155597
H11   H     H_    0.860898 0.028722 0.229986 0.155603
H12   H     H_    0.139103 0.028718 0.770011 0.155603
H13   H     H_    0.360251 0.471850 0.048430 0.154224
H14   H     H_    0.639747 0.471816 0.951552 0.154214
H15   H     H_    0.860251 0.971844 0.048435 0.154137
H16   H     H_    0.139748 0.971847 0.951568 0.154138
H17   H     H_    0.279544 0.471672 0.129659 0.134807
H18   H     H_    0.720454 0.471637 0.870323 0.134806
H19   H     H_    0.779544 0.971666 0.129666 0.134766
H20   H     H_    0.220455 0.971668 0.870339 0.134771
H21   H     H_    0.070885 0.639518 0.936428 0.199573
H22   H     H_    0.929116 0.639520 0.063571 0.199572
H23   H     H_    0.570776 0.139508 0.938412 0.199489
H24   H     H_    0.429224 0.139508 0.061588 0.199488
H25   H     H_    0.493167 0.279543 0.908179 0.143455
H26   H     H_    0.506834 0.279544 0.091823 0.143455
H27   H     H_    0.992087 0.779546 0.909414 0.143357
H28   H     H_    0.007919 0.779546 0.090580 0.143359
H29   H     H_    0.493184 0.360133 0.907714 0.158905
H30   H     H_    0.506817 0.360134 0.092286 0.158904
H31   H     H_    0.992137 0.860144 0.908910 0.158753
H32   H     H_    0.007865 0.860144 0.091088 0.158751
H33   H     H_    0.045240 0.280088 0.031314 0.177439
H34   H     H_    0.954760 0.280088 0.968686 0.177440
H35   H     H_    0.545244 0.780089 0.031306 0.177431
H36   H     H_    0.454756 0.780089 0.968695 0.177431
H37   H     H_    0.944122 0.454010 0.863276 0.210907
H38   H     H_    0.055889 0.454024 0.136713 0.210898
H39   H     H_    0.444107 0.954026 0.863291 0.210896
H40   H     H_    0.555923 0.954064 0.136681 0.210877
H41   H     H_    0.505009 0.719880 0.895920 0.142984
H42   H     H_    0.494992 0.719879 0.104080 0.142985
H43   H     H_    0.005026 0.219880 0.895905 0.142983
H44   H     H_    0.994974 0.219880 0.104095 0.142984
H45   H     H_    0.504555 0.639697 0.896201 0.160637
H46   H     H_    0.495446 0.639697 0.103799 0.160639
H47   H     H_    0.004572 0.139697 0.896185 0.160635
H48   H     H_    0.995427 0.139697 0.103815 0.160635
H49   H     H_    0.057974 0.586126 0.748382 0.164475
H50   H     H_    0.942000 0.586109 0.251642 0.164475
H51   H     H_    0.558005 0.086106 0.748352 0.164432
H52   H     H_    0.441933 0.086064 0.251713 0.164434
H53   H     H_    0.096506 0.537852 0.708472 0.243971
H54   H     H_    0.903483 0.537824 0.291538 0.243970
H55   H     H_    0.596519 0.037818 0.708459 0.243972
H56   H     H_    0.403453 0.037749 0.291571 0.243969
H57   H     H_    0.056966 0.587475 0.636967 0.117805
H58   H     H_    0.943008 0.587458 0.363059 0.117803
H59   H     H_    0.556997 0.087454 0.636935 0.117781
H60   H     H_    0.442940 0.087412 0.363130 0.117778
H61   H     H_    0.220410 0.430680 0.260470 0.146406
H62   H     H_    0.779590 0.430676 0.739510 0.146399
H63   H     H_    0.720410 0.930678 0.260489 0.146424
H64   H     H_    0.279590 0.930679 0.739525 0.146404
H65   H     H_    0.139911 0.430120 0.342223 0.160565
H66   H     H_    0.860089 0.430117 0.657760 0.160557
H67   H     H_    0.639911 0.930118 0.342241 0.160583
H68   H     H_    0.360089 0.930119 0.657772 0.160563
H69   H     H_    0.139651 0.569790 0.380394 0.162460
H70   H     H_    0.860349 0.569793 0.619628 0.162442
H71   H     H_    0.639651 0.069792 0.380381 0.162438
H72   H     H_    0.360349 0.069790 0.619612 0.162412
O1    O     O_R   0.064270 0.537170 0.435740 -0.590816
O2    O     O_R   0.935730 0.537170 0.564260 -0.590822
O3    O     O_R   0.564270 0.037170 0.435740 -0.590825
O4    O     O_R   0.435730 0.037170 0.564260 -0.590846
O5    O     O_R   0.435710 0.499990 0.116480 -0.583408
O6    O     O_R   0.564290 0.499990 0.883520 -0.583401
O7    O     O_R   0.935710 0.999990 0.116480 -0.583336
O8    O     O_R   0.064290 0.999990 0.883520 -0.583335
O9    O     O_R   0.435700 0.499990 0.012100 -0.585916
O10   O     O_R   0.564300 0.499990 0.987900 -0.585912
O11   O     O_R   0.935700 0.999990 0.012100 -0.585989
O12   O     O_R   0.064300 0.999990 0.987900 -0.585990
O13   O     O_R   0.500010 0.564260 0.052180 -0.588074
O14   O     O_R   0.499990 0.564260 0.947820 -0.588077
O15   O     O_R   0.000010 0.064260 0.052180 -0.588077
O16   O     O_R   0.999990 0.064260 0.947820 -0.588076
O17   O     O_R   0.064230 0.462780 0.435770 -0.585263
O18   O     O_R   0.935770 0.462780 0.564230 -0.585271
O19   O     O_R   0.564230 0.962780 0.435770 -0.585242
O20   O     O_R   0.435770 0.962780 0.564230 -0.585246
O21   O     O_R   1.000000 0.537170 0.590170 -0.601681
O22   O     O_R   0.000000 0.537170 0.409830 -0.601692
O23   O     O_R   0.500000 0.037170 0.590170 -0.601684
O24   O     O_R   0.500000 0.037170 0.409830 -0.601714
O25   O     O_R   0.999960 0.462780 0.590210 -0.541762
O26   O     O_R   0.000040 0.462780 0.409790 -0.541756
O27   O     O_R   0.499960 0.962780 0.590210 -0.541761
O28   O     O_R   0.500040 0.962780 0.409790 -0.541749
O29   O     O_R   0.962790 0.435650 0.037200 -0.548720
O30   O     O_R   0.037210 0.435650 0.962800 -0.548720
O31   O     O_R   0.462790 0.935650 0.037200 -0.548717
O32   O     O_R   0.537210 0.935650 0.962800 -0.548718
O33   O     O_R   0.962770 0.499920 0.947050 -0.582063
O34   O     O_R   0.037230 0.499920 0.052950 -0.582066
O35   O     O_R   0.462770 0.999920 0.947050 -0.582106
O36   O     O_R   0.537230 0.999920 0.052950 -0.582111
O37   O     O_R   0.037170 0.499970 0.872660 -0.580703
O38   O     O_R   0.962830 0.499970 0.127340 -0.580709
O39   O     O_R   0.537170 0.999970 0.872660 -0.580675
O40   O     O_R   0.462830 0.999970 0.127340 -0.580684
O41   O     O_R   0.962770 0.564180 0.037230 -0.593168
O42   O     O_R   0.037230 0.564180 0.962770 -0.593170
O43   O     O_R   0.462770 0.064180 0.037230 -0.593121
O44   O     O_R   0.537230 0.064180 0.962770 -0.593121
O45   O     O_R   0.499950 0.435720 0.052230 -0.586113
O46   O     O_R   0.500050 0.435720 0.947770 -0.586109
O47   O     O_R   0.999950 0.935720 0.052230 -0.586066
O48   O     O_R   0.000050 0.935720 0.947770 -0.586066
O49   O     O_3   0.937160 0.446961 0.750329 -0.582151
C153  C     C_3   0.901611 0.471870 0.762049 0.064815
H73   H     H_    0.888416 0.453598 0.735071 0.173266
H74   H     H_    0.911484 0.504986 0.734903 0.097616
C154  C     C_3   0.864861 0.476354 0.846489 -0.352760
H75   H     H_    0.855884 0.443259 0.873209 0.247530
H76   H     H_    0.876607 0.496743 0.873918 0.214738
C155  C     C_3   0.824055 0.497932 0.859296 -0.888634
H77   H     H_    0.832329 0.530959 0.832452 0.259137
H78   H     H_    0.798406 0.501747 0.920829 0.262479
H79   H     H_    0.810527 0.477180 0.835199 0.257124
O50   O     O_3   0.062852 0.446976 0.249660 -0.582158
C156  C     C_3   0.098396 0.471895 0.237943 0.064795
H80   H     H_    0.111596 0.453626 0.264915 0.173264
H81   H     H_    0.088516 0.505008 0.265097 0.097631
C157  C     C_3   0.135144 0.476388 0.153503 -0.352764
H82   H     H_    0.144127 0.443295 0.126776 0.247528
H83   H     H_    0.123392 0.496775 0.126082 0.214734
C158  C     C_3   0.175946 0.497973 0.140698 -0.888628
H84   H     H_    0.167667 0.530998 0.167548 0.259138
H85   H     H_    0.201593 0.501793 0.079166 0.262476
H86   H     H_    0.189478 0.477223 0.164791 0.257124
O51   O     O_3   0.437144 0.946980 0.750344 -0.582162
C159  C     C_3   0.401603 0.971901 0.762055 0.064787
H87   H     H_    0.388401 0.953632 0.735085 0.173251
H88   H     H_    0.411487 0.005012 0.734896 0.097651
C160  C     C_3   0.364855 0.976399 0.846494 -0.352778
H89   H     H_    0.355868 0.943308 0.873226 0.247506
H90   H     H_    0.376608 0.996786 0.873913 0.214756
C161  C     C_3   0.324056 0.997989 0.859293 -0.888601
H91   H     H_    0.332339 0.031013 0.832439 0.259167
H92   H     H_    0.298408 0.001811 0.920825 0.262477
H93   H     H_    0.310522 0.977240 0.835201 0.257102
O52   O     O_3   0.562892 0.947023 0.249622 -0.582176
C162  C     C_3   0.598414 0.971968 0.237930 0.064735
H94   H     H_    0.611625 0.953711 0.264896 0.173234
H95   H     H_    0.588509 0.005075 0.265105 0.097695
C163  C     C_3   0.635164 0.976486 0.153496 -0.352769
H96   H     H_    0.644183 0.943397 0.126753 0.247477
H97   H     H_    0.623397 0.996851 0.126075 0.214763
C164  C     C_3   0.675941 0.998120 0.140716 -0.888592
H98   H     H_    0.667626 0.031144 0.167572 0.259164
H99   H     H_    0.701591 0.001950 0.079187 0.262474
H100  H     H_    0.689486 0.977397 0.164816 0.257114
Cl1   Cl    Cl    0.056550 0.370456 0.044250 -0.613967
Cl2   Cl    Cl    0.943449 0.370456 0.955751 -0.613982
Cl3   Cl    Cl    0.556553 0.870457 0.044243 -0.613925
Cl4   Cl    Cl    0.443445 0.870456 0.955760 -0.613971
Cl5   Cl    Cl    0.090916 0.730312 0.918118 -0.603044
Cl6   Cl    Cl    0.909087 0.730314 0.081881 -0.603045
Cl7   Cl    Cl    0.590785 0.230300 0.920666 -0.603178
Cl8   Cl    Cl    0.409216 0.230300 0.079339 -0.603180
Cl9   Cl    Cl    0.112069 0.528700 0.567316 -0.598295
Cl10  Cl    Cl    0.887923 0.528666 0.432692 -0.598280
Cl11  Cl    Cl    0.612079 0.028660 0.567306 -0.598312
Cl12  Cl    Cl    0.387900 0.028578 0.432716 -0.598309

loop_
_geom_bond_atom_site_label_1
_geom_bond_atom_site_label_2
_ccdc_geom_bond_type
C163  H97   S    
C61   H13   S    
Cu5   Cu6   S    
Cu6   O30   S    
C55   C59   A    
C80   O31   A    
C108  C120  A    
C74   C83   A    
Cu1   O21   S    
C158  H85   S    
C26   H66   S    
C60   C98   S    
C20   Cl12  S    
C76   C131  S    
C163  C164  S    
C29   C33   A    
C23   C43   A    
C48   C144  S    
C13   H49   S    
C136  Cl8   S    
C117  C132  A    
C142  C146  A    
C77   C122  A    
C146  C150  A    
C11   C15   S    
C48   O24   A    
C12   C16   S    
C91   C100  A    
Cu9   O5    S    
C159  C160  S    
C92   C102  A    
C105  H33   S    
C66   H18   S    
C49   C69   A    
C124  H44   S    
C51   C71   A    
C2    O18   A    
C73   C81   A    
C17   Cl9   S    
Cu7   O35   S    
Cu8   O36   S    
C27   C31   A    
C28   C32   A    
C15   H51   S    
Cu5   O38   S    
C62   C66   A    
C126  C129  A    
C161  H91   S    
C90   O43   A    
C82   C134  A    
C98   O8    A    
C52   C72   A    
C55   H11   S    
C158  H84   S    
C68   C72   A    
C92   C94   S    
C20   H60   S    
Cu8   O39   S    
C3    C31   S    
C4    C32   S    
C95   O5    A    
O50   C156  S    
C143  C147  A    
C107  C120  A    
Cu2   O24   S    
C157  H82   S    
C41   C69   S    
C68   H20   S    
C43   C71   S    
C153  C154  S    
Cu8   O32   S    
C97   O11   A    
C57   C61   A    
C99   H29   S    
C59   C63   A    
C60   C64   A    
C54   H10   S    
C155  H78   S    
C50   C70   A    
C153  H74   S    
C74   C90   S    
C66   C70   A    
C154  H76   S    
C49   C53   A    
C44   C72   S    
C51   C55   A    
C17   H57   S    
Cu5   O41   S    
Cu3   O25   S    
C61   C65   A    
C19   C139  S    
C14   H54   S    
C17   C137  S    
C10   C138  A    
C46   O22   A    
C162  H95   S    
C108  H36   S    
C104  O16   A    
C47   C143  S    
Cu7   O43   S    
Cu8   O44   S    
C52   H8    S    
C109  Cl1   S    
C75   C134  A    
C5    C149  A    
C5    C9    A    
C56   H12   S    
C64   C68   A    
Cu12  O16   S    
C65   C69   A    
Cu2   O4    S    
C42   C70   S    
Cu12  O48   S    
C25   C29   A    
C18   C138  S    
C111  Cl3   S    
C164  H99   S    
C9    C13   S    
Cu4   O28   S    
C139  C143  A    
Cu11  O7    S    
C28   H68   S    
C157  C158  S    
C5    C85   S    
C156  H81   S    
C87   O39   A    
C93   O46   A    
C76   C135  A    
C159  H88   S    
C134  Cl6   S    
C30   C34   A    
C103  O13   A    
C10   C14   S    
C47   O23   A    
C125  H45   S    
C37   H1    S    
C1    O1    A    
C8    C88   S    
C115  H25   S    
C147  C151  A    
C121  C125  A    
C125  C129  A    
C123  C127  A    
C8    C12   A    
Cu5   O33   S    
C89   O41   A    
C154  H75   S    
C78   C123  A    
C98   O12   A    
C67   H19   S    
C135  Cl7   S    
C26   C30   A    
C79   C113  S    
Cu1   Cu3   S    
C4    O20   A    
C15   H55   S    
C33   H69   S    
C75   C132  S    
Cu6   O37   S    
C27   H67   S    
C21   C25   A    
C80   O32   A    
C107  C111  A    
C105  C119  A    
C24   C28   A    
C74   C84   A    
C81   C133  A    
C22   H62   S    
C141  C145  A    
C36   H72   S    
C6    C86   S    
C124  C128  A    
C2    C30   S    
Cu10  O9    S    
C160  H90   S    
C95   O9    A    
Cu9   O13   S    
C85   O37   A    
C16   H56   S    
C37   C41   A    
C118  C132  A    
C40   C44   A    
C35   H71   S    
C91   C99   A    
C94   O47   A    
C58   C62   A    
C122  H42   S    
C106  C119  A    
C100  C116  A    
C121  H41   S    
C45   O25   A    
C77   C120  S    
Cu9   Cu10  S    
C46   C142  S    
C15   C19   S    
C25   H65   S    
C50   C54   A    
Cu1   O2    S    
C82   H22   S    
Cu7   O40   S    
C148  O52   S    
Cu3   O18   S    
Cu9   O45   S    
Cu6   O42   S    
C161  H92   S    
C154  C155  S    
C14   H50   S    
C90   O44   A    
C85   O33   A    
C16   H52   S    
Cu12  O11   S    
C11   C139  A    
C105  C109  A    
C117  H27   S    
C118  H28   S    
C7    C87   S    
C157  H83   S    
C12   C140  A    
Cu10  O6    S    
C145  O49   S    
Cu2   Cu4   S    
Cu4   O19   S    
C110  Cl2   S    
C106  H34   S    
C161  H93   S    
C163  H96   S    
C104  C130  S    
C45   C141  S    
Cu11  O12   S    
Cu1   O22   S    
C96   O10   A    
C18   Cl10  S    
C1    O17   A    
C158  H86   S    
C53   H9    S    
O51   C159  S    
C148  C152  A    
C19   H59   S    
C138  C142  A    
C53   C57   A    
C115  C131  A    
C33   C37   A    
C108  C112  A    
C35   C39   A    
O49   C153  S    
C91   C93   S    
Cu7   Cu8   S    
C4    O4    A    
C50   H6    S    
C103  C129  S    
C92   C101  A    
C7    C151  A    
C24   C44   A    
C31   C35   A    
C84   H24   S    
C150  H38   S    
Cu12  O8    S    
C32   C36   A    
C73   C82   A    
C38   H2    S    
C137  C141  A    
C84   C136  A    
C146  O50   S    
C8    C152  A    
C140  C144  A    
C128  C130  A    
C6    C10   A    
C75   C133  A    
C45   O21   A    
C13   C17   S    
Cu5   O29   S    
Cu6   O34   S    
C101  C117  A    
C20   C140  S    
Cu11  O15   S    
C78   C119  S    
C73   C89   S    
C128  H48   S    
C49   H5    S    
C1    C29   S    
C19   Cl11  S    
C99   C115  A    
C111  C114  A    
C67   C71   A    
C164  H98   S    
C18   H58   S    
C162  H94   S    
C6    C150  A    
C56   C60   A    
C22   C26   A    
C152  H40   S    
C13   H53   S    
C79   O30   A    
C145  C149  A    
Cu2   O23   S    
C101  H31   S    
C3    O3    A    
C107  H35   S    
C160  H89   S    
C156  H80   S    
C14   C18   S    
Cu11  Cu12  S    
C144  C148  A    
C93   O45   A    
C76   C136  A    
C65   H17   S    
C7    C11   A    
C86   O38   A    
C155  H77   S    
C38   C42   A    
C153  H73   S    
C64   H16   S    
Cu7   O31   S    
C147  O51   S    
C63   H15   S    
C58   C96   S    
C87   O35   A    
Cu3   O26   S    
C88   O36   A    
C23   C27   A    
C78   C124  A    
C83   C135  A    
C102  C118  A    
C16   C20   S    
C162  C163  S    
C104  O15   A    
C83   H23   S    
C81   H21   S    
Cu10  O46   S    
C63   C67   A    
C36   C40   A    
C77   C121  A    
C86   O34   A    
C126  H46   S    
C2    O2    A    
C39   C43   A    
C47   O27   A    
Cu2   O3    S    
C48   O28   A    
C122  C126  A    
C164  H100  S    
O52   C162  S    
C97   O7    A    
Cu4   O27   S    
C123  H43   S    
C109  C113  A    
C110  C113  A    
C96   O6    A    
C112  C114  A    
C127  H47   S    
C80   C114  S    
C59   C97   S    
C156  C157  S    
C21   C41   A    
C34   H70   S    
C149  H37   S    
C159  H87   S    
C94   O48   A    
C54   C58   A    
C116  H26   S    
C34   C38   A    
C103  O14   A    
C155  H79   S    
C151  H39   S    
C102  H32   S    
C62   H14   S    
C23   H63   S    
C100  H30   S    
C46   O26   A    
C21   H61   S    
Cu1   O1    S    
C51   H7    S    
C88   O40   A    
C127  C130  A    
C9    C137  A    
Cu9   O10   S    
Cu10  O14   S    
Cu3   O17   S    
C22   C42   A    
C116  C131  A    
C89   O42   A    
C79   O29   A    
C39   H3    S    
C3    O19   A    
C40   H4    S    
C112  Cl4   S    
C133  Cl5   S    
C52   C56   A    
Cu11  O47   S    
C106  C110  A    
C57   C95   S    
C160  C161  S    
C24   H64   S    
Cu4   O20   S    
