data_mof_unit_51666.cif
_audit_creation_date              2012-12-10T18:09:36-0500
_audit_creation_method            fapswitch 2.2
_symmetry_space_group_name_H-M    P1
_symmetry_Int_Tables_number       1
_space_group_crystal_system       orthorhombic
_cell_length_a                    15.463515
_cell_length_b                    16.146829
_cell_length_c                    9.998101
_cell_angle_alpha                 90.0
_cell_angle_beta                  90.0
_cell_angle_gamma                 90.0
_cell_volume                      2496.39316933

loop_
_atom_site_label
_atom_site_type_symbol
_atom_type_description
_atom_site_fract_x
_atom_site_fract_y
_atom_site_fract_z
_atom_type_partial_charge
C1    C     C_R   0.120494 0.380563 0.500034 0.891672
C2    C     C_R   0.120494 0.619436 0.499966 0.891672
C3    C     C_R   0.620494 0.880564 0.499966 0.891672
C4    C     C_R   0.620494 0.119436 0.500034 0.891672
C5    C     C_3   0.089293 0.487805 0.077758 0.474279
C6    C     C_3   0.089293 0.512195 0.922241 0.474279
C7    C     C_3   0.589293 0.012195 0.077758 0.474279
C8    C     C_3   0.589293 0.987805 0.922241 0.474279
C9    C     C_R   0.882401 0.379721 0.500700 0.806668
C10   C     C_R   0.882401 0.620279 0.499300 0.806668
C11   C     C_R   0.382402 0.879721 0.499300 0.806668
C12   C     C_R   0.382402 0.120279 0.500700 0.806668
C13   C     C_3   0.823168 0.251532 0.629039 0.137778
C14   C     C_3   0.822721 0.254512 0.376024 0.157995
C15   C     C_3   0.822721 0.745488 0.623976 0.157995
C16   C     C_3   0.823168 0.748468 0.370961 0.137778
C17   C     C_3   0.322721 0.754512 0.623976 0.157995
C18   C     C_3   0.323168 0.751532 0.370961 0.137778
C19   C     C_3   0.323168 0.248468 0.629039 0.137778
C20   C     C_3   0.322721 0.245488 0.376024 0.157995
C21   C     C_3   0.245434 0.693403 0.632744 0.253166
C22   C     C_3   0.258306 0.677517 0.381847 0.243397
C23   C     C_3   0.258306 0.322483 0.618153 0.243397
C24   C     C_3   0.245434 0.306596 0.367256 0.253166
C25   C     C_3   0.758306 0.177517 0.618153 0.243396
C26   C     C_3   0.745434 0.193403 0.367256 0.253166
C27   C     C_3   0.745434 0.806597 0.632744 0.253166
C28   C     C_3   0.758306 0.822483 0.381847 0.243397
C29   C     C_3   0.722617 0.345712 0.507340 -0.538789
C30   C     C_3   0.722617 0.654288 0.492660 -0.538789
C31   C     C_3   0.222617 0.845712 0.492660 -0.538789
C32   C     C_3   0.222617 0.154288 0.507340 -0.538789
C33   C     C_3   0.815818 0.308948 0.503381 -0.153508
C34   C     C_3   0.815818 0.691052 0.496619 -0.153508
C35   C     C_3   0.315818 0.808948 0.496619 -0.153508
C36   C     C_3   0.315818 0.191052 0.503381 -0.153508
C37   C     C_3   0.192852 0.688303 0.499197 -0.196730
C38   C     C_3   0.192852 0.311697 0.500803 -0.196730
C39   C     C_3   0.692852 0.188303 0.500803 -0.196730
C40   C     C_3   0.692852 0.811697 0.499197 -0.196730
C41   C     C_3   0.152871 0.775915 0.480137 -0.470870
C42   C     C_3   0.152871 0.224085 0.519863 -0.470870
C43   C     C_3   0.652871 0.275915 0.519863 -0.470870
C44   C     C_3   0.652871 0.724085 0.480137 -0.470870
C45   C     C_3   0.960965 0.575370 0.084347 0.187873
C46   C     C_3   0.945824 0.567232 0.924032 0.173388
C47   C     C_3   0.945824 0.432768 0.075968 0.173388
C48   C     C_3   0.960965 0.424630 0.915653 0.187872
C49   C     C_3   0.445824 0.067232 0.075968 0.173388
C50   C     C_3   0.460965 0.075370 0.915653 0.187873
C51   C     C_3   0.460965 0.924630 0.084347 0.187873
C52   C     C_3   0.445824 0.932768 0.924032 0.173388
Cu1   Cu    Cu3+1 0.000100 0.500000 0.642410 1.097223
Cu2   Cu    Cu3+1 0.000100 0.500000 0.357590 1.097224
Cu3   Cu    Cu3+1 0.500100 1.000000 0.642410 1.097223
Cu4   Cu    Cu3+1 0.500100 0.000000 0.357590 1.097224
H1    H     H_    0.804481 0.289183 0.717868 0.133931
H2    H     H_    0.815603 0.295741 0.288307 0.159099
H3    H     H_    0.815603 0.704259 0.711692 0.159099
H4    H     H_    0.804481 0.710816 0.282132 0.133932
H5    H     H_    0.315603 0.795741 0.711692 0.159099
H6    H     H_    0.304481 0.789184 0.282132 0.133932
H7    H     H_    0.304481 0.210816 0.717868 0.133932
H8    H     H_    0.315603 0.204259 0.288307 0.159099
H9    H     H_    0.200996 0.719212 0.708718 0.152357
H10   H     H_    0.221358 0.678576 0.287539 0.165910
H11   H     H_    0.221358 0.321424 0.712461 0.165910
H12   H     H_    0.200996 0.280788 0.291282 0.152357
H13   H     H_    0.721358 0.178576 0.712461 0.165910
H14   H     H_    0.700997 0.219212 0.291282 0.152357
H15   H     H_    0.700997 0.780788 0.708718 0.152357
H16   H     H_    0.721358 0.821424 0.287539 0.165910
H17   H     H_    0.716046 0.389176 0.593123 0.223412
H18   H     H_    0.710548 0.382367 0.414914 0.220484
H19   H     H_    0.710548 0.617633 0.585086 0.220484
H20   H     H_    0.716046 0.610824 0.406877 0.223412
H21   H     H_    0.210548 0.882367 0.585086 0.220484
H22   H     H_    0.216046 0.889176 0.406877 0.223412
H23   H     H_    0.216046 0.110824 0.593123 0.223412
H24   H     H_    0.210548 0.117633 0.414914 0.220484
H25   H     H_    0.102853 0.786410 0.556904 0.266103
H26   H     H_    0.121522 0.779985 0.380456 0.266875
H27   H     H_    0.121522 0.220015 0.619544 0.266875
H28   H     H_    0.102853 0.213590 0.443095 0.266103
H29   H     H_    0.621522 0.279985 0.619544 0.266875
H30   H     H_    0.602853 0.286410 0.443095 0.266103
H31   H     H_    0.602853 0.713590 0.556904 0.266103
H32   H     H_    0.621522 0.720015 0.380456 0.266875
H33   H     H_    0.896154 0.584796 0.130135 0.131099
H34   H     H_    0.876033 0.552253 0.908631 0.068814
H35   H     H_    0.876033 0.447747 0.091369 0.068814
H36   H     H_    0.896154 0.415204 0.869865 0.131099
H37   H     H_    0.376033 0.052253 0.091369 0.068814
H38   H     H_    0.396154 0.084796 0.869865 0.131099
H39   H     H_    0.396154 0.915204 0.130135 0.131099
H40   H     H_    0.376033 0.947747 0.908631 0.068814
N1    N     N_3   0.001260 0.500000 0.143650 -0.308037
N2    N     N_3   0.001260 0.500000 0.856350 -0.308037
N3    N     N_3   0.501260 1.000000 0.143650 -0.308037
N4    N     N_3   0.501260 1.000000 0.856350 -0.308038
O1    O     O_R   0.091250 0.408820 0.620260 -0.517360
O2    O     O_R   0.091250 0.408820 0.379740 -0.505511
O3    O     O_R   0.091250 0.591180 0.620260 -0.505511
O4    O     O_R   0.091250 0.591180 0.379740 -0.517360
O5    O     O_R   0.591250 0.908820 0.620260 -0.505511
O6    O     O_R   0.591250 0.908820 0.379740 -0.517360
O7    O     O_R   0.591250 0.091180 0.620260 -0.517360
O8    O     O_R   0.591250 0.091180 0.379740 -0.505511
O9    O     O_R   0.908940 0.408800 0.620260 -0.583628
O10   O     O_R   0.908940 0.408800 0.379740 -0.555302
O11   O     O_R   0.908940 0.591200 0.620260 -0.555302
O12   O     O_R   0.908940 0.591200 0.379740 -0.583628
O13   O     O_R   0.408940 0.908800 0.620260 -0.555302
O14   O     O_R   0.408940 0.908800 0.379740 -0.583628
O15   O     O_R   0.408940 0.091200 0.620260 -0.583628
O16   O     O_R   0.408940 0.091200 0.379740 -0.555302
Br1   Br    Br    0.939588 0.213788 0.674756 -0.264170
Br2   Br    Br    0.937324 0.200070 0.359863 -0.230106
Br3   Br    Br    0.937324 0.799930 0.640137 -0.230106
Br4   Br    Br    0.939588 0.786211 0.325244 -0.264170
Br5   Br    Br    0.437324 0.700070 0.640137 -0.230106
Br6   Br    Br    0.439588 0.713788 0.325244 -0.264170
Br7   Br    Br    0.439588 0.286211 0.674756 -0.264170
Br8   Br    Br    0.437324 0.299930 0.359863 -0.230106
Cl1   Cl    Cl    0.281615 0.596728 0.694687 -0.303747
Cl2   Cl    Cl    0.312912 0.580243 0.396027 -0.279283
Cl3   Cl    Cl    0.312912 0.419757 0.603973 -0.279283
Cl4   Cl    Cl    0.281615 0.403272 0.305313 -0.303747
Cl5   Cl    Cl    0.812912 0.080243 0.603973 -0.279283
Cl6   Cl    Cl    0.781615 0.096728 0.305313 -0.303746
Cl7   Cl    Cl    0.781615 0.903272 0.694687 -0.303747
Cl8   Cl    Cl    0.812912 0.919757 0.396027 -0.279283
Cl9   Cl    Cl    0.019284 0.665062 0.134735 -0.413760
Cl10  Cl    Cl    0.947816 0.667149 0.855003 -0.436823
Cl11  Cl    Cl    0.947816 0.332850 0.144997 -0.436823
Cl12  Cl    Cl    0.019284 0.334938 0.865265 -0.413760
Cl13  Cl    Cl    0.447815 0.167150 0.144997 -0.436823
Cl14  Cl    Cl    0.519284 0.165062 0.865265 -0.413760
Cl15  Cl    Cl    0.519284 0.834938 0.134735 -0.413760
Cl16  Cl    Cl    0.447815 0.832850 0.855003 -0.436823
Br9   Br    Br    0.183719 0.543815 0.159676 -0.206485
Br10  Br    Br    0.134377 0.625231 0.895148 -0.247413
Br11  Br    Br    0.134377 0.374769 0.104852 -0.247413
Br12  Br    Br    0.183719 0.456185 0.840324 -0.206485
Br13  Br    Br    0.634378 0.125231 0.104852 -0.247413
Br14  Br    Br    0.683719 0.043815 0.840324 -0.206485
Br15  Br    Br    0.683719 0.956185 0.159676 -0.206485
Br16  Br    Br    0.634377 0.874769 0.895148 -0.247413

loop_
_geom_bond_atom_site_label_1
_geom_bond_atom_site_label_2
_ccdc_geom_bond_type
C16   C28   S    
Cu3   Cu4   S    
C49   Cl13  S    
C27   Cl7   S    
C25   Cl5   S    
C14   C33   S    
C7    C8    S    
C28   H16   S    
C45   C46   S    
C3    O5    A    
C4    O8    A    
C19   Br7   S    
C6    Br10  S    
C7    N3    S    
Cu3   O5    S    
C32   C36   S    
Cu2   O4    S    
C38   C42   S    
C19   C36   S    
C16   Br4   S    
C5    C6    S    
C12   O16   A    
C26   C39   S    
C22   Cl2   S    
C13   H1    S    
C28   C40   S    
C32   H24   S    
C29   C33   S    
Cu2   O10   S    
C21   C37   S    
C16   H4    S    
C23   H11   S    
C11   O14   A    
Cu4   O8    S    
C17   H5    S    
C15   C27   S    
C22   H10   S    
C20   C24   S    
Cu1   O1    S    
C14   Br2   S    
Cu3   N4    S    
C24   C38   S    
Cu2   N1    S    
C10   O12   A    
C12   C36   S    
C44   H31   S    
C45   H33   S    
C18   C35   S    
C15   C34   S    
C26   Cl6   S    
C12   O15   A    
C16   C34   S    
Cu1   O11   S    
C46   N2    S    
C29   C43   S    
C9    C33   S    
C30   C44   S    
C8    Br16  S    
C47   H35   S    
C21   H9    S    
Cu2   O2    S    
C31   H21   S    
C7    Br15  S    
C3    O6    A    
C51   N3    S    
C14   H2    S    
C4    O7    A    
C30   C34   S    
C51   C52   S    
C43   H29   S    
C42   H28   S    
C19   H7    S    
C49   N3    S    
C50   H38   S    
C39   C43   S    
C29   H18   S    
Cu3   O13   S    
Cu1   Cu2   S    
C22   C37   S    
C52   N4    S    
C17   C21   S    
Cu3   O7    S    
C28   Cl8   S    
C9    O9    A    
C20   H8    S    
C19   C23   S    
C13   C33   S    
C46   Cl10  S    
C30   H20   S    
C5    Br9   S    
C47   C48   S    
C4    C39   S    
C2    O4    A    
C27   C40   S    
C41   H25   S    
Cu4   O16   S    
Cu2   O12   S    
C10   O11   A    
C10   C34   S    
C14   C26   S    
Cu4   O6    S    
C1    C38   S    
C18   Br6   S    
C17   Br5   S    
C5    N1    S    
C3    C40   S    
C1    O1    A    
C26   H14   S    
C31   C35   S    
C25   H13   S    
C6    Br12  S    
C6    N2    S    
C27   H15   S    
C31   H22   S    
C23   Cl3   S    
Cu1   O9    S    
C9    O10   A    
Cu4   O14   S    
C31   C41   S    
C47   Cl11  S    
C18   C22   S    
C43   H30   S    
C15   H3    S    
C48   Cl12  S    
C8    Br14  S    
C42   H27   S    
C13   C25   S    
C13   Br1   S    
C50   Cl14  S    
C46   H34   S    
Cu1   N2    S    
C23   C38   S    
C48   N2    S    
C45   Cl9   S    
C47   N1    S    
C11   C35   S    
C8    N4    S    
C45   N1    S    
C25   C39   S    
C32   H23   S    
C30   H19   S    
C2    C37   S    
Cu3   O15   S    
C2    O3    A    
Cu1   O3    S    
C41   H26   S    
C52   Cl16  S    
C15   Br3   S    
C52   H40   S    
C37   C41   S    
C11   O13   A    
C50   N4    S    
C20   Br8   S    
C5    Br11  S    
C24   H12   S    
C20   C36   S    
C40   C44   S    
C29   H17   S    
C49   C50   S    
C48   H36   S    
C24   Cl4   S    
C32   C42   S    
C18   H6    S    
C17   C35   S    
Cu4   N3    S    
C49   H37   S    
C44   H32   S    
C21   Cl1   S    
C1    O2    A    
C51   H39   S    
C7    Br13  S    
C51   Cl15  S    
