data_mof_unit_14168.cif
_audit_creation_date              2012-12-10T18:05:44-0500
_audit_creation_method            fapswitch 2.2
_symmetry_space_group_name_H-M    P1
_symmetry_Int_Tables_number       1
_space_group_crystal_system       triclinic
_cell_length_a                    10.754265
_cell_length_b                    10.811171
_cell_length_c                    9.603795
_cell_angle_alpha                 89.325629
_cell_angle_beta                  88.862412
_cell_angle_gamma                 93.234997
_cell_volume                      1114.50475123

loop_
_atom_site_label
_atom_site_type_symbol
_atom_type_description
_atom_site_fract_x
_atom_site_fract_y
_atom_site_fract_z
_atom_type_partial_charge
C1    C     C_R   0.501753 0.262445 0.500372 0.785233
C2    C     C_R   0.498247 0.737555 0.499627 0.785233
C3    C     C_R   0.871796 0.508514 0.497806 -0.058998
C4    C     C_R   0.128204 0.491486 0.502194 -0.058999
C5    C     C_R   0.944172 0.593304 0.577664 0.000119
C6    C     C_R   0.055828 0.406695 0.422336 0.000119
C7    C     C_R   0.493753 0.065085 0.374123 -0.195215
C8    C     C_R   0.506247 0.934915 0.625877 -0.195216
C9    C     C_R   0.488123 0.937069 0.374269 -0.220833
C10   C     C_R   0.511877 0.062931 0.625731 -0.220833
C11   C     C_R   0.496512 0.871459 0.499746 -0.018472
C12   C     C_R   0.503488 0.128541 0.500254 -0.018471
C13   C     C_R   0.405807 0.440907 0.079148 -0.083853
C14   C     C_R   0.594193 0.559093 0.920852 -0.083853
C15   C     C_R   0.404493 0.440787 0.931623 0.086475
C16   C     C_R   0.595507 0.559213 0.068377 0.086475
C17   C     C_R   0.262415 0.493575 0.500863 0.792425
C18   C     C_R   0.737585 0.506425 0.499137 0.792425
C19   C     C_R   0.097344 0.154281 0.158611 -0.132196
C20   C     C_R   0.902656 0.845718 0.841390 -0.132196
C21   C     C_R   0.069751 0.268282 0.215412 -0.164917
C22   C     C_R   0.930249 0.731717 0.784588 -0.164917
C23   C     C_R   0.106615 0.298650 0.351221 0.103348
C24   C     C_R   0.893385 0.701349 0.648780 0.103348
C25   C     C_R   0.173980 0.214107 0.426853 -0.140915
C26   C     C_R   0.826020 0.785893 0.573148 -0.140914
C27   C     C_R   0.198623 0.099171 0.370927 -0.136083
C28   C     C_R   0.801377 0.900829 0.629074 -0.136083
C29   C     C_R   0.161564 0.069664 0.236362 -0.135847
C30   C     C_R   0.838436 0.930335 0.763640 -0.135848
C31   C     C_R   0.927486 0.416861 0.421636 -0.233198
C32   C     C_R   0.072514 0.583139 0.578364 -0.233199
Cu1   Cu    Cu3+1 0.500000 0.500020 0.640660 0.943575
Cu2   Cu    Cu3+1 0.500000 0.499980 0.359340 0.943575
H1    H     H_    0.180965 0.980600 0.193183 0.116741
H2    H     H_    0.819035 0.019399 0.806819 0.116742
H3    H     H_    0.065367 0.129646 0.056189 0.142727
H4    H     H_    0.934633 0.870352 0.943812 0.142727
H5    H     H_    0.016187 0.331078 0.155401 0.121926
H6    H     H_    0.983813 0.668921 0.844599 0.121927
H7    H     H_    0.202613 0.234836 0.531247 0.136626
H8    H     H_    0.797386 0.765164 0.468754 0.136625
H9    H     H_    0.244149 0.031921 0.433272 0.152048
H10   H     H_    0.755851 0.968079 0.566730 0.152048
H11   H     H_    0.869458 0.349826 0.365375 0.142335
H12   H     H_    0.130542 0.650174 0.634625 0.142335
H13   H     H_    0.486349 0.113872 0.275728 0.161116
H14   H     H_    0.513651 0.886128 0.724272 0.161116
H15   H     H_    0.475058 0.889981 0.276662 0.144857
H16   H     H_    0.524942 0.110018 0.723338 0.144858
H17   H     H_    0.330817 0.393079 0.138730 0.152937
H18   H     H_    0.669183 0.606921 0.861270 0.152937
N1    N     N_R   0.500030 0.500030 0.852070 -0.181221
N2    N     N_R   0.499970 0.499970 0.147930 -0.181221
O1    O     O_R   0.499990 0.319660 0.618740 -0.586185
O2    O     O_R   0.500010 0.680340 0.381260 -0.586185
O3    O     O_R   0.499990 0.319630 0.381170 -0.583800
O4    O     O_R   0.500010 0.680370 0.618830 -0.583800
O5    O     O_R   0.319650 0.500020 0.618780 -0.572750
O6    O     O_R   0.680350 0.499980 0.381220 -0.572750
O7    O     O_R   0.319640 0.500000 0.381210 -0.584919
O8    O     O_R   0.680360 0.500000 0.618790 -0.584919
C33   C     C_R   0.295334 0.375203 0.870853 0.163278
C34   C     C_R   0.180898 0.431971 0.868837 -0.146366
C35   C     C_R   0.072864 0.365110 0.827994 -0.141214
C36   C     C_R   0.077806 0.240663 0.791911 -0.142873
C37   C     C_R   0.190107 0.182039 0.800308 -0.196558
C38   C     C_R   0.298153 0.248828 0.841083 -0.123549
H19   H     H_    0.175543 0.527739 0.899177 0.107864
H20   H     H_    0.985255 0.409597 0.825046 0.135623
H21   H     H_    0.994296 0.189092 0.759931 0.134205
H22   H     H_    0.193130 0.084649 0.776379 0.141762
H23   H     H_    0.382880 0.201495 0.854326 0.114743
C39   C     C_R   0.704667 0.624795 0.129147 0.163278
C40   C     C_R   0.819103 0.568026 0.131162 -0.146367
C41   C     C_R   0.927137 0.634887 0.172005 -0.141213
C42   C     C_R   0.922196 0.759333 0.208090 -0.142871
C43   C     C_R   0.809896 0.817958 0.199694 -0.196560
C44   C     C_R   0.701849 0.751171 0.158919 -0.123549
H24   H     H_    0.824457 0.472259 0.100820 0.107864
H25   H     H_    0.014746 0.590398 0.174951 0.135621
H26   H     H_    0.005706 0.810903 0.240069 0.134204
H27   H     H_    0.806873 0.915348 0.223625 0.141762
H28   H     H_    0.617122 0.798504 0.145677 0.114744

loop_
_geom_bond_atom_site_label_1
_geom_bond_atom_site_label_2
_ccdc_geom_bond_type
Cu1   O1    S    
Cu2   O2    S    
Cu1   O4    S    
C27   C29   A    
C20   C30   A    
C42   C43   A    
C16   C39   S    
C15   N1    A    
C19   C21   A    
C24   C26   A    
C44   H28   S    
C35   H20   S    
C3    C18   S    
C37   H22   S    
C19   H3    S    
C17   O7    A    
C13   H17   S    
C43   H27   S    
C14   H18   S    
Cu1   O8    S    
Cu2   O3    S    
C40   H24   S    
C5    C32   A    
C6    C31   A    
Cu1   O5    S    
Cu2   O6    S    
C1    C12   S    
C2    C11   S    
C21   C23   A    
Cu1   N1    S    
C7    C12   A    
C39   C40   A    
C37   C38   A    
C9    H15   S    
C41   C42   A    
C4    C6    A    
C25   H7    S    
C43   C44   A    
C18   O8    A    
C38   H23   S    
C28   H10   S    
Cu2   O7    S    
C7    H13   S    
C40   C41   A    
C8    H14   S    
C1    O3    A    
C20   H4    S    
C36   H21   S    
C21   H5    S    
C22   H6    S    
Cu1   Cu2   S    
C34   H19   S    
C3    C31   A    
C9    C11   A    
C4    C32   A    
C10   C12   A    
C17   O5    A    
C4    C17   S    
C18   O6    A    
C20   C22   A    
Cu2   N2    S    
C39   C44   A    
C13   C15   A    
C14   C16   A    
C10   H16   S    
C26   H8    S    
C13   N2    A    
C7    C9    A    
C33   C38   A    
C32   H12   S    
C3    C5    A    
C41   H25   S    
C2    O4    A    
C25   C27   A    
C29   H1    S    
C26   C28   A    
C30   H2    S    
C34   C35   A    
C28   C30   A    
C1    O1    A    
C2    O2    A    
C5    C24   S    
C42   H26   S    
C8    C11   A    
C6    C23   S    
C36   C37   A    
C22   C24   A    
C23   C25   A    
C16   N2    A    
C33   C34   A    
C27   H9    S    
C14   N1    A    
C8    C10   A    
C35   C36   A    
C31   H11   S    
C15   C33   S    
C19   C29   A    
