data_mof_unit_19750.cif
_audit_creation_date              2013-03-05T16:34:23-0500
_audit_creation_method            fapswitch 2.2
_symmetry_space_group_name_H-M    P1
_symmetry_Int_Tables_number       1
_space_group_crystal_system       triclinic
_cell_length_a                    14.879034
_cell_length_b                    14.093108
_cell_length_c                    18.440419
_cell_angle_alpha                 87.913231
_cell_angle_beta                  89.910627
_cell_angle_gamma                 91.565831
_cell_volume                      3862.78532605

loop_
_atom_site_label
_atom_site_type_symbol
_atom_site_description
_atom_site_fract_x
_atom_site_fract_y
_atom_site_fract_z
_atom_type_partial_charge
O1    O     O_R   0.369060 0.579480 0.500010 -0.608447
O2    O     O_R   0.630940 0.420520 0.499990 -0.599434
O3    O     O_R   0.630940 0.579480 0.499990 -0.616418
O4    O     O_R   0.369060 0.420520 0.500010 -0.606215
C1    C     C_R   0.325908 0.498328 0.499237 0.845407
C2    C     C_R   0.673907 0.501221 0.499729 0.861587
O5    O     O_R   0.500020 0.579510 0.398180 -0.600753
O6    O     O_R   0.499980 0.420490 0.601820 -0.607772
O7    O     O_R   0.499980 0.579510 0.601820 -0.593671
O8    O     O_R   0.500020 0.420490 0.398180 -0.605921
C3    C     C_R   0.500859 0.502241 0.362961 0.854664
C4    C     C_R   0.501620 0.498134 0.637066 0.843992
Zn1   Zn    Zn3+2 0.500000 0.606140 0.500000 0.964742
Zn2   Zn    Zn3+2 0.500000 0.393860 0.500000 0.959295
C5    C     C_R   0.546737 0.404259 0.749576 0.001764
C6    C     C_R   0.562221 0.596364 0.254399 -0.010204
C7    C     C_R   0.518857 0.430897 0.239331 -0.015060
C8    C     C_R   0.530246 0.573995 0.758682 -0.033181
C9    C     C_R   0.604427 0.405674 0.809885 -0.222488
C10   C     C_R   0.620275 0.592106 0.194533 -0.215799
C11   C     C_R   0.557610 0.438278 0.170362 -0.183618
C12   C     C_R   0.563307 0.565362 0.829236 -0.186406
C13   C     C_R   0.610369 0.485170 0.853327 0.103416
C14   C     C_R   0.615533 0.514592 0.149151 0.104134
C15   C     C_R   0.521674 0.492398 0.716475 -0.174338
C16   C     C_R   0.522315 0.510241 0.283943 -0.170644
C17   C     C_R   0.683287 0.577161 0.952650 -0.057045
C18   C     C_R   0.680191 0.422172 0.049280 -0.058698
C19   C     C_R   0.671520 0.592567 0.027403 -0.035740
C20   C     C_R   0.665056 0.406747 0.974902 -0.037430
C21   C     C_R   0.661109 0.512330 0.076175 -0.021149
C22   C     C_R   0.657261 0.487099 0.926121 -0.020732
C23   C     C_R   0.088927 0.578425 0.467432 -0.213224
C24   C     C_R   0.907920 0.413397 0.475374 -0.214277
C25   C     C_R   0.900968 0.571468 0.421561 -0.225804
C26   C     C_R   0.097764 0.417032 0.430596 -0.234581
C27   C     C_R   0.177345 0.577769 0.491619 -0.016015
C28   C     C_R   0.819927 0.418224 0.500115 -0.006761
C29   C     C_R   0.815408 0.581307 0.450462 -0.011572
C30   C     C_R   0.185048 0.411837 0.457681 -0.006427
C31   C     C_R   0.227936 0.494625 0.485828 -0.163756
C32   C     C_R   0.771639 0.502477 0.486956 -0.156012
C33   C     C_R   0.048146 0.498000 0.438515 0.091162
C34   C     C_R   0.949677 0.490677 0.438097 0.090187
C35   C     C_R   0.460513 0.106481 0.443456 -0.273790
C36   C     C_R   0.571345 0.895399 0.530634 -0.269166
C37   C     C_R   0.541743 0.103807 0.556231 -0.277734
C38   C     C_R   0.428667 0.894366 0.469446 -0.275006
H1    H     H_    0.428920 0.071669 0.398494 0.135793
H2    H     H_    0.628457 0.931710 0.554336 0.119956
H3    H     H_    0.573201 0.066993 0.601567 0.130066
H4    H     H_    0.371534 0.929384 0.445595 0.116042
C39   C     C_R   0.459785 0.205866 0.445037 0.063268
C40   C     C_R   0.569387 0.795825 0.530651 0.078230
C41   C     C_R   0.541261 0.203420 0.554704 0.061099
C42   C     C_R   0.430314 0.794920 0.469580 0.077254
H5    H     H_    0.426300 0.245930 0.402568 0.163446
H6    H     H_    0.622711 0.756637 0.556117 0.134549
H7    H     H_    0.574052 0.241923 0.597178 0.154413
H8    H     H_    0.375924 0.755464 0.444940 0.129672
N1    N     N_R   0.500000 0.252470 0.500000 -0.104759
N2    N     N_R   0.500000 0.747530 0.500000 -0.095349
C43   C     C_R   0.500848 0.053356 0.499967 0.113952
C44   C     C_R   0.500201 0.946685 0.500033 0.129841
C45   C     C_R   0.499356 0.312565 0.733378 0.155605
C46   C     C_R   0.406282 0.311646 0.719047 -0.101311
C47   C     C_R   0.357870 0.225901 0.713720 -0.156063
C48   C     C_R   0.401262 0.139754 0.722707 -0.116132
C49   C     C_R   0.493094 0.139419 0.737804 -0.158806
C50   C     C_R   0.541778 0.224828 0.743102 -0.173297
H9    H     H_    0.370193 0.377272 0.714413 0.097704
H10   H     H_    0.286169 0.226438 0.704213 0.113030
H11   H     H_    0.363455 0.073411 0.719041 0.112045
H12   H     H_    0.527000 0.073177 0.746597 0.118397
H13   H     H_    0.612171 0.221163 0.755996 0.128974
C51   C     C_R   0.529999 0.691759 0.273734 0.171014
C52   C     C_R   0.437030 0.705116 0.282003 -0.114136
C53   C     C_R   0.404000 0.795733 0.291463 -0.184519
C54   C     C_R   0.463073 0.874263 0.292776 -0.117314
C55   C     C_R   0.555222 0.862423 0.284308 -0.124121
C56   C     C_R   0.588497 0.772021 0.274047 -0.133815
H14   H     H_    0.389664 0.645599 0.279422 0.107201
H15   H     H_    0.332468 0.805067 0.297727 0.119154
H16   H     H_    0.437347 0.944240 0.300336 0.110546
H17   H     H_    0.600783 0.923622 0.284440 0.111031
H18   H     H_    0.659594 0.765586 0.264637 0.107412
C57   C     C_R   0.471851 0.340045 0.258257 0.139095
C58   C     C_R   0.522344 0.257560 0.266475 -0.140224
C59   C     C_R   0.480013 0.167957 0.265085 -0.180094
C60   C     C_R   0.386987 0.160129 0.255698 -0.135650
C61   C     C_R   0.336297 0.241918 0.248033 -0.142157
C62   C     C_R   0.378334 0.331803 0.249906 -0.172653
H19   H     H_    0.594829 0.262898 0.271153 0.149281
H20   H     H_    0.519497 0.104722 0.270421 0.126030
H21   H     H_    0.354204 0.090774 0.253892 0.112934
H22   H     H_    0.264589 0.235539 0.239028 0.118721
H23   H     H_    0.338897 0.394576 0.240727 0.117313
C63   C     C_R   0.510803 0.671062 0.732623 0.162208
C64   C     C_R   0.582689 0.732800 0.711954 -0.125116
C65   C     C_R   0.568535 0.829599 0.699886 -0.173957
C66   C     C_R   0.482391 0.864884 0.707111 -0.104331
C67   C     C_R   0.411306 0.804362 0.729892 -0.123465
C68   C     C_R   0.425185 0.707411 0.742494 -0.151240
H24   H     H_    0.650017 0.706265 0.707175 0.132842
H25   H     H_    0.624336 0.877125 0.684768 0.113337
H26   H     H_    0.470701 0.939105 0.695695 0.117072
H27   H     H_    0.346036 0.833297 0.739382 0.112839
H28   H     H_    0.370448 0.661376 0.762422 0.108595
H29   H     H_    0.639962 0.342953 0.823907 0.151966
H30   H     H_    0.663905 0.652107 0.181498 0.153478
H31   H     H_    0.543558 0.381785 0.133539 0.138274
H32   H     H_    0.556219 0.624925 0.863805 0.138104
C69   C     C_R   0.724909 0.651300 0.901691 0.123111
C70   C     C_R   0.690190 0.743034 0.891978 -0.138159
C71   C     C_R   0.730493 0.809239 0.842960 -0.130630
C72   C     C_R   0.804898 0.784539 0.802231 -0.137657
C73   C     C_R   0.839175 0.693546 0.810485 -0.153778
C74   C     C_R   0.799492 0.627296 0.859836 -0.144652
H33   H     H_    0.630296 0.762866 0.920196 0.135956
H34   H     H_    0.703050 0.879290 0.835686 0.120537
H35   H     H_    0.835485 0.835633 0.763813 0.118315
H36   H     H_    0.896513 0.674242 0.778549 0.127386
H37   H     H_    0.827025 0.557052 0.865509 0.122170
C75   C     C_R   0.716815 0.347267 0.099908 0.127611
C76   C     C_R   0.673472 0.257915 0.112265 -0.134785
C77   C     C_R   0.709979 0.190541 0.160433 -0.151011
C78   C     C_R   0.789186 0.211854 0.197668 -0.127763
C79   C     C_R   0.832047 0.300634 0.186798 -0.138975
C80   C     C_R   0.796110 0.368003 0.138294 -0.142620
H38   H     H_    0.610201 0.240844 0.086616 0.137160
H39   H     H_    0.675998 0.122283 0.169764 0.118911
H40   H     H_    0.816986 0.159830 0.235335 0.118338
H41   H     H_    0.893176 0.317326 0.216000 0.125361
H42   H     H_    0.830310 0.436465 0.130443 0.122131
C81   C     C_R   0.665735 0.690945 0.051657 0.105846
C82   C     C_R   0.744312 0.744872 0.065082 -0.161634
C83   C     C_R   0.738397 0.837992 0.088074 -0.154780
C84   C     C_R   0.654284 0.877702 0.097600 -0.115076
C85   C     C_R   0.575853 0.824466 0.084020 -0.127782
C86   C     C_R   0.581357 0.731407 0.060901 -0.181155
H43   H     H_    0.809736 0.714659 0.057896 0.129984
H44   H     H_    0.799016 0.879363 0.098593 0.129076
H45   H     H_    0.649864 0.949667 0.115611 0.120101
H46   H     H_    0.510808 0.855226 0.091634 0.134492
H47   H     H_    0.520253 0.690627 0.050591 0.133388
C87   C     C_R   0.655117 0.307944 0.951520 0.106803
C88   C     C_R   0.731416 0.256264 0.935055 -0.159855
C89   C     C_R   0.721781 0.162326 0.913676 -0.154742
C90   C     C_R   0.636223 0.119438 0.909063 -0.127031
C91   C     C_R   0.560055 0.170419 0.925756 -0.126237
C92   C     C_R   0.569251 0.264458 0.946910 -0.180476
H48   H     H_    0.797959 0.288822 0.938693 0.128169
H49   H     H_    0.780640 0.122717 0.900737 0.129435
H50   H     H_    0.628927 0.046764 0.892427 0.120645
H51   H     H_    0.493874 0.137183 0.921985 0.135822
H52   H     H_    0.509893 0.303461 0.959690 0.134344
H53   H     H_    0.048995 0.639454 0.478647 0.143527
H54   H     H_    0.946657 0.352470 0.492355 0.139551
H55   H     H_    0.934597 0.632376 0.394658 0.133857
H56   H     H_    0.064517 0.353880 0.410340 0.131866
C93   C     C_R   0.206226 0.659791 0.534274 0.164207
C94   C     C_R   0.217481 0.647542 0.609528 -0.126725
C95   C     C_R   0.223622 0.726600 0.652920 -0.138819
C96   C     C_R   0.221451 0.818224 0.621382 -0.098813
C97   C     C_R   0.212061 0.830794 0.546409 -0.137067
C98   C     C_R   0.203688 0.752034 0.502950 -0.192136
H57   H     H_    0.216164 0.576989 0.634941 0.099436
H58   H     H_    0.227728 0.716687 0.711226 0.111477
H59   H     H_    0.225460 0.879481 0.655067 0.107077
H60   H     H_    0.208214 0.901385 0.522189 0.117313
H61   H     H_    0.192373 0.762724 0.445245 0.115907
C99   C     C_R   0.787904 0.340127 0.550289 0.150688
C100  C     C_R   0.775140 0.357734 0.623976 -0.145909
C101  C     C_R   0.759207 0.282272 0.673918 -0.149417
C102  C     C_R   0.753528 0.189034 0.650499 -0.148728
C103  C     C_R   0.764632 0.171103 0.577018 -0.154911
C104  C     C_R   0.782349 0.246290 0.527018 -0.136380
H62   H     H_    0.781296 0.429393 0.643115 0.112441
H63   H     H_    0.752767 0.296117 0.730965 0.125280
H64   H     H_    0.740816 0.130703 0.689294 0.117447
H65   H     H_    0.760445 0.098889 0.558945 0.120797
H66   H     H_    0.793346 0.231424 0.470521 0.120903
C105  C     C_R   0.785961 0.680072 0.454492 0.171098
C106  C     C_R   0.769534 0.733665 0.390558 -0.152669
C107  C     C_R   0.762508 0.832344 0.392423 -0.131473
C108  C     C_R   0.773716 0.878211 0.457838 -0.105937
C109  C     C_R   0.791080 0.825399 0.521675 -0.188274
C110  C     C_R   0.796714 0.726592 0.520175 -0.160814
H67   H     H_    0.766545 0.699114 0.339107 0.114466
H68   H     H_    0.751147 0.873677 0.342852 0.114993
H69   H     H_    0.769329 0.954684 0.459030 0.116615
H70   H     H_    0.800324 0.861005 0.572286 0.121900
H71   H     H_    0.813207 0.686803 0.569546 0.120471
C111  C     C_R   0.220814 0.314700 0.464254 0.157317
C112  C     C_R   0.220358 0.257300 0.403536 -0.176761
C113  C     C_R   0.237057 0.160470 0.411429 -0.162524
C114  C     C_R   0.254441 0.120169 0.479993 -0.118225
C115  C     C_R   0.255857 0.176435 0.540666 -0.132652
C116  C     C_R   0.238358 0.273281 0.533160 -0.098966
H72   H     H_    0.203414 0.287227 0.350629 0.122881
H73   H     H_    0.235600 0.116434 0.364575 0.124774
H74   H     H_    0.267994 0.045566 0.485979 0.114658
H75   H     H_    0.268750 0.144153 0.593511 0.124395
H76   H     H_    0.235726 0.315323 0.581092 0.107224

loop_
_geom_bond_atom_site_label_1
_geom_bond_atom_site_label_2
_geom_bond_distance
_ccdc_geom_bond_type
C99   C104  1.405456 A    
O5    Zn1   1.928099 S    
C57   C58   1.404998 A    
C97   C98   1.395474 A    
C41   H7    1.078718 S    
C17   C19   1.414603 A    
C25   C29   1.391700 A    
C95   C96   1.397959 A    
C73   H36   1.082332 S    
C83   H44   1.082192 S    
O3    C2    1.289985 A    
C79   C80   1.398128 A    
C70   C71   1.397687 A    
C107  C108  1.397249 A    
C81   C82   1.404214 A    
C30   C111  1.483193 S    
C100  C101  1.396272 A    
C106  C107  1.399132 A    
C5    C9    1.406306 A    
C65   H25   1.082101 S    
C77   C78   1.395985 A    
O1    C1    1.296745 A    
C7    C16   1.412010 A    
C77   H39   1.082460 S    
C37   C41   1.403332 A    
C96   C97   1.395151 A    
C69   C70   1.410760 A    
C84   H45   1.082289 S    
C37   C43   1.408650 A    
C54   H16   1.081213 S    
C55   C56   1.398511 A    
C5    C15   1.423169 A    
C63   C68   1.400054 A    
C5    C45   1.495024 S    
C108  H69   1.082508 S    
C72   C73   1.396259 A    
C47   H10   1.081612 S    
C59   H20   1.082320 S    
O7    Zn1   1.901292 S    
C78   H40   1.082348 S    
C38   C44   1.408524 A    
C67   C68   1.398557 A    
C61   H22   1.081861 S    
C101  C102  1.398444 A    
C81   C86   1.405681 A    
C39   N1    1.358514 A    
C76   H38   1.079428 S    
Zn1   N2    1.992625 S    
C88   C89   1.398733 A    
C100  H62   1.083448 S    
C48   C49   1.394974 A    
C115  C116  1.398411 A    
C93   C98   1.404665 A    
O3    Zn1   1.994214 S    
C6    C10   1.404680 A    
C111  C112  1.404912 A    
C35   C39   1.402343 A    
C98   H61   1.083337 S    
C24   C28   1.390033 A    
C57   C62   1.402303 A    
C27   C31   1.417085 A    
C115  H75   1.080032 S    
C96   H59   1.082149 S    
O2    C2    1.289225 A    
C8    C15   1.414894 A    
C79   H41   1.082417 S    
O2    Zn2   1.974049 S    
C53   H15   1.082503 S    
C64   H24   1.083392 S    
C11   H31   1.081384 S    
C23   H53   1.084456 S    
C62   H23   1.083229 S    
C20   C87   1.476264 S    
C29   C32   1.419808 A    
C25   H55   1.085378 S    
C9    H29   1.066344 S    
C6    C16   1.426176 A    
C103  H65   1.082592 S    
C72   H35   1.082341 S    
C43   C44   1.503049 S    
C47   C48   1.395278 A    
C23   C33   1.394498 A    
C66   C67   1.394961 A    
C10   C14   1.400443 A    
C26   C30   1.394987 A    
C24   C34   1.397089 A    
C89   C90   1.398275 A    
O8    Zn2   1.901294 S    
C61   C62   1.398946 A    
C39   H5    1.079243 S    
C53   C54   1.395283 A    
O4    C1    1.285391 A    
C37   H3    1.081701 S    
C112  C113  1.396178 A    
C40   N2    1.356478 A    
C3    C16   1.490798 S    
C48   H11   1.082204 S    
C52   C53   1.397547 A    
Zn2   N1    1.992625 S    
C35   C43   1.405825 A    
C23   C27   1.389947 A    
C94   H57   1.083339 S    
C36   C44   1.405472 A    
C87   C92   1.405851 A    
C86   H47   1.083042 S    
C9    C13   1.401750 A    
C90   H50   1.082500 S    
C105  C106  1.402259 A    
C55   H17   1.082424 S    
C45   C50   1.409370 A    
C85   H46   1.082235 S    
O5    C3    1.288411 A    
C46   H9    1.082848 S    
C35   H1    1.080436 S    
O6    C4    1.292596 A    
C36   C40   1.402799 A    
C67   H27   1.079984 S    
C92   H52   1.083057 S    
C51   C52   1.409901 A    
C25   C34   1.391098 A    
C109  H70   1.082803 S    
C68   H28   1.082629 S    
C108  C109  1.397906 A    
C10   H30   1.071898 S    
C17   C69   1.499873 S    
C103  C104  1.398293 A    
C19   C81   1.476907 S    
C110  H71   1.083763 S    
C63   C64   1.403596 A    
C12   H32   1.079682 S    
C91   H51   1.082254 S    
C33   C34   1.465994 S    
C76   C77   1.397805 A    
C42   N2    1.359482 A    
C54   C55   1.394943 A    
O1    Zn1   1.974051 S    
C89   H49   1.082239 S    
C78   C79   1.396456 A    
C24   H54   1.084243 S    
C66   H26   1.078292 S    
C99   C100  1.403687 A    
C27   C93   1.476385 S    
C87   C88   1.404164 A    
C40   H6    1.077623 S    
C97   H60   1.078572 S    
C38   C42   1.402304 A    
C1    C31   1.478761 S    
C58   H19   1.082872 S    
C30   C31   1.429114 A    
O6    Zn2   1.928097 S    
C17   C22   1.421000 A    
C6    C51   1.494659 S    
C18   C21   1.416403 A    
C56   H18   1.078524 S    
C113  C114  1.394573 A    
C60   H21   1.082017 S    
C51   C56   1.408469 A    
C85   C86   1.398200 A    
C18   C75   1.498071 S    
C28   C99   1.479952 S    
C102  H64   1.082411 S    
C94   C95   1.396271 A    
C83   C84   1.398254 A    
C36   H2    1.081069 S    
C73   C74   1.398167 A    
C91   C92   1.398289 A    
C64   C65   1.395942 A    
C114  H74   1.077713 S    
C4    C15   1.494611 S    
O8    C3    1.301550 A    
C13   C22   1.514597 S    
C8    C12   1.394006 A    
C88   H48   1.083025 S    
C113  H73   1.081894 S    
C14   C21   1.507725 S    
C95   H58   1.081209 S    
C109  C110  1.398571 A    
C19   C21   1.423908 A    
C102  C103  1.397763 A    
C93   C94   1.403020 A    
C105  C110  1.405421 A    
C20   C22   1.427685 A    
C60   C61   1.397654 A    
C116  H76   1.083127 S    
C70   H33   1.079728 S    
C52   H14   1.083156 S    
C41   N1    1.358934 A    
C18   C20   1.413913 A    
C65   C66   1.395360 A    
C82   H43   1.082971 S    
C107  H68   1.081922 S    
C75   C80   1.406149 A    
C46   C47   1.396448 A    
C12   C13   1.404485 A    
C74   H37   1.083292 S    
C45   C46   1.410045 A    
O4    Zn2   1.994216 S    
C114  C115  1.394561 A    
C112  H72   1.081617 S    
O7    C4    1.298297 A    
C49   C50   1.394356 A    
C80   H42   1.083336 S    
C7    C57   1.472447 S    
C84   C85   1.397928 A    
C26   H56   1.084931 S    
C28   C32   1.418149 A    
C69   C74   1.406590 A    
C111  C116  1.406692 A    
C42   H8    1.079579 S    
C38   H4    1.080707 S    
C58   C59   1.396752 A    
C71   H34   1.082558 S    
C2    C32   1.472287 S    
C11   C14   1.403607 A    
C50   H13   1.076586 S    
C49   H12   1.080422 S    
C82   C83   1.398736 A    
C26   C33   1.387904 A    
C8    C63   1.469745 S    
C71   C72   1.395846 A    
C59   C60   1.397054 A    
C90   C91   1.398165 A    
C101  H63   1.081471 S    
C106  H67   1.082510 S    
C29   C105  1.475015 S    
C104  H66   1.083200 S    
C75   C76   1.409886 A    
C7    C11   1.394857 A    
