data_mof_unit_8504.cif
_audit_creation_date              2012-12-10T16:50:18-0500
_audit_creation_method            fapswitch 2.2
_symmetry_space_group_name_H-M    P1
_symmetry_Int_Tables_number       1
_space_group_crystal_system       triclinic
_cell_length_a                    23.549277
_cell_length_b                    8.678428
_cell_length_c                    7.531558
_cell_angle_alpha                 103.759816
_cell_angle_beta                  94.731857
_cell_angle_gamma                 93.290057
_cell_volume                      1485.23746747

loop_
_atom_site_label
_atom_site_type_symbol
_atom_type_description
_atom_site_fract_x
_atom_site_fract_y
_atom_site_fract_z
_atom_type_partial_charge
C1    C     C_R   0.498194 0.199638 0.452658 0.869678
C2    C     C_R   0.501806 0.800362 0.547342 0.869719
C3    C     C_R   0.245229 0.603298 0.647265 -0.038093
C4    C     C_R   0.754775 0.396589 0.352848 -0.038027
C5    C     C_R   0.304773 0.610682 0.644614 -0.093043
C6    C     C_R   0.695228 0.389223 0.355466 -0.093035
C7    C     C_R   0.328986 0.500490 0.505814 -0.176477
C8    C     C_R   0.671013 0.499484 0.494193 -0.176482
C9    C     C_R   0.292697 0.387872 0.371816 0.262810
C10   C     C_R   0.707299 0.612129 0.628164 0.262782
C11   C     C_R   0.233676 0.390969 0.370171 -0.087617
C12   C     C_R   0.766320 0.609013 0.629849 -0.087598
C13   C     C_R   0.209425 0.497180 0.508084 0.207641
C14   C     C_R   0.790576 0.502751 0.491997 0.207570
C15   C     C_2   0.497323 0.030916 0.426939 -0.330118
C16   C     C_2   0.502676 0.969084 0.573062 -0.330144
C17   C     C_R   0.391307 0.499893 0.501647 0.806770
C18   C     C_R   0.608693 0.500097 0.498352 0.806756
C19   C     C_R   0.884518 0.641991 0.518085 0.614080
C20   C     C_R   0.115485 0.357936 0.482004 0.614073
C21   C     C_R   0.876708 0.360742 0.474226 0.596358
C22   C     C_R   0.123294 0.639191 0.525909 0.596358
C23   C     C_R   0.935571 0.354787 0.454208 -0.056394
C24   C     C_R   0.064431 0.645144 0.545925 -0.056392
C25   C     C_R   0.970093 0.500252 0.500107 -0.063236
C26   C     C_R   0.029910 0.499677 0.500021 -0.063237
C27   C     C_R   0.944612 0.646360 0.545717 -0.053164
C28   C     C_R   0.055390 0.353568 0.454399 -0.053169
C29   C     C_R   0.960528 0.209993 0.387375 0.176313
C30   C     C_R   0.039474 0.789938 0.612757 0.176325
C31   C     C_R   0.020330 0.209278 0.385608 -0.114221
C32   C     C_R   0.979671 0.790651 0.614513 -0.114229
Cu1   Cu    Cu3+1 0.506340 0.517380 0.684380 0.997077
Cu2   Cu    Cu3+1 0.493660 0.482620 0.315620 0.997070
H1    H     H_    0.226195 0.683978 0.754856 0.213136
H2    H     H_    0.773813 0.315872 0.245304 0.213199
H3    H     H_    0.206425 0.307910 0.262382 0.212421
H4    H     H_    0.793568 0.692096 0.737623 0.212447
H5    H     H_    0.492256 0.957428 0.287014 0.175198
H6    H     H_    0.507742 0.042573 0.712987 0.175185
N1    N     N_R   0.851886 0.501767 0.494188 -0.471188
N2    N     N_R   0.148115 0.498162 0.505917 -0.471194
N3    N     N_2   0.484110 0.456420 0.038520 -0.236084
N4    N     N_2   0.515890 0.543580 0.961480 -0.236075
O1    O     O_R   0.504120 0.286130 0.619770 -0.608855
O2    O     O_R   0.495880 0.713870 0.380230 -0.608843
O3    O     O_R   0.493410 0.256770 0.308360 -0.595718
O4    O     O_R   0.506590 0.743230 0.691640 -0.595695
O5    O     O_R   0.423230 0.514630 0.655730 -0.620455
O6    O     O_R   0.576770 0.485370 0.344270 -0.620480
O7    O     O_R   0.412530 0.485280 0.344320 -0.513997
O8    O     O_R   0.587470 0.514720 0.655680 -0.514011
O9    O     O_2   0.858806 0.775143 0.508679 -0.440109
O10   O     O_2   0.141199 0.224778 0.491365 -0.440114
O11   O     O_2   0.844673 0.228619 0.480142 -0.440353
O12   O     O_2   0.155331 0.771320 0.520024 -0.440374
Br1   Br    Br    0.913641 0.016034 0.266059 -0.362294
Br2   Br    Br    0.086358 0.983903 0.734064 -0.362328
C33   C     C_2   0.044305 0.059259 0.293794 0.581218
H7    H     H_    0.028015 0.946078 0.314373 0.074541
O13   O     O_2   0.080592 0.060041 0.187173 -0.457846
C34   C     C_2   0.955693 0.940669 0.706321 0.581206
H8    H     H_    0.971990 0.053854 0.685768 0.074548
O14   O     O_2   0.919394 0.939879 0.812904 -0.457837
C35   C     C_2   0.340237 0.738917 0.782390 0.502042
H9    H     H_    0.383712 0.772513 0.761189 0.058317
O15   O     O_2   0.320905 0.810788 0.921205 -0.478548
C36   C     C_2   0.659765 0.260933 0.217747 0.501689
H10   H     H_    0.616250 0.227556 0.238802 0.058429
O16   O     O_2   0.679152 0.188725 0.079156 -0.478454
Br3   Br    Br    0.320655 0.217625 0.195965 -0.362735
Br4   Br    Br    0.679337 0.782418 0.803946 -0.362573
C37   C     C_2   0.433246 0.377635 0.936697 0.772059
H11   H     H_    0.434297 0.267536 0.833382 0.001181
O17   O     O_2   0.387370 0.431215 0.968472 -0.520286
C38   C     C_2   0.566753 0.622362 0.063300 0.772043
H12   H     H_    0.565701 0.732433 0.166634 0.001258
O18   O     O_2   0.612629 0.568808 0.031501 -0.520373

loop_
_geom_bond_atom_site_label_1
_geom_bond_atom_site_label_2
_ccdc_geom_bond_type
N3    C37   S    
C4    H2    S    
Cu1   O1    S    
C37   H11   S    
C17   O7    A    
C18   O8    A    
C2    O2    A    
Cu1   O8    S    
Cu2   O7    S    
C23   C29   A    
C24   C26   A    
C35   O15   D    
Cu1   O5    S    
C15   C16   D    
C11   H3    S    
C31   C33   S    
N4    C38   S    
C34   O14   D    
C36   H10   S    
C7    C17   S    
C1    C15   S    
C2    C16   S    
C3    C13   A    
C19   O9    S    
C6    C36   S    
C33   H7    S    
Cu1   O4    S    
C12   H4    S    
C37   O17   D    
C13   N2    S    
Cu2   O6    S    
C33   O13   D    
C29   Br1   S    
C38   H12   S    
C5    C35   S    
C17   O5    A    
C5    C7    A    
C1    O3    A    
C6    C8    A    
C20   C28   A    
C2    O4    A    
C25   C26   A    
C8    C18   S    
N3    N4    D    
C34   H8    S    
C3    H1    S    
Cu1   Cu2   S    
C9    C11   A    
C15   H5    S    
C10   C12   A    
C16   H6    S    
C14   N1    S    
Cu2   O2    S    
C20   O10   S    
C12   C14   A    
C21   C23   A    
C21   N1    A    
C4    C6    A    
C19   C27   A    
C18   O6    A    
C21   O11   S    
C7    C9    A    
C27   C32   A    
Cu1   N4    S    
C28   C31   A    
Cu2   N3    S    
C9    Br3   S    
C38   O18   D    
C3    C5    A    
C20   N2    A    
C25   C27   A    
C26   C28   A    
C22   O12   S    
C32   C34   S    
C29   C31   A    
C30   C32   A    
C11   C13   A    
C1    O1    A    
C22   N2    A    
C30   Br2   S    
C22   C24   A    
C23   C25   A    
C4    C14   A    
C24   C30   A    
C8    C10   A    
C35   H9    S    
C36   O16   D    
Cu2   O3    S    
C19   N1    A    
C10   Br4   S    
