data_mof_unit_18193.cif
_audit_creation_date              2012-12-10T17:33:04-0500
_audit_creation_method            fapswitch 2.2
_symmetry_space_group_name_H-M    P1
_symmetry_Int_Tables_number       1
_space_group_crystal_system       triclinic
_cell_length_a                    12.362545
_cell_length_b                    13.271443
_cell_length_c                    14.17662
_cell_angle_alpha                 93.5979
_cell_angle_beta                  107.113763
_cell_angle_gamma                 117.198548
_cell_volume                      1923.18630138

loop_
_atom_site_label
_atom_site_type_symbol
_atom_type_description
_atom_site_fract_x
_atom_site_fract_y
_atom_site_fract_z
_atom_type_partial_charge
C1    C     C_R   0.650318 0.714014 0.507648 0.820100
C2    C     C_R   0.183797 0.458953 0.003007 0.150238
C3    C     C_R   0.135144 0.475377 0.078048 0.089023
C4    C     C_R   0.619633 0.518703 0.687619 0.899893
C5    C     C_R   0.295951 0.447798 0.029821 -0.143164
C6    C     C_R   0.361271 0.454407 0.130758 -0.171039
C7    C     C_R   0.197137 0.473113 0.177358 -0.225589
C8    C     C_R   0.142750 0.965060 0.363448 -0.175047
C9    C     C_R   0.248275 0.161991 0.462031 -0.048942
C10   C     C_R   0.722497 0.921889 0.564322 -0.192137
C11   C     C_R   0.808496 0.040189 0.578015 0.216566
C12   C     C_R   0.853577 0.506676 0.922537 0.057174
C13   C     C_R   0.910914 0.073620 0.542572 -0.151524
C14   C     C_R   0.925820 0.989889 0.489035 0.050466
C15   C     C_R   0.827137 0.871583 0.462807 0.073534
C16   C     C_R   0.345026 0.285141 0.484764 0.806991
C17   C     C_R   0.034909 0.020070 0.459556 0.095176
C18   C     C_R   0.035535 0.935647 0.393410 0.166637
C19   C     C_R   0.928338 0.823516 0.356761 -0.215515
C20   C     C_R   0.825070 0.791986 0.390226 -0.161571
C21   C     C_R   0.145062 0.131326 0.496057 -0.241735
C22   C     C_R   0.248440 0.078226 0.396993 -0.179613
C23   C     C_R   0.833941 0.560080 0.000290 0.061567
C24   C     C_R   0.732613 0.836955 0.509104 -0.133523
C25   C     C_R   0.254330 0.697084 0.650066 -0.282887
C26   C     C_R   0.654308 0.338197 0.366800 -0.055686
C27   C     C_R   0.731064 0.298957 0.340024 0.327211
C28   C     C_R   0.380371 0.480801 0.312849 0.794282
C29   C     C_R   0.866583 0.359755 0.390564 -0.279288
C30   C     C_R   0.927095 0.459565 0.469438 -0.071749
C31   C     C_R   0.843606 0.494978 0.495213 0.261935
C32   C     C_R   0.066926 0.525724 0.523439 -0.007163
C33   C     C_R   0.119124 0.626848 0.599766 0.153396
C34   C     C_R   0.961585 0.487067 0.948718 0.075651
C35   C     C_R   0.036503 0.658253 0.625261 -0.272131
C36   C     C_R   0.902254 0.593213 0.575229 -0.172299
C37   C     C_R   0.158627 0.497408 0.505323 -0.000492
C38   C     C_R   0.338415 0.666779 0.626171 0.152667
C39   C     C_R   0.689814 0.532477 0.796589 -0.191760
C40   C     C_R   0.312327 0.468209 0.205102 -0.055758
C41   C     C_R   0.750832 0.606024 0.976494 -0.258836
C42   C     C_R   0.688590 0.602767 0.875944 0.401975
C43   C     C_R   0.764657 0.476306 0.821854 0.042898
C44   C     C_R   0.028658 0.496764 0.052267 0.080489
C45   C     C_R   0.994031 0.536882 0.127338 -0.178968
C46   C     C_R   0.901294 0.571416 0.101567 -0.155061
C47   C     C_R   0.013927 0.472148 0.876275 -0.220439
C48   C     C_R   0.122769 0.457952 0.902949 -0.178083
Cu1   Cu    Cu3+1 0.416420 0.526630 0.522910 0.990181
Cu2   Cu    Cu3+1 0.583580 0.473370 0.477090 0.932804
H1    H     H_    0.883806 0.609151 0.161567 0.130886
H2    H     H_    0.442253 0.723613 0.662040 0.173432
H3    H     H_    0.156656 0.474040 0.234800 0.151596
H4    H     H_    0.076197 0.734477 0.685040 0.167291
H5    H     H_    0.295055 0.776155 0.706831 0.161155
H6    H     H_    0.127109 0.421301 0.449305 0.129636
H7    H     H_    0.549602 0.291571 0.327383 0.169153
H8    H     H_    0.922321 0.327451 0.366663 0.177299
H9    H     H_    0.848149 0.623672 0.602166 0.208702
H10   H     H_    0.449919 0.449336 0.150582 0.165064
H11   H     H_    0.161142 0.448858 0.845301 0.168044
H12   H     H_    0.334846 0.436831 0.973134 0.161222
H13   H     H_    0.742170 0.652023 0.037291 0.189882
H14   H     H_    0.044083 0.552252 0.207576 0.135483
H15   H     H_    0.978464 0.480510 0.799883 0.159226
H16   H     H_    0.717599 0.089469 0.655505 0.216998
H17   H     H_    0.775554 0.175505 0.580258 0.218928
H18   H     H_    0.494125 0.065259 0.284726 0.330463
H19   H     H_    0.668427 0.842878 0.787805 0.361265
H20   H     H_    0.779709 0.395995 0.701422 0.236252
H21   H     H_    0.750193 0.315971 0.789454 0.240309
H22   H     H_    0.327740 0.101085 0.369472 0.155814
H23   H     H_    0.924837 0.759486 0.302841 0.134440
H24   H     H_    0.143466 0.901241 0.312394 0.144602
H25   H     H_    0.153311 0.196463 0.551435 0.150515
H26   H     H_    0.648454 0.896256 0.597970 0.152545
H27   H     H_    0.974825 0.166038 0.555430 0.137520
H28   H     H_    0.742395 0.705376 0.355924 0.173159
N1    N     N_R   0.290690 0.566960 0.557640 -0.185567
N2    N     N_R   0.709100 0.433710 0.442970 -0.228055
N3    N     N_3   0.796771 0.127939 0.631606 -0.588049
N4    N     N_3   0.729368 0.373500 0.751164 -0.571234
O1    O     O_R   0.545970 0.684450 0.528810 -0.570661
O2    O     O_2   0.723443 0.102513 0.271032 -0.277521
O3    O     O_3   0.497627 0.091970 0.221428 -0.511962
O4    O     O_2   0.472643 0.619911 0.817370 -0.300459
O5    O     O_2   0.663661 0.778321 0.952998 -0.280915
O6    O     O_3   0.666228 0.768383 0.770152 -0.572280
O7    O     O_R   0.687130 0.639470 0.490120 -0.611643
O8    O     O_R   0.519670 0.535100 0.660030 -0.500572
O9    O     O_R   0.660830 0.490120 0.621340 -0.599934
O10   O     O_R   0.312870 0.360530 0.509880 -0.590651
O11   O     O_R   0.454030 0.315550 0.471190 -0.586309
O12   O     O_R   0.339170 0.509880 0.378660 -0.591966
O13   O     O_R   0.480330 0.464900 0.339970 -0.591367
O14   O     O_2   0.673606 0.210028 0.147183 -0.229739
S1    S     S_3+6 0.657719 0.173385 0.242618 0.016474
S2    S     S_3+6 0.618794 0.693586 0.855583 -0.009326

loop_
_geom_bond_atom_site_label_1
_geom_bond_atom_site_label_2
_ccdc_geom_bond_type
C27   C29   A    
C41   C42   A    
C19   C20   A    
Cu1   O8    S    
C36   H9    S    
C9    C21   A    
C31   N2    A    
C45   C46   A    
C11   N3    S    
C37   N1    A    
C12   C23   A    
C26   C27   A    
C28   O13   A    
O2    S1    D    
C9    C16   S    
C12   C43   A    
C3    C7    A    
C42   S2    S    
C30   C31   A    
Cu2   O13   S    
C38   H2    S    
C38   N1    A    
C28   C40   S    
C28   O12   A    
C18   C19   A    
Cu1   Cu2   S    
C37   H6    S    
C10   H26   S    
C35   C36   A    
C8    C22   A    
C7    C40   A    
Cu1   O12   S    
H21   N4    S    
C23   C46   A    
C13   C14   A    
C35   H4    S    
H18   O3    S    
C14   C17   A    
O4    S2    D    
C22   H22   S    
C39   C42   A    
C4    O8    A    
C15   C20   A    
C13   H27   S    
C3    C44   A    
C6    H10   S    
C19   H23   S    
C34   C44   A    
C39   C43   A    
C2    C48   A    
C46   H1    S    
C8    C18   A    
Cu1   N1    S    
C29   C30   A    
C25   C38   A    
Cu2   O7    S    
C47   C48   A    
C4    C39   S    
O14   S1    D    
C8    H24   S    
C17   C18   A    
C16   O11   A    
C32   C37   A    
H19   O6    S    
C15   C24   A    
H17   N3    S    
C6    C40   A    
C2    C5    A    
C7    H3    S    
Cu1   O10   S    
C12   C34   A    
C44   C45   A    
C27   S1    S    
C1    O7    A    
C14   C15   A    
O5    S2    D    
C25   H5    S    
Cu2   N2    S    
Cu2   O11   S    
C16   O10   A    
C1    O1    A    
C21   H25   S    
C45   H14   S    
C23   C41   A    
C20   H28   S    
C10   C24   A    
C32   C33   A    
C4    O9    A    
C2    C3    A    
H16   N3    S    
C30   C32   A    
C11   C13   A    
Cu1   O1    S    
C48   H11   S    
C5    C6    A    
C33   C35   A    
C5    H12   S    
H20   N4    S    
C26   H7    S    
C26   N2    A    
O3    S1    S    
C10   C11   A    
Cu2   O9    S    
C29   H8    S    
C1    C24   S    
C9    C22   A    
C43   N4    S    
C41   H13   S    
C31   C36   A    
C34   C47   A    
C47   H15   S    
O6    S2    S    
C25   C33   A    
C17   C21   A    
