data_mof_unit_34948.cif
_audit_creation_date              2013-03-05T16:00:45-0500
_audit_creation_method            fapswitch 2.2
_symmetry_space_group_name_H-M    P1
_symmetry_Int_Tables_number       1
_space_group_crystal_system       triclinic
_cell_length_a                    21.178976
_cell_length_b                    21.328899
_cell_length_c                    14.01862
_cell_angle_alpha                 90.00007
_cell_angle_beta                  89.996437
_cell_angle_gamma                 90.000368
_cell_volume                      6332.55045335

loop_
_atom_site_label
_atom_site_type_symbol
_atom_site_description
_atom_site_fract_x
_atom_site_fract_y
_atom_site_fract_z
_atom_type_partial_charge
O1    O     O_R   0.066090 0.433930 0.580280 -0.565140
O2    O     O_R   0.933910 0.566070 0.419720 -0.599953
O3    O     O_R   0.933910 0.566070 0.580280 -0.565010
O4    O     O_R   0.066090 0.433930 0.419720 -0.599900
O5    O     O_R   0.933910 0.433930 0.419720 -0.595948
O6    O     O_R   0.066090 0.566070 0.580280 -0.556350
O7    O     O_R   0.066090 0.566070 0.419720 -0.595852
O8    O     O_R   0.933910 0.433930 0.580280 -0.556267
O9    O     O_R   0.566090 0.933930 0.580280 -0.595937
O10   O     O_R   0.433910 0.066070 0.419720 -0.556313
O11   O     O_R   0.433910 0.066070 0.580280 -0.595849
O12   O     O_R   0.566090 0.933930 0.419720 -0.556256
O13   O     O_R   0.433910 0.933930 0.419720 -0.565205
O14   O     O_R   0.566090 0.066070 0.580280 -0.599967
O15   O     O_R   0.566090 0.066070 0.419720 -0.565018
O16   O     O_R   0.433910 0.933930 0.580280 -0.599895
C1    C     C_R   0.087193 0.413587 0.500412 0.908266
C2    C     C_R   0.912804 0.586411 0.500416 0.908443
C3    C     C_R   0.912452 0.414255 0.500160 0.913975
C4    C     C_R   0.087540 0.585751 0.500159 0.913679
C5    C     C_R   0.587548 0.914255 0.499840 0.913976
C6    C     C_R   0.412459 0.085751 0.499842 0.913669
C7    C     C_R   0.412808 0.913586 0.499588 0.908290
C8    C     C_R   0.587196 0.086410 0.499584 0.908453
Zn1   Zn    Zn3+2 1.000000 0.500000 0.607200 1.069120
Zn2   Zn    Zn3+2 0.000000 0.500000 0.392800 1.032025
Zn3   Zn    Zn3+2 0.500000 0.000000 0.607200 1.032028
Zn4   Zn    Zn3+2 0.500000 0.000000 0.392800 1.069109
C9    C     C_R   0.137758 0.675671 0.425803 -0.315756
C10   C     C_R   0.862081 0.324491 0.425605 -0.315680
C11   C     C_R   0.856579 0.671238 0.420822 -0.322998
C12   C     C_R   0.143270 0.328614 0.420923 -0.322961
C13   C     C_R   0.643418 0.171240 0.579175 -0.323009
C14   C     C_R   0.356777 0.828569 0.579043 -0.323008
C15   C     C_R   0.362210 0.175641 0.574241 -0.315698
C16   C     C_R   0.637920 0.824491 0.574397 -0.315666
C17   C     C_R   0.136096 0.632801 0.500790 -0.182516
C18   C     C_R   0.863892 0.367205 0.500784 -0.182723
C19   C     C_R   0.864077 0.633818 0.501771 -0.188724
C20   C     C_R   0.135912 0.366174 0.501759 -0.188540
C21   C     C_R   0.635923 0.133818 0.498229 -0.188719
C22   C     C_R   0.364093 0.866169 0.498242 -0.188454
C23   C     C_R   0.363904 0.132803 0.499212 -0.182577
C24   C     C_R   0.636108 0.867204 0.499216 -0.182727
C25   C     C_R   0.179855 0.635759 0.576265 0.436453
C26   C     C_R   0.820261 0.364106 0.576415 0.436588
C27   C     C_R   0.825696 0.642535 0.583139 0.431206
C28   C     C_R   0.174421 0.357587 0.583017 0.430754
C29   C     C_R   0.674307 0.142531 0.416863 0.431205
C30   C     C_R   0.325547 0.857619 0.417017 0.430747
C31   C     C_R   0.320175 0.135795 0.423699 0.436413
C32   C     C_R   0.679738 0.864104 0.423583 0.436588
C33   C     C_R   0.222477 0.685539 0.579681 -0.000045
C34   C     C_R   0.777681 0.314292 0.579829 -0.000118
C35   C     C_R   0.775784 0.685170 0.578565 -0.003835
C36   C     C_R   0.224345 0.314965 0.578397 -0.003738
C37   C     C_R   0.724218 0.185168 0.421438 -0.003830
C38   C     C_R   0.275624 0.814995 0.421647 -0.003716
C39   C     C_R   0.277564 0.185583 0.420282 -0.000040
C40   C     C_R   0.722317 0.814289 0.420169 -0.000121
C41   C     C_R   0.224763 0.728172 0.502689 0.021122
C42   C     C_R   0.775240 0.271822 0.502648 0.021212
C43   C     C_R   0.770346 0.724640 0.498196 0.027234
C44   C     C_R   0.229649 0.275355 0.498159 0.027228
C45   C     C_R   0.729653 0.224641 0.501804 0.027232
C46   C     C_R   0.270361 0.775345 0.501846 0.027226
C47   C     C_R   0.275244 0.228182 0.497316 0.021122
C48   C     C_R   0.724759 0.771821 0.497352 0.021213
C49   C     C_R   0.182446 0.722817 0.425415 0.127538
C50   C     C_R   0.817385 0.277354 0.425191 0.127422
C51   C     C_R   0.811346 0.717960 0.419644 0.126748
C52   C     C_R   0.188503 0.281887 0.419750 0.126799
C53   C     C_R   0.688651 0.217963 0.580353 0.126751
C54   C     C_R   0.311546 0.781839 0.580214 0.126816
C55   C     C_R   0.317522 0.222788 0.574632 0.127507
C56   C     C_R   0.682616 0.777355 0.574811 0.127418
C57   C     C_R   0.263456 0.692864 0.657611 -0.195186
C58   C     C_R   0.736897 0.306772 0.657946 -0.195325
C59   C     C_R   0.732039 0.689869 0.653547 -0.202738
C60   C     C_R   0.268233 0.310417 0.653211 -0.202845
C61   C     C_R   0.767965 0.189864 0.346459 -0.202741
C62   C     C_R   0.231695 0.810487 0.346882 -0.202860
C63   C     C_R   0.236627 0.192948 0.342311 -0.195172
C64   C     C_R   0.763098 0.806767 0.342049 -0.195323
C65   C     C_R   0.814434 0.235607 0.348576 -0.207339
C66   C     C_R   0.185224 0.764746 0.349005 -0.207328
C67   C     C_R   0.192821 0.241351 0.341634 -0.220940
C68   C     C_R   0.806886 0.758349 0.341379 -0.220888
C69   C     C_R   0.307267 0.741264 0.658289 -0.220929
C70   C     C_R   0.693109 0.258354 0.658616 -0.220884
C71   C     C_R   0.685570 0.735611 0.651429 -0.207335
C72   C     C_R   0.314705 0.264678 0.651089 -0.207321
H1    H     H_    0.103940 0.672468 0.367828 0.181682
H2    H     H_    0.895780 0.327811 0.367486 0.181945
H3    H     H_    0.887415 0.665324 0.359653 0.181752
H4    H     H_    0.112323 0.334421 0.359858 0.181561
H5    H     H_    0.612579 0.165328 0.640343 0.181748
H6    H     H_    0.387756 0.834349 0.640078 0.181509
H7    H     H_    0.396000 0.172411 0.632249 0.181741
H8    H     H_    0.604223 0.827813 0.632517 0.181948
H9    H     H_    0.261835 0.661297 0.718098 0.171197
H10   H     H_    0.738660 0.338197 0.718587 0.171151
H11   H     H_    0.733847 0.658610 0.714370 0.187370
H12   H     H_    0.266531 0.341791 0.713912 0.187289
H13   H     H_    0.766160 0.158603 0.285638 0.187365
H14   H     H_    0.233365 0.841893 0.286217 0.187264
H15   H     H_    0.238277 0.161409 0.281793 0.171182
H16   H     H_    0.761334 0.838190 0.281407 0.171147
H17   H     H_    0.847298 0.239075 0.289529 0.144931
H18   H     H_    0.152221 0.761423 0.290116 0.144882
H19   H     H_    0.161496 0.246320 0.280952 0.138208
H20   H     H_    0.838090 0.753256 0.280580 0.138166
H21   H     H_    0.338624 0.746203 0.718939 0.138225
H22   H     H_    0.661902 0.253262 0.719413 0.138170
H23   H     H_    0.652708 0.739080 0.710479 0.144932
H24   H     H_    0.347677 0.261324 0.710015 0.144893
C73   C     C_R   0.944118 0.498187 0.797677 0.648570
C74   C     C_R   0.056050 0.500078 0.202471 0.638622
C75   C     C_R   0.055884 0.501830 0.797664 0.648183
C76   C     C_R   0.943951 0.499925 0.202481 0.638559
C77   C     C_R   0.443950 0.000091 0.797529 0.638621
C78   C     C_R   0.555882 0.998178 0.202323 0.648572
C79   C     C_R   0.556049 0.999915 0.797519 0.638559
C80   C     C_R   0.444117 0.001844 0.202335 0.648127
N1    N     N_R   1.000000 0.500000 0.750030 -0.228842
N2    N     N_R   1.000000 0.500000 0.249970 -0.222021
N3    N     N_R   0.500000 0.000000 0.750030 -0.222021
N4    N     N_R   0.500000 0.000000 0.249970 -0.228826
C81   C     C_R   0.057639 0.501703 0.898606 -0.266640
C82   C     C_R   0.942281 0.500259 0.101486 -0.245825
C83   C     C_R   0.942363 0.498310 0.898619 -0.266696
C84   C     C_R   0.057721 0.499749 0.101475 -0.245793
C85   C     C_R   0.557720 0.000249 0.898514 -0.245824
C86   C     C_R   0.442362 0.001721 0.101393 -0.266623
C87   C     C_R   0.442279 0.999765 0.898525 -0.245800
C88   C     C_R   0.557637 0.998300 0.101381 -0.266698
C89   C     C_R   0.000001 0.500005 0.949399 -0.133216
C90   C     C_R   0.000001 0.500004 0.050737 -0.137849
C91   C     C_R   0.499999 0.000006 0.949262 -0.137853
C92   C     C_R   0.499999 0.000008 0.050601 -0.133200
C93   C     C_R   0.115201 0.503202 0.949677 0.422710
C94   C     C_R   0.884748 0.501014 0.050240 0.445185
C95   C     C_R   0.884802 0.496811 0.949701 0.423066
C96   C     C_R   0.115255 0.498999 0.050216 0.445302
C97   C     C_R   0.615252 0.000991 0.949760 0.445181
C98   C     C_R   0.384801 0.003239 0.050322 0.422668
C99   C     C_R   0.384746 0.999033 0.949783 0.445317
C100  C     C_R   0.615198 0.996789 0.050299 0.423065
O17   O     O_3   0.180738 0.590406 0.646845 -0.579375
C101  C     C_3   0.221046 0.541442 0.617078 -0.138568
H25   H     H_    0.269148 0.558866 0.598848 0.099733
H26   H     H_    0.200430 0.515626 0.555526 0.157022
H27   H     H_    0.226526 0.507752 0.676755 0.248833
O18   O     O_3   0.819446 0.409379 0.647114 -0.579431
C102  C     C_3   0.778920 0.458256 0.617719 -0.139419
H28   H     H_    0.730755 0.440730 0.600215 0.100081
H29   H     H_    0.799127 0.484013 0.555816 0.156587
H30   H     H_    0.773735 0.492035 0.677327 0.249302
O19   O     O_3   0.835218 0.607694 0.665300 -0.567854
C103  C     C_3   0.869745 0.644578 0.730964 -0.203423
H31   H     H_    0.844710 0.688719 0.749708 0.121282
H32   H     H_    0.917640 0.655803 0.703213 0.148213
H33   H     H_    0.875617 0.617628 0.797994 0.202780
O20   O     O_3   0.165006 0.392539 0.665102 -0.568231
C104  C     C_3   0.130652 0.355704 0.731059 -0.202951
H34   H     H_    0.155719 0.311564 0.749711 0.121139
H35   H     H_    0.082672 0.344480 0.703634 0.148317
H36   H     H_    0.124982 0.382696 0.798099 0.203162
O21   O     O_3   0.664788 0.107686 0.334706 -0.567873
C105  C     C_3   0.630264 0.144565 0.269033 -0.203440
H37   H     H_    0.655301 0.188706 0.250286 0.121285
H38   H     H_    0.582369 0.155792 0.296777 0.148226
H39   H     H_    0.624397 0.117611 0.202006 0.202780
O22   O     O_3   0.334922 0.892611 0.334963 -0.568353
C106  C     C_3   0.369224 0.855803 0.268910 -0.202978
H40   H     H_    0.344160 0.811653 0.250293 0.121094
H41   H     H_    0.417235 0.844597 0.296222 0.148406
H42   H     H_    0.374813 0.882808 0.201869 0.203299
O23   O     O_3   0.319301 0.090460 0.353092 -0.579412
C107  C     C_3   0.278970 0.041500 0.382805 -0.138319
H43   H     H_    0.230879 0.058935 0.401074 0.099636
H44   H     H_    0.299580 0.015641 0.444317 0.157153
H45   H     H_    0.273464 0.007846 0.323087 0.248807
O24   O     O_3   0.680554 0.909376 0.352886 -0.579416
C108  C     C_3   0.721082 0.958252 0.382282 -0.139389
H46   H     H_    0.769245 0.940724 0.399794 0.100071
H47   H     H_    0.700873 0.984012 0.444182 0.156588
H48   H     H_    0.726273 0.992029 0.322674 0.249293
F1    F     F_    0.890297 0.496961 0.745950 -0.570670
F2    F     F_    0.110075 0.500949 0.254384 -0.610780
F3    F     F_    0.109705 0.503102 0.745923 -0.570539
F4    F     F_    0.889926 0.499054 0.254404 -0.610794
F5    F     F_    0.389926 0.000970 0.745616 -0.610779
F6    F     F_    0.609703 0.996946 0.254050 -0.570666
F7    F     F_    0.610074 0.999033 0.745596 -0.610797
F8    F     F_    0.390296 0.003126 0.254075 -0.570612
O25   O     O_3   0.172277 0.504715 0.901742 -0.563670
C109  C     C_3   0.192882 0.567519 0.896775 -0.161242
H49   H     H_    0.203014 0.586719 0.968956 0.151802
H50   H     H_    0.157916 0.597712 0.859218 0.174019
H51   H     H_    0.237433 0.569092 0.855234 0.173624
O26   O     O_3   0.827614 0.502636 0.097953 -0.551520
C110  C     C_3   0.807175 0.565510 0.102719 -0.185745
H52   H     H_    0.797643 0.584856 0.030422 0.150976
H53   H     H_    0.841981 0.595527 0.140953 0.146202
H54   H     H_    0.762314 0.567192 0.143473 0.186217
O27   O     O_3   0.827725 0.495283 0.901779 -0.563495
C111  C     C_3   0.807126 0.432476 0.896849 -0.161958
H55   H     H_    0.797018 0.413283 0.969043 0.151939
H56   H     H_    0.842086 0.402285 0.859271 0.174153
H57   H     H_    0.762562 0.430890 0.855349 0.173548
O28   O     O_3   0.172389 0.497379 0.097919 -0.551518
C112  C     C_3   0.192832 0.434506 0.102676 -0.185782
H58   H     H_    0.202367 0.415164 0.030376 0.150910
H59   H     H_    0.158028 0.404485 0.140912 0.146275
H60   H     H_    0.237692 0.432826 0.143424 0.186215
O29   O     O_3   0.672387 0.002601 0.902046 -0.551523
C113  C     C_3   0.692841 0.065470 0.897281 -0.185743
H61   H     H_    0.702377 0.084814 0.969578 0.150979
H62   H     H_    0.658042 0.095495 0.859047 0.146209
H63   H     H_    0.737702 0.067142 0.856526 0.186214
O30   O     O_3   0.327725 0.004778 0.098255 -0.563741
C114  C     C_3   0.307151 0.067591 0.103221 -0.161366
H64   H     H_    0.297060 0.086805 0.031042 0.151800
H65   H     H_    0.342115 0.097760 0.140817 0.174111
H66   H     H_    0.262586 0.069185 0.144719 0.173577
O31   O     O_3   0.327611 0.997433 0.902080 -0.551515
C115  C     C_3   0.307140 0.934569 0.897334 -0.185761
H67   H     H_    0.297596 0.915236 0.969637 0.150889
H68   H     H_    0.341932 0.904531 0.859104 0.146298
H69   H     H_    0.262281 0.932904 0.856584 0.186215
O32   O     O_3   0.672274 0.995250 0.098221 -0.563493
C116  C     C_3   0.692859 0.932438 0.103152 -0.161946
H70   H     H_    0.702961 0.913241 0.030958 0.151931
H71   H     H_    0.657892 0.902255 0.140733 0.174146
H72   H     H_    0.737424 0.930844 0.144651 0.173551

loop_
_geom_bond_atom_site_label_1
_geom_bond_atom_site_label_2
_geom_bond_distance
_ccdc_geom_bond_type
C84   C96   1.414646 A    
C63   C67   1.388041 A    
C110  H52   1.112759 S    
C104  H34   1.112033 S    
C8    C21   1.444904 S    
O5    Zn2   2.021729 S    
C58   H10   1.083196 S    
C40   C64   1.403892 A    
O21   C105  1.414585 S    
C57   H9    1.083278 S    
C114  H64   1.112419 S    
C14   C22   1.396490 A    
C88   C92   1.413627 A    
C79   F7    1.356187 S    
C97   C100  1.412260 A    
C97   O29   1.383007 S    
C115  H68   1.113830 S    
C113  H61   1.112758 S    
C114  H66   1.109214 S    
C45   C53   1.409534 A    
C12   C52   1.382493 A    
C27   O19   1.385470 S    
C112  H58   1.112758 S    
O10   C6    1.282229 A    
C87   C91   1.414364 A    
C110  H53   1.113830 S    
C10   C18   1.393631 A    
O7    Zn2   2.021758 S    
C93   O25   1.383379 S    
C32   C40   1.394422 A    
C79   C85   1.416274 A    
C76   C82   1.416274 A    
C94   O26   1.383006 S    
C54   C69   1.398240 A    
C27   C35   1.395882 A    
O20   C104  1.414736 S    
C66   H18   1.084063 S    
C75   F3    1.351330 S    
C53   C70   1.398143 A    
C77   N3    1.361049 A    
C65   H17   1.083987 S    
C38   C62   1.404804 A    
C86   C92   1.413632 A    
C98   O30   1.383375 S    
C15   H7    1.085470 S    
C108  H47   1.112647 S    
O6    Zn1   2.021727 S    
C102  H29   1.112644 S    
C105  H37   1.112021 S    
O10   Zn4   2.021740 S    
C46   C54   1.409648 A    
C29   C37   1.395877 A    
O24   C108  1.411851 S    
O13   C7    1.281228 A    
O3    C2    1.281233 A    
C20   C28   1.412949 A    
Zn2   N2    2.002281 S    
O14   C8    1.291388 A    
O31   C115  1.410739 S    
Zn1   N1    2.002279 S    
O22   C106  1.414731 S    
C16   C56   1.380907 A    
C39   C47   1.412130 A    
C68   H20   1.083946 S    
Zn3   N3    2.002279 S    
C41   C46   1.394645 A    
C38   C46   1.411240 A    
C95   O27   1.383378 S    
O19   C103  1.414585 S    
C62   H14   1.083138 S    
C71   H23   1.083988 S    
C111  H55   1.112501 S    
C101  H27   1.108930 S    
C35   C43   1.411168 A    
C73   N1    1.359518 A    
C36   C44   1.411238 A    
O13   Zn4   2.021729 S    
C109  H49   1.112501 S    
C100  O32   1.383379 S    
O14   Zn3   2.021727 S    
C15   C23   1.393696 A    
C116  H70   1.112502 S    
C59   C71   1.386118 A    
C107  H45   1.108919 S    
C80   N4    1.359532 A    
C24   C32   1.407938 A    
O16   Zn3   2.021761 S    
C44   C52   1.409649 A    
C25   C33   1.394441 A    
C104  H35   1.112545 S    
C102  H30   1.108771 S    
O1    Zn1   2.021740 S    
O8    Zn1   2.021761 S    
C42   C50   1.410521 A    
C59   H11   1.083060 S    
O25   C109  1.410552 S    
C33   C41   1.412141 A    
C78   F6    1.351269 S    
C31   O23   1.383845 S    
C77   F5    1.356187 S    
C115  H67   1.112758 S    
C10   C50   1.380903 A    
C107  H44   1.112814 S    
C106  H42   1.108614 S    
C9    C49   1.380941 A    
C112  H59   1.113833 S    
C31   C39   1.394427 A    
C86   C98   1.414169 A    
C110  H54   1.109203 S    
C61   H13   1.083059 S    
O8    C3    1.282268 A    
O26   C110  1.410743 S    
O27   C111  1.410554 S    
C30   C38   1.395914 A    
C103  H33   1.108538 S    
C64   C68   1.388026 A    
O3    Zn1   2.021773 S    
C74   C84   1.416283 A    
C106  H41   1.112519 S    
C93   C96   1.412270 A    
C37   C45   1.411169 A    
C99   O31   1.383005 S    
C115  H69   1.109202 S    
C108  H48   1.108767 S    
C34   C42   1.412049 A    
O29   C113  1.410744 S    
C62   C66   1.386129 A    
O12   C5    1.282272 A    
C58   C70   1.388024 A    
C51   C68   1.398143 A    
C1    C20   1.444894 S    
C103  H32   1.112447 S    
C60   C72   1.386135 A    
C33   C57   1.404016 A    
C2    C19   1.444916 S    
C44   C47   1.394639 A    
C83   C89   1.413628 A    
C3    C18   1.436952 S    
C75   C81   1.415565 A    
C5    C24   1.436966 S    
C35   C59   1.404697 A    
C116  H72   1.109275 S    
C113  H62   1.113830 S    
C106  H40   1.112042 S    
C60   H12   1.083141 S    
C69   H21   1.084029 S    
O11   Zn3   2.021773 S    
C57   C69   1.388049 A    
C26   C34   1.394420 A    
C109  H51   1.109271 S    
C47   C55   1.410630 A    
C81   C89   1.413635 A    
C16   H8    1.085409 S    
C7    C22   1.444879 S    
C48   C56   1.410521 A    
C77   C87   1.416282 A    
C116  H71   1.113715 S    
C78   C88   1.415550 A    
O18   C102  1.411852 S    
C88   C100  1.414171 A    
C76   N2    1.361039 A    
C73   F1    1.351273 S    
C55   C72   1.396643 A    
C22   C30   1.412928 A    
C28   O20   1.385511 S    
O4    C1    1.291387 A    
C75   N1    1.359533 A    
C26   O18   1.383815 S    
C13   C53   1.382440 A    
O15   C8    1.281230 A    
C12   H4    1.085277 S    
C14   C54   1.382507 A    
C85   C91   1.414371 A    
C104  H36   1.108639 S    
C87   C99   1.414639 A    
C12   C20   1.396494 A    
C101  H26   1.112831 S    
C15   C55   1.380948 A    
C85   C97   1.414629 A    
C17   C25   1.408013 A    
C82   C90   1.414372 A    
C29   O21   1.385471 S    
C79   N3    1.361038 A    
C96   O28   1.383008 S    
C52   C67   1.398235 A    
C83   C95   1.414172 A    
C107  H43   1.114108 S    
O9    Zn3   2.021740 S    
C113  H63   1.109201 S    
C19   C27   1.412920 A    
C98   C99   1.412267 A    
C112  H60   1.109203 S    
C41   C49   1.410633 A    
C28   C36   1.395911 A    
C43   C48   1.394611 A    
C42   C45   1.394605 A    
C101  H25   1.114121 S    
C82   C94   1.414630 A    
C32   O24   1.383809 S    
C39   C63   1.404015 A    
O2    C2    1.291392 A    
C36   C60   1.404805 A    
O2    Zn2   2.021740 S    
O4    Zn2   2.021773 S    
C91   C92   1.420623 A    
C114  H65   1.113648 S    
O5    C3    1.286149 A    
O16   C7    1.291378 A    
C21   C29   1.412916 A    
O6    C4    1.282217 A    
C89   C90   1.420625 A    
O11   C6    1.286170 A    
O1    C1    1.281227 A    
C72   H24   1.084064 S    
C80   C86   1.415561 A    
C30   O22   1.385504 S    
C13   C21   1.396420 A    
C103  H31   1.112019 S    
C76   F4    1.356188 S    
C10   H2    1.085409 S    
O17   C101  1.411919 S    
C67   H19   1.084031 S    
C9    H1    1.085473 S    
C4    C17   1.436894 S    
C74   F2    1.356187 S    
O9    C5    1.286152 A    
C108  H46   1.113801 S    
C73   C83   1.415547 A    
C105  H38   1.112442 S    
C23   C31   1.408017 A    
C111  H57   1.109277 S    
C11   H3    1.085206 S    
C11   C51   1.382443 A    
O32   C116  1.410552 S    
C14   H6    1.085278 S    
C63   H15   1.083276 S    
C25   O17   1.383850 S    
C70   H22   1.083946 S    
C78   N4    1.359518 A    
O30   C114  1.410542 S    
C80   F8    1.351313 S    
C37   C61   1.404698 A    
C18   C26   1.407937 A    
C16   C24   1.393633 A    
C56   C71   1.396535 A    
O23   C107  1.411926 S    
O15   Zn4   2.021758 S    
C64   H16   1.083196 S    
C81   C93   1.414171 A    
O28   C112  1.410745 S    
C40   C48   1.412047 A    
C111  H56   1.113714 S    
O7    C4    1.286166 A    
C9    C17   1.393682 A    
C102  H28   1.113794 S    
C11   C19   1.396426 A    
C94   C95   1.412261 A    
C109  H50   1.113719 S    
C74   N2    1.361051 A    
C13   H5    1.085204 S    
O12   Zn4   2.021773 S    
C50   C65   1.396534 A    
C84   C90   1.414366 A    
C43   C51   1.409536 A    
C6    C23   1.436926 S    
C61   C65   1.386115 A    
C49   C66   1.396640 A    
Zn4   N4    2.002281 S    
C34   C58   1.403890 A    
C105  H39   1.108535 S    
