data_mof_unit_46754.cif
_audit_creation_date              2012-12-10T21:00:45-0500
_audit_creation_method            fapswitch 2.2
_symmetry_space_group_name_H-M    P1
_symmetry_Int_Tables_number       1
_space_group_crystal_system       triclinic
_cell_length_a                    18.140321
_cell_length_b                    18.18434
_cell_length_c                    18.323778
_cell_angle_alpha                 119.918001
_cell_angle_beta                  89.912817
_cell_angle_gamma                 120.044977
_cell_volume                      4279.69945116

loop_
_atom_site_label
_atom_site_type_symbol
_atom_type_description
_atom_site_fract_x
_atom_site_fract_y
_atom_site_fract_z
_atom_type_partial_charge
C1    C     C_R   0.109933 0.220067 0.609885 0.804740
C2    C     C_R   0.890293 0.779909 0.390169 0.791495
C3    C     C_3   0.983864 0.430937 0.414035 -0.131445
C4    C     C_3   0.016178 0.569137 0.585997 -0.136178
C5    C     C_3   0.445215 0.965982 0.924938 -0.168974
C6    C     C_3   0.554724 0.033997 0.075059 -0.168700
C7    C     C_3   0.549667 0.038049 0.957709 -0.183438
C8    C     C_3   0.450265 0.961930 0.042283 -0.183694
C9    C     C_3   0.549331 0.102484 0.052508 0.058707
C10   C     C_3   0.450621 0.897502 0.947489 0.059567
C11   C     C_3   0.445549 0.031847 0.020455 -0.141292
C12   C     C_3   0.554398 0.968139 0.979541 -0.141762
C13   C     C_3   0.413721 0.441307 0.448837 -0.142464
C14   C     C_3   0.586387 0.558795 0.551282 -0.142671
C15   C     C_3   0.474038 0.402253 0.440114 -0.168484
C16   C     C_3   0.526065 0.597843 0.560018 -0.169280
C17   C     C_3   0.550936 0.500114 0.449537 0.069279
C18   C     C_3   0.449151 0.499969 0.550567 0.069622
C19   C     C_3   0.491604 0.539269 0.457522 -0.196531
C20   C     C_3   0.508512 0.460852 0.542625 -0.192904
C21   C     C_R   0.089897 0.169169 0.838638 -0.231258
C22   C     C_R   0.937973 0.853706 0.166024 -0.238645
C23   C     C_R   0.392950 0.781173 0.888312 0.755204
C24   C     C_R   0.607042 0.218822 0.111686 0.757203
C25   C     C_R   0.085489 0.123813 0.748684 0.615229
C26   C     C_R   0.932571 0.890784 0.252697 0.592713
C27   C     C_R   0.016019 0.098282 0.686618 0.039655
C28   C     C_R   0.989690 0.901848 0.315153 0.046560
C29   C     C_R   0.949845 0.113704 0.714160 -0.243863
C30   C     C_R   0.048351 0.872061 0.289450 -0.219618
C31   C     C_R   0.953443 0.155904 0.803091 -0.135296
C32   C     C_R   0.051980 0.833857 0.202888 -0.133192
C33   C     C_R   0.023474 0.183847 0.865268 -0.200765
C34   C     C_R   0.997239 0.825218 0.141430 -0.199387
C35   C     C_R   0.957142 0.943456 0.535533 -0.256779
C36   C     C_R   0.043387 0.056462 0.464780 -0.214855
C37   C     C_R   0.947613 0.892208 0.444898 -0.058099
C38   C     C_R   0.053119 0.107737 0.555427 -0.050657
C39   C     C_R   0.991737 0.949333 0.408990 0.049587
C40   C     C_R   0.009719 0.050604 0.591572 0.055527
C41   C     C_R   0.636492 0.605687 0.794767 -0.121303
C42   C     C_R   0.364986 0.391945 0.205224 -0.116796
C43   C     C_R   0.590156 0.553182 0.832665 -0.124228
C44   C     C_R   0.413250 0.445713 0.168884 -0.119097
C45   C     C_R   0.111619 0.501493 0.890429 0.788310
C46   C     C_R   0.888038 0.498161 0.109241 0.792828
C47   C     C_R   0.593480 0.609129 0.921409 0.157467
C48   C     C_R   0.405903 0.390750 0.078573 0.158771
C49   C     C_R   0.644164 0.717942 0.971915 -0.144512
C50   C     C_R   0.348811 0.281705 0.024932 -0.148382
C51   C     C_R   0.690062 0.770069 0.933617 -0.139658
C52   C     C_R   0.301030 0.228316 0.061685 -0.153770
C53   C     C_R   0.686131 0.713967 0.845070 -0.102211
C54   C     C_R   0.309247 0.283401 0.151811 -0.101653
C55   C     C_R   0.593234 0.555169 0.019519 -0.276800
C56   C     C_R   0.406822 0.446031 0.981498 -0.249858
C57   C     C_R   0.550410 0.501721 0.057681 -0.044429
C58   C     C_R   0.449617 0.499229 0.943196 -0.043833
C59   C     C_R   0.456082 0.447016 0.039257 -0.020855
C60   C     C_R   0.543880 0.553951 0.961646 -0.018176
C61   C     C_R   0.186473 0.827549 0.004652 -0.113512
C62   C     C_R   0.811471 0.171301 0.994594 -0.118244
C63   C     C_R   0.153999 0.748918 0.017982 -0.137010
C64   C     C_R   0.843526 0.250316 0.981823 -0.134991
C65   C     C_R   0.066130 0.657940 0.967124 0.150405
C66   C     C_R   0.932125 0.340241 0.031081 0.154300
C67   C     C_R   0.392360 0.500086 0.607731 0.766938
C68   C     C_R   0.607652 0.499928 0.392288 0.765584
C69   C     C_R   0.010940 0.646929 0.903538 -0.145973
C70   C     C_R   0.988414 0.349782 0.092488 -0.152966
C71   C     C_R   0.043820 0.725604 0.890199 -0.149502
C72   C     C_R   0.955939 0.270760 0.105313 -0.148313
C73   C     C_R   0.131531 0.815802 0.940671 -0.105314
C74   C     C_R   0.867525 0.181622 0.056441 -0.100929
C75   C     C_R   0.974436 0.568029 0.030761 -0.273868
C76   C     C_R   0.023402 0.429828 0.967070 -0.270936
C77   C     C_R   0.942756 0.495112 0.050992 -0.051334
C78   C     C_R   0.055822 0.503465 0.947621 -0.049257
C79   C     C_R   0.966425 0.423754 0.017431 -0.011187
C80   C     C_R   0.031760 0.574441 0.980787 -0.010989
C81   C     C_R   0.393949 0.498970 0.887633 0.801627
C82   C     C_R   0.606049 0.501251 0.112578 0.791814
C83   C     C_R   0.108938 0.500247 0.607773 0.769675
C84   C     C_R   0.891076 0.499772 0.392231 0.770421
C85   C     C_3   0.078352 0.526673 0.483394 -0.181590
C86   C     C_3   0.921690 0.473402 0.516637 -0.183314
C87   C     C_3   0.042526 0.595166 0.517433 -0.180311
C88   C     C_3   0.957513 0.404909 0.482598 -0.174373
C89   C     C_3   0.948850 0.499464 0.448916 0.057957
C90   C     C_3   0.051188 0.500602 0.551110 0.058825
H1    H     H_    0.076636 0.673289 0.530904 0.126886
H2    H     H_    0.923395 0.326791 0.469136 0.135362
H3    H     H_    0.026672 0.217655 0.934327 0.159740
H4    H     H_    0.001119 0.797026 0.074785 0.164281
H5    H     H_    0.144893 0.193336 0.887935 0.138938
H6    H     H_    0.897425 0.848547 0.118110 0.142121
H7    H     H_    0.895459 0.092810 0.666637 0.144287
H8    H     H_    0.092262 0.880091 0.336987 0.136966
H9    H     H_    0.902214 0.167611 0.823945 0.145070
H10   H     H_    0.097954 0.811898 0.183714 0.140631
H11   H     H_    0.923069 0.900051 0.563367 0.165236
H12   H     H_    0.077770 0.099878 0.437028 0.171285
H13   H     H_    0.721667 0.754372 0.815475 0.115946
H14   H     H_    0.272142 0.242024 0.180186 0.118679
H15   H     H_    0.634077 0.562546 0.726484 0.114721
H16   H     H_    0.370441 0.434301 0.274661 0.115030
H17   H     H_    0.551543 0.469244 0.793038 0.107372
H18   H     H_    0.456307 0.529823 0.210851 0.097642
H19   H     H_    0.647204 0.762032 0.040398 0.113813
H20   H     H_    0.341815 0.238278 0.954967 0.127242
H21   H     H_    0.143522 0.548599 0.470575 0.126850
H22   H     H_    0.856521 0.451479 0.529459 0.127388
H23   H     H_    0.728570 0.853919 0.972530 0.119711
H24   H     H_    0.257538 0.144266 0.020272 0.118219
H25   H     H_    0.665601 0.596444 0.032880 0.172344
H26   H     H_    0.334433 0.404748 0.968039 0.176466
H27   H     H_    0.156875 0.876660 0.930324 0.111618
H28   H     H_    0.842506 0.120445 0.066328 0.115335
H29   H     H_    0.254176 0.897592 0.043889 0.116092
H30   H     H_    0.743277 0.101991 0.956489 0.115734
H31   H     H_    0.197134 0.758603 0.067555 0.102096
H32   H     H_    0.799571 0.241646 0.933794 0.102681
H33   H     H_    0.942940 0.577308 0.864081 0.121232
H34   H     H_    0.057034 0.418485 0.130577 0.121112
H35   H     H_    0.001317 0.716663 0.840752 0.121498
H36   H     H_    0.999332 0.278568 0.153058 0.124956
H37   H     H_    0.955630 0.621834 0.055104 0.182146
H38   H     H_    0.041484 0.375327 0.941959 0.181614
H39   H     H_    0.969967 0.374154 0.342678 0.143100
H40   H     H_    0.030078 0.625921 0.657354 0.139666
H41   H     H_    0.590686 0.070422 0.923182 0.119135
H42   H     H_    0.409129 0.929543 0.076749 0.119577
H43   H     H_    0.399698 0.937001 0.862560 0.125641
H44   H     H_    0.600239 0.062972 0.137436 0.127665
H45   H     H_    0.400927 0.058637 0.037617 0.135647
H46   H     H_    0.599011 0.941335 0.962379 0.134576
H47   H     H_    0.453705 0.322088 0.389890 0.130260
H48   H     H_    0.546394 0.678005 0.610248 0.128859
H49   H     H_    0.342037 0.393078 0.407464 0.138551
H50   H     H_    0.658068 0.607023 0.592662 0.136710
H51   H     H_    0.486411 0.572353 0.422304 0.118362
H52   H     H_    0.513857 0.428028 0.578048 0.120969
O1    O     O_3   0.251620 0.500000 0.748430 -0.482931
O2    O     O_3   0.748380 0.500000 0.251570 -0.477048
O3    O     O_R   0.134680 0.560740 0.864590 -0.632294
O4    O     O_R   0.865320 0.439260 0.135410 -0.632099
O5    O     O_R   0.306670 0.439270 0.571150 -0.649245
O6    O     O_R   0.693330 0.560730 0.428850 -0.650327
O7    O     O_R   0.135450 0.268370 0.694460 -0.627814
O8    O     O_R   0.864550 0.731630 0.305540 -0.652030
O9    O     O_R   0.429670 0.731610 0.863510 -0.641749
O10   O     O_R   0.570330 0.268390 0.136490 -0.640071
O11   O     O_R   0.134680 0.268390 0.572240 -0.650006
O12   O     O_R   0.865320 0.731610 0.427760 -0.649224
O13   O     O_R   0.306670 0.731630 0.863510 -0.635056
O14   O     O_R   0.693330 0.268370 0.136490 -0.634420
O15   O     O_R   0.135450 0.439270 0.865360 -0.645506
O16   O     O_R   0.864550 0.560730 0.134640 -0.641962
O17   O     O_R   0.429670 0.560710 0.692610 -0.636997
O18   O     O_R   0.570330 0.439290 0.307390 -0.637809
O19   O     O_R   0.308540 0.439240 0.865360 -0.644894
O20   O     O_R   0.691460 0.560760 0.134640 -0.667614
O21   O     O_R   0.133580 0.439310 0.571150 -0.640357
O22   O     O_R   0.866420 0.560690 0.428850 -0.643899
O23   O     O_R   0.430770 0.560690 0.864590 -0.636928
O24   O     O_R   0.569230 0.439310 0.135410 -0.632122
O25   O     O_R   0.133580 0.560760 0.692610 -0.644060
O26   O     O_R   0.866420 0.439240 0.307390 -0.642688
Zn1   Zn    Zn3+2 0.207400 0.586780 0.791530 0.969834
Zn2   Zn    Zn3+2 0.792600 0.413220 0.208470 0.973718
Zn3   Zn    Zn3+2 0.208510 0.413230 0.792630 0.980812
Zn4   Zn    Zn3+2 0.791490 0.586770 0.207370 0.949617
Zn5   Zn    Zn3+2 0.383150 0.586740 0.791530 0.969727
Zn6   Zn    Zn3+2 0.616850 0.413260 0.208470 0.968951
Zn7   Zn    Zn3+2 0.207400 0.413250 0.618010 0.961290
Zn8   Zn    Zn3+2 0.792600 0.586750 0.381990 0.950028
O27   O     O_3   0.152391 0.111876 0.721990 -0.608131
C91   C     C_3   0.146217 0.034104 0.726889 -0.378187
H53   H     H_    0.077020 0.960527 0.689175 0.161265
H54   H     H_    0.167229 0.060925 0.797316 0.156894
H55   H     H_    0.193039 0.016835 0.695894 0.200710
O28   O     O_3   0.877779 0.924642 0.279524 -0.623179
C92   C     C_3   0.786498 0.839273 0.232340 -0.332947
H56   H     H_    0.770564 0.775929 0.239249 0.191922
H57   H     H_    0.768159 0.809321 0.160786 0.153381
H58   H     H_    0.743605 0.865540 0.261002 0.186088

loop_
_geom_bond_atom_site_label_1
_geom_bond_atom_site_label_2
_ccdc_geom_bond_type
C2    O8    A    
C38   C40   A    
C63   C65   A    
O9    Zn5   S    
C87   H1    S    
C61   H29   S    
C76   C79   A    
O1    Zn7   S    
O21   Zn7   S    
C6    C9    S    
C91   H53   S    
O17   Zn5   S    
O25   Zn1   S    
C4    C87   S    
C66   C70   A    
C65   C69   A    
C5    H43   S    
C66   C79   S    
C51   H23   S    
C41   H15   S    
C13   C18   S    
C45   O3    A    
C13   H49   S    
C54   H14   S    
C35   C37   A    
C76   C78   A    
C5    C11   S    
C23   O13   A    
C92   H57   S    
C6    C12   S    
O5    Zn7   S    
C57   C59   A    
C21   C33   A    
C69   H33   S    
C58   C60   A    
C46   O16   A    
O2    Zn2   S    
C50   H20   S    
C27   C29   A    
C36   H12   S    
C83   O21   A    
C69   C71   A    
O28   C92   S    
C62   C64   A    
C24   O10   A    
C47   C60   S    
O8    Zn4   S    
C88   H2    S    
C49   C51   A    
C8    H42   S    
C50   C52   A    
C31   C33   A    
C1    O7    A    
C45   C78   S    
C31   H9    S    
C75   C80   A    
C62   H30   S    
C68   O6    A    
C9    C11   S    
O10   Zn6   S    
C85   C87   S    
C2    O12   A    
C65   C80   S    
C3    H39   S    
C55   C60   A    
C41   C43   A    
C14   C17   S    
C7    C12   S    
C42   C44   A    
C74   H28   S    
C47   C49   A    
C63   H31   S    
C52   C54   A    
C4    C90   S    
O12   Zn8   S    
C44   H18   S    
C15   C20   S    
C22   C34   A    
O3    Zn1   S    
O24   Zn6   S    
C73   H27   S    
C13   C19   S    
C86   C88   S    
C20   H52   S    
C45   O15   A    
O1    Zn1   S    
C72   C74   A    
C92   H58   S    
C71   C73   A    
C6    C8    S    
C82   O20   A    
C28   C39   S    
C85   H21   S    
C18   C67   S    
C83   O25   A    
C32   H10   S    
C72   H36   S    
C51   C53   A    
C64   C66   A    
C86   H22   S    
C92   H56   S    
C84   O26   A    
C14   C20   S    
C42   H16   S    
O13   Zn1   S    
C91   H54   S    
C6    H44   S    
C13   C15   S    
C8    C11   S    
C27   C40   S    
C29   C31   A    
C62   C74   A    
O2    Zn8   S    
C61   C63   A    
C56   H26   S    
C77   C79   A    
C16   C18   S    
C43   H17   S    
C67   O17   A    
C1    O11   A    
C48   C50   A    
C75   C77   A    
C41   C53   A    
C10   C12   S    
C1    C38   S    
C24   O14   A    
C26   O28   S    
C8    C10   S    
C88   C90   S    
O4    Zn2   S    
C22   H6    S    
C12   H46   S    
C76   H38   S    
C14   C16   S    
C3    C85   S    
C58   C81   S    
C84   C89   S    
O1    Zn5   S    
C36   C38   A    
O6    Zn8   S    
C78   C80   A    
C4    C86   S    
C48   C59   S    
C5    C7    S    
C30   H8    S    
C82   O24   A    
C7    C9    S    
C83   C90   S    
C21   C25   A    
C17   C68   S    
O18   Zn6   S    
C3    C88   S    
O7    Zn3   S    
C81   O19   A    
O14   Zn2   S    
C36   C39   A    
C16   H48   S    
C11   H45   S    
C34   H4    S    
C14   H50   S    
C35   H11   S    
C86   C89   S    
C33   H3    S    
C46   C77   S    
C4    H40   S    
C85   C90   S    
C9    C24   S    
C15   C17   S    
C52   H24   S    
C10   C23   S    
C25   C27   A    
C21   H5    S    
O2    Zn4   S    
C26   C28   A    
C56   C59   A    
C29   H7    S    
C3    C89   S    
C61   C73   A    
C55   C57   A    
C35   C40   A    
C49   H19   S    
O1    Zn3   S    
C28   C30   A    
C37   C39   A    
C42   C54   A    
C30   C32   A    
C2    C37   S    
O16   Zn4   S    
C84   O22   A    
C46   O4    A    
C55   H25   S    
C53   H13   S    
C16   C19   S    
C64   H32   S    
O26   Zn2   S    
O23   Zn5   S    
C17   C19   S    
C56   C58   A    
O22   Zn8   S    
C18   C20   S    
O11   Zn7   S    
C91   H55   S    
C23   O9    A    
O19   Zn3   S    
C70   H34   S    
C5    C10   S    
O20   Zn4   S    
C19   H51   S    
O27   C91   S    
C22   C26   A    
C67   O5    A    
O2    Zn6   S    
C87   C89   S    
C81   O23   A    
C57   C82   S    
C71   H35   S    
C70   C72   A    
C68   O18   A    
C25   O27   S    
C43   C47   A    
O15   Zn3   S    
C7    H41   S    
C44   C48   A    
C32   C34   A    
C15   H47   S    
C75   H37   S    
