data_mof_unit_41694.cif
_audit_creation_date              2012-12-10T17:27:56-0500
_audit_creation_method            fapswitch 2.2
_symmetry_space_group_name_H-M    P1
_symmetry_Int_Tables_number       1
_space_group_crystal_system       triclinic
_cell_length_a                    10.650105
_cell_length_b                    12.028212
_cell_length_c                    12.881821
_cell_angle_alpha                 93.355915
_cell_angle_beta                  90.907795
_cell_angle_gamma                 86.130674
_cell_volume                      1643.4814031

loop_
_atom_site_label
_atom_site_type_symbol
_atom_type_description
_atom_site_fract_x
_atom_site_fract_y
_atom_site_fract_z
_atom_type_partial_charge
C1    C     C_R   0.499532 0.522146 0.700125 0.898027
C2    C     C_R   0.561905 0.629114 0.858334 -0.277884
C3    C     C_R   0.474471 0.449473 0.868235 -0.266745
C4    C     C_R   0.739403 0.499690 0.496965 0.854502
C5    C     C_R   0.495266 0.453166 0.973825 0.085382
C6    C     C_R   0.551224 0.545757 0.024576 0.168558
C7    C     C_R   0.568502 0.546577 0.132555 -0.006481
C8    C     C_R   0.468634 0.368491 0.135266 0.084021
C9    C     C_R   0.460256 0.363931 0.028159 -0.258672
C10   C     C_R   0.386211 0.953774 0.396131 0.047083
C11   C     C_R   0.396550 0.837433 0.408699 -0.033099
C12   C     C_R   0.937142 0.428361 0.413855 0.094256
C13   C     C_R   0.549599 0.857875 0.542107 -0.020619
C14   C     C_R   0.543211 0.974569 0.533218 -0.111079
C15   C     C_R   0.460211 0.023916 0.460016 -0.001460
C16   C     C_R   0.506324 0.477806 0.299642 0.874191
C17   C     C_R   0.453364 0.141946 0.453858 -0.093372
C18   C     C_R   0.602264 0.159045 0.592191 0.129185
C19   C     C_R   0.617351 0.042603 0.596951 0.450811
C20   C     C_R   0.260458 0.499298 0.495837 0.873513
C21   C     C_R   0.875082 0.361591 0.337608 -0.192169
C22   C     C_R   0.943649 0.292173 0.265613 -0.130204
C23   C     C_R   0.871368 0.499202 0.488620 -0.098353
C24   C     C_R   0.074306 0.289661 0.266741 -0.128178
C25   C     C_R   0.136967 0.357552 0.339168 -0.188655
C26   C     C_R   0.068960 0.427091 0.414185 0.096435
C27   C     C_3   0.818162 0.977842 0.628571 -0.324047
C28   C     C_R   0.931641 0.571678 0.557814 -0.217181
C29   C     C_R   0.059900 0.571355 0.557516 -0.208937
C30   C     C_R   0.127943 0.498232 0.488339 -0.102207
C31   C     C_R   0.516136 0.462986 0.187925 -0.122675
C32   C     C_R   0.508943 0.535939 0.810857 -0.071197
C33   C     C_R   0.584043 0.635125 0.965178 0.115866
H1    H     H_    0.879232 0.626643 0.613870 0.151406
H2    H     H_    0.126817 0.235811 0.210352 0.129230
H3    H     H_    0.238207 0.355933 0.334652 0.159951
H4    H     H_    0.106619 0.626235 0.613279 0.156394
H5    H     H_    0.604210 0.260162 0.723920 0.212267
H6    H     H_    0.719143 0.282310 0.635934 0.225763
H7    H     H_    0.247994 0.937996 0.284615 0.177416
H8    H     H_    0.355074 0.029137 0.261604 0.172802
H9    H     H_    0.857073 0.057459 0.608814 0.179730
H10   H     H_    0.817922 0.918671 0.558784 0.154797
H11   H     H_    0.881913 0.939563 0.687441 0.194154
H12   H     H_    0.421268 0.292130 0.987767 0.146634
H13   H     H_    0.585428 0.690787 0.222419 0.225184
H14   H     H_    0.705558 0.590082 0.237583 0.188293
H15   H     H_    0.333484 0.265786 0.166453 0.164860
H16   H     H_    0.481134 0.205697 0.167137 0.183218
H17   H     H_    0.723704 0.741109 0.976964 0.192048
H18   H     H_    0.577367 0.802317 0.995069 0.184612
H19   H     H_    0.589193 0.695996 0.812322 0.166505
H20   H     H_    0.431746 0.378173 0.830129 0.158110
H21   H     H_    0.391058 0.181905 0.398067 0.174225
H22   H     H_    0.340687 0.782486 0.360412 0.133535
H23   H     H_    0.612397 0.818552 0.598010 0.168276
H24   H     H_    0.773682 0.363322 0.331577 0.154423
H25   H     H_    0.895165 0.240967 0.208116 0.139052
N1    N     N_R   0.523130 0.207800 0.519340 -0.141099
N2    N     N_R   0.476870 0.792180 0.480660 -0.119451
N3    N     N_3   0.667961 0.223627 0.669441 -0.423337
N4    N     N_3   0.300863 0.000166 0.320048 -0.469985
N5    N     N_3   0.643747 0.628383 0.184533 -0.426322
N6    N     N_3   0.426042 0.277974 0.189977 -0.449926
N7    N     N_3   0.637017 0.732810 0.011723 -0.442688
O1    O     O_R   0.506170 0.421690 0.658830 -0.637759
O2    O     O_R   0.491330 0.609320 0.646410 -0.620558
O3    O     O_R   0.690660 0.406170 0.506210 -0.640269
O4    O     O_R   0.675810 0.593790 0.493790 -0.622725
O5    O     O_R   0.508670 0.390680 0.353590 -0.603927
O6    O     O_R   0.493830 0.578310 0.341170 -0.639389
O7    O     O_R   0.324190 0.406210 0.506210 -0.616301
O8    O     O_R   0.309340 0.593830 0.493790 -0.614211
O9    O     O_3   0.696955 0.996602 0.671321 -0.607500
Zn1   Zn    Zn3+2 0.509910 0.374720 0.508290 0.930602
Zn2   Zn    Zn3+2 0.490090 0.625280 0.491710 0.933344

loop_
_geom_bond_atom_site_label_1
_geom_bond_atom_site_label_2
_ccdc_geom_bond_type
C9    H12   S    
C33   N7    S    
C13   N2    A    
C20   C30   S    
O3    Zn1   S    
C21   H24   S    
C12   C23   A    
C28   C29   A    
C10   C15   A    
H14   N5    S    
C5    C6    A    
H15   N6    S    
H7    N4    S    
O4    Zn2   S    
C2    C32   A    
C18   C19   A    
H18   N7    S    
C27   H11   S    
C8    C9    A    
C27   O9    S    
C13   H23   S    
C28   H1    S    
H16   N6    S    
C13   C14   A    
C10   N4    S    
C16   O6    A    
H8    N4    S    
O7    Zn1   S    
C4    O4    A    
H6    N3    S    
C24   H2    S    
C7    C31   A    
C16   O5    A    
C24   C25   A    
C4    O3    A    
C4    C23   S    
C25   C26   A    
C12   C21   A    
N2    Zn2   S    
C1    C32   S    
C12   C26   A    
C16   C31   S    
C5    C9    A    
C29   C30   A    
C1    O1    A    
C23   C28   A    
C7    N5    S    
C2    H19   S    
C8    N6    S    
C2    C33   A    
C17   N1    A    
C26   C30   A    
O8    Zn2   S    
C22   C24   A    
C11   N2    A    
N1    Zn1   S    
C11   H22   S    
C15   C17   A    
C8    C31   A    
C14   C19   A    
C19   O9    S    
C3    C5    A    
C22   H25   S    
C18   N3    S    
C6    C7    A    
C6    C33   A    
H13   N5    S    
H5    N3    S    
C3    H20   S    
C27   H9    S    
O6    Zn2   S    
O1    Zn1   S    
C1    O2    A    
C20   O8    A    
C3    C32   A    
H17   N7    S    
C10   C11   A    
C25   H3    S    
C27   H10   S    
C18   N1    A    
C29   H4    S    
O5    Zn1   S    
C14   C15   A    
C20   O7    A    
O2    Zn2   S    
C21   C22   A    
C17   H21   S    
