data_mof_unit_47274.cif
_audit_creation_date              2012-12-11T15:41:28-0500
_audit_creation_method            fapswitch 2.2
_symmetry_space_group_name_H-M    P1
_symmetry_Int_Tables_number       1
_space_group_crystal_system       triclinic
_cell_length_a                    14.9214
_cell_length_b                    15.122198
_cell_length_c                    14.955122
_cell_angle_alpha                 109.235662
_cell_angle_beta                  109.509833
_cell_angle_gamma                 110.257674
_cell_volume                      2578.48426444

loop_
_atom_site_label
_atom_site_type_symbol
_atom_type_description
_atom_site_fract_x
_atom_site_fract_y
_atom_site_fract_z
_atom_type_partial_charge
C1    C     C_R   0.250268 0.063570 0.972883 -0.127488
C2    C     C_R   0.576275 0.737409 0.317749 -0.093564
C3    C     C_R   0.479493 0.264257 0.715087 -0.130368
C4    C     C_R   0.531899 0.668035 0.206142 -0.189302
C5    C     C_R   0.410178 0.295894 0.743181 0.172750
C6    C     C_R   0.599209 0.680932 0.159052 0.177710
C7    C     C_R   0.294791 0.226337 0.676627 -0.208561
C8    C     C_R   0.709818 0.767856 0.224087 -0.140028
C9    C     C_R   0.249555 0.126918 0.582907 -0.111602
C10   C     C_R   0.753121 0.838325 0.334976 -0.149866
C11   C     C_R   0.319067 0.095960 0.555569 -0.090031
C12   C     C_R   0.804449 0.004975 0.095642 -0.144617
C13   C     C_R   0.687257 0.821336 0.382358 -0.093311
C14   C     C_R   0.457028 0.489997 0.847727 0.154791
C15   C     C_R   0.575119 0.503044 0.050052 0.165453
C16   C     C_R   0.747680 0.221331 0.314261 -0.122848
C17   C     C_R   0.194787 0.789013 0.699328 -0.141268
C18   C     C_R   0.504905 0.583195 0.950175 -0.037357
C19   C     C_R   0.515490 0.404926 0.948503 -0.051781
C20   C     C_R   0.561194 0.589229 0.050949 -0.079165
C21   C     C_R   0.459142 0.397808 0.847392 -0.090607
C22   C     C_R   0.863993 0.524500 0.432875 -0.180813
C23   C     C_R   0.772609 0.323264 0.326159 0.042139
C24   C     C_R   0.965899 0.518044 0.622211 -0.174313
C25   C     C_R   0.957456 0.618308 0.525534 -0.167699
C26   C     C_R   0.873384 0.424464 0.529274 -0.168861
C27   C     C_R   0.015215 0.612312 0.616844 0.142564
C28   C     C_R   0.830712 0.424744 0.430564 0.143398
C29   C     C_R   0.603104 0.963514 0.578339 -0.193896
C30   C     C_R   0.402693 0.849524 0.381870 -0.203596
C31   C     C_R   0.602039 0.970692 0.488959 -0.199200
C32   C     C_R   0.403366 0.846461 0.473573 -0.187041
C33   C     C_R   0.501395 0.918503 0.391850 0.161513
C34   C     C_R   0.131395 0.695610 0.697514 0.046348
C35   C     C_R   0.502791 0.912116 0.574526 0.154943
C36   C     C_R   0.126056 0.054101 0.154322 -0.167319
C37   C     C_R   0.038029 0.156937 0.059314 -0.175054
C38   C     C_R   0.035600 0.057525 0.157399 -0.172123
C39   C     C_R   0.128784 0.153855 0.056672 -0.172501
C40   C     C_R   0.407856 0.910084 0.211077 -0.147791
C41   C     C_R   0.592954 0.026427 0.779415 -0.132213
C42   C     C_R   0.984360 0.099084 0.099869 0.143416
C43   C     C_R   0.164909 0.091609 0.093163 0.144944
C44   C     C_R   0.594634 0.298534 0.997751 -0.157663
C45   C     C_R   0.499971 0.944491 0.306543 0.058454
C46   C     C_R   0.406586 0.685286 0.939910 -0.149043
C47   C     C_R   0.591836 0.001106 0.302109 -0.131603
C48   C     C_R   0.407638 0.934195 0.685575 -0.111656
C49   C     C_R   0.411188 0.214258 0.914125 -0.138911
C50   C     C_R   0.591318 0.780217 0.021648 -0.113110
C51   C     C_R   0.747911 0.313334 0.223635 -0.143225
C52   C     C_R   0.196391 0.698937 0.790790 -0.136687
C53   C     C_R   0.250365 0.972676 0.064892 -0.125946
C54   C     C_R   0.805276 0.095761 0.005100 -0.139865
C55   C     C_R   0.224127 0.048360 0.049555 0.039606
C56   C     C_R   0.500714 0.949755 0.676095 0.034336
C57   C     C_R   0.869019 0.066839 0.066929 0.051142
C58   C     C_3   0.408945 0.491764 0.741338 -0.364195
C59   C     C_3   0.500912 0.552690 0.723640 -0.860014
C60   C     C_3   0.659998 0.520399 0.156675 -0.316866
C61   C     C_3   0.774942 0.565721 0.167585 -0.945859
C62   C     C_R   0.506431 0.308168 0.950294 0.100646
C63   C     C_R   0.499213 0.677101 0.955347 0.097550
C64   C     C_R   0.433948 0.164571 0.621622 -0.101958
H1    H     H_    0.238873 0.114676 0.939739 0.089054
H2    H     H_    0.838953 0.903498 0.385105 0.104011
H3    H     H_    0.825176 0.528643 0.360691 0.120616
H4    H     H_    0.003830 0.511868 0.693541 0.103712
H5    H     H_    0.988808 0.691882 0.521209 0.108825
H6    H     H_    0.844256 0.350455 0.533099 0.104163
H7    H     H_    0.682315 0.009652 0.653002 0.109463
H8    H     H_    0.324086 0.804344 0.306508 0.111292
H9    H     H_    0.680253 0.022799 0.499495 0.107305
H10   H     H_    0.325133 0.800936 0.467058 0.112187
H11   H     H_    0.157134 0.012181 0.190286 0.106319
H12   H     H_    0.831624 0.981602 0.155901 0.085046
H13   H     H_    0.004737 0.195680 0.020091 0.104631
H14   H     H_    0.757785 0.198974 0.376731 0.088593
H15   H     H_    0.165912 0.819939 0.647227 0.086334
H16   H     H_    0.000586 0.017994 0.195669 0.103845
H17   H     H_    0.162270 0.190885 0.015987 0.105069
H18   H     H_    0.322909 0.851145 0.179727 0.084270
H19   H     H_    0.679120 0.059453 0.803579 0.093084
H20   H     H_    0.679213 0.348351 0.020336 0.120553
H21   H     H_    0.321575 0.619831 0.896765 0.091857
H22   H     H_    0.676137 0.024036 0.352994 0.090624
H23   H     H_    0.487673 0.140132 0.600798 0.120086
H24   H     H_    0.321793 0.882226 0.621447 0.091038
H25   H     H_    0.326862 0.189907 0.861095 0.099133
H26   H     H_    0.676434 0.801758 0.050224 0.096593
H27   H     H_    0.759112 0.376443 0.202958 0.105128
H28   H     H_    0.169738 0.648298 0.824090 0.083177
H29   H     H_    0.239399 0.940449 0.117297 0.092014
H30   H     H_    0.833906 0.156032 0.982111 0.082974
H31   H     H_    0.283968 0.018631 0.483493 0.100559
H32   H     H_    0.722840 0.872594 0.469512 0.110871
H33   H     H_    0.556567 0.638838 0.791368 0.257557
H34   H     H_    0.525460 0.724219 0.354818 0.129038
H35   H     H_    0.550260 0.512386 0.719322 0.254884
H36   H     H_    0.463969 0.551871 0.645235 0.248126
H37   H     H_    0.352192 0.408809 0.668523 0.197046
H38   H     H_    0.357872 0.530348 0.742163 0.186527
H39   H     H_    0.769202 0.531793 0.086457 0.255874
H40   H     H_    0.817879 0.655532 0.205717 0.257572
H41   H     H_    0.827973 0.546563 0.220026 0.237707
H42   H     H_    0.666506 0.577178 0.231103 0.194448
H43   H     H_    0.635204 0.446203 0.163384 0.176670
H44   H     H_    0.568653 0.316174 0.766494 0.103424
H45   H     H_    0.447412 0.600070 0.158139 0.110393
H46   H     H_    0.240282 0.248631 0.698214 0.105814
H47   H     H_    0.764087 0.777828 0.190423 0.096149
H48   H     H_    0.160602 0.073436 0.531970 0.101814
N1    N     N_R   0.293810 0.002730 0.945950 -0.039930
N2    N     N_R   0.443210 0.997250 0.791090 -0.036876
N3    N     N_R   0.443180 0.152110 0.945950 -0.040413
N4    N     N_R   0.556820 0.847890 0.054050 -0.039844
N5    N     N_R   0.706170 0.208950 0.152090 -0.038438
N6    N     N_R   0.293830 0.791050 0.847910 -0.037210
N7    N     N_R   0.293800 0.945910 0.002760 -0.040445
N8    N     N_R   0.706200 0.054090 0.997240 -0.037884
N9    N     N_R   0.706190 0.997270 0.054050 -0.038735
N10   N     N_R   0.706160 0.152130 0.208910 -0.039524
N11   N     N_R   0.293840 0.847870 0.791090 -0.038410
N12   N     N_R   0.443140 0.945920 0.152090 -0.037345
N13   N     N_R   0.556860 0.054080 0.847910 -0.039712
N14   N     N_R   0.556830 0.208940 0.002760 -0.043155
N15   N     N_R   0.443170 0.791060 0.997240 -0.038825
N16   N     N_R   0.556790 0.002750 0.208910 -0.038706
Ni1   Ni    Ni4+2 0.369690 0.999990 0.869700 0.216691
Ni2   Ni    Ni4+2 0.630310 0.000010 0.130300 0.215517
Ni3   Ni    Ni4+2 0.369670 0.869670 0.000000 0.210148
Ni4   Ni    Ni4+2 0.630330 0.130330 0.000000 0.206708

loop_
_geom_bond_atom_site_label_1
_geom_bond_atom_site_label_2
_ccdc_geom_bond_type
C4    H45   S    
C50   C63   A    
C54   N8    A    
C33   C45   S    
C15   C60   S    
C14   C18   A    
C53   C55   A    
C24   C27   A    
N9    Ni2   S    
C47   N16   A    
C3    C64   A    
C15   C19   A    
C44   N14   A    
N3    N14   A    
N1    Ni1   S    
C6    C8    A    
C14   C21   A    
C61   H39   S    
C24   C26   A    
C38   C42   A    
C32   H10   S    
C18   C63   S    
C31   H9    S    
C19   C62   S    
C41   H19   S    
C17   H15   S    
C59   H35   S    
C18   C20   A    
C48   C56   A    
C37   C42   A    
C2    C13   A    
N5    Ni4   S    
C16   N10   A    
N6    Ni3   S    
C51   H27   S    
N1    N7    A    
C23   C51   A    
C17   N11   A    
C12   N9    A    
N4    N15   A    
C1    H1    S    
C31   C33   A    
C58   H38   S    
C61   H41   S    
C64   H23   S    
C50   N4    A    
N12   N16   A    
C46   H21   S    
C9    H48   S    
C45   C47   A    
C22   C28   A    
N11   Ni1   S    
C59   H36   S    
C40   C45   A    
C1    N1    A    
C14   C58   S    
C42   C57   S    
C50   H26   S    
C10   H2    S    
C27   C34   S    
C15   C20   A    
C40   N12   A    
C13   H32   S    
C53   H29   S    
C47   H22   S    
C40   H18   S    
C46   N15   A    
C61   H40   S    
C39   H17   S    
C4    C6    A    
C11   C64   A    
C8    H47   S    
C5    C7    A    
N2    N13   A    
C39   C43   A    
C44   H20   S    
C58   C59   S    
C37   H13   S    
C22   C25   A    
N12   Ni3   S    
C60   C61   S    
C2    C4    A    
N5    N10   A    
C32   C35   A    
C41   C56   A    
C36   H11   S    
C41   N13   A    
N7    Ni3   S    
N14   Ni4   S    
C48   H24   S    
N4    Ni2   S    
C58   H37   S    
C23   C28   S    
C9    C11   A    
C60   H43   S    
C12   C57   A    
C43   C55   S    
C49   N3    A    
C16   C23   A    
C12   H12   S    
C59   H33   S    
N2    Ni1   S    
C52   H28   S    
C25   H5    S    
C17   C34   A    
C60   H42   S    
N8    N9    A    
C48   N2    A    
N3    Ni1   S    
C11   H31   S    
C7    C9    A    
C49   C62   A    
C30   C33   A    
C19   C21   A    
C35   C56   S    
N8    Ni4   S    
C34   C52   A    
C8    C10   A    
C49   H25   S    
C3    C5    A    
C10   C13   A    
N16   Ni2   S    
C30   H8    S    
C53   N7    A    
C3    H44   S    
C25   C27   A    
C6    C20   S    
C29   C35   A    
C26   C28   A    
C7    H46   S    
C46   C63   A    
C44   C62   A    
C36   C38   A    
C1    C55   A    
C29   C31   A    
C30   C32   A    
N13   Ni4   S    
C38   H16   S    
C26   H6    S    
C51   N5    A    
C16   H14   S    
N6    N11   A    
N15   Ni3   S    
C22   H3    S    
C54   H30   S    
C24   H4    S    
C5    C21   S    
C2    H34   S    
C37   C39   A    
C36   C43   A    
N10   Ni2   S    
C29   H7    S    
C54   C57   A    
C52   N6    A    
