data_mof_unit_57842.cif
_audit_creation_date              2012-12-11T16:07:16-0500
_audit_creation_method            fapswitch 2.2
_symmetry_space_group_name_H-M    P1
_symmetry_Int_Tables_number       1
_space_group_crystal_system       triclinic
_cell_length_a                    17.107596
_cell_length_b                    17.108534
_cell_length_c                    17.232829
_cell_angle_alpha                 89.892107
_cell_angle_beta                  89.999695
_cell_angle_gamma                 89.999522
_cell_volume                      5043.79691262

loop_
_atom_site_label
_atom_site_type_symbol
_atom_type_description
_atom_site_fract_x
_atom_site_fract_y
_atom_site_fract_z
_atom_type_partial_charge
C1    C     C_R   0.393711 0.697983 0.607077 -0.151651
C2    C     C_R   0.577767 0.669880 0.646153 -0.142472
C3    C     C_3   0.806785 0.222060 0.634271 -0.150302
C4    C     C_3   0.749701 0.721195 0.279336 -0.136961
C5    C     C_3   0.250178 0.278958 0.720730 -0.137025
C6    C     C_3   0.777440 0.193364 0.365121 -0.150098
C7    C     C_3   0.223021 0.807018 0.634974 -0.150377
C8    C     C_3   0.722880 0.693104 0.865051 -0.150279
C9    C     C_3   0.276926 0.307058 0.134989 -0.150415
C10   C     C_3   0.750284 0.221171 0.779327 -0.136968
C11   C     C_3   0.249781 0.778910 0.220709 -0.136999
C12   C     C_3   0.306888 0.277813 0.865704 -0.150432
C13   C     C_R   0.697992 0.394749 0.392211 -0.141090
C14   C     C_3   0.693234 0.722040 0.134267 -0.150324
C15   C     C_3   0.220855 0.749391 0.779686 -0.137496
C16   C     C_3   0.778685 0.250234 0.220104 -0.137270
C17   C     C_R   0.301989 0.605260 0.607732 -0.140935
C18   C     C_R   0.577549 0.670680 0.354301 -0.129794
C19   C     C_R   0.422445 0.329311 0.645692 -0.129738
C20   C     C_R   0.301888 0.606426 0.393195 -0.151624
C21   C     C_R   0.698110 0.393578 0.606813 -0.151621
C22   C     C_R   0.922253 0.169861 0.146164 -0.142361
C23   C     C_R   0.077775 0.830117 0.853849 -0.142506
C24   C     C_R   0.198013 0.105260 0.107724 -0.140920
C25   C     C_R   0.606266 0.302029 0.392874 -0.151536
C26   C     C_R   0.801996 0.894745 0.892249 -0.140986
C27   C     C_R   0.077552 0.829316 0.145696 -0.129751
C28   C     C_R   0.922452 0.170679 0.854301 -0.129788
C29   C     C_R   0.801890 0.893580 0.106814 -0.151628
C30   C     C_R   0.198113 0.106428 0.893200 -0.151642
C31   C     C_R   0.893719 0.802021 0.892906 -0.151614
C32   C     C_R   0.106292 0.197985 0.107069 -0.151684
C33   C     C_R   0.170819 0.922376 0.854462 -0.129940
C34   C     C_R   0.829214 0.077607 0.145561 -0.130052
C35   C     C_R   0.105417 0.198129 0.892537 -0.141044
C36   C     C_R   0.670812 0.577622 0.645543 -0.129967
C37   C     C_R   0.894585 0.801876 0.107479 -0.141091
C38   C     C_R   0.830269 0.077670 0.853684 -0.142138
C39   C     C_R   0.169733 0.922327 0.146315 -0.142165
C40   C     C_3   0.321486 0.322980 0.250951 0.189515
C41   C     C_3   0.678493 0.677017 0.749048 0.189481
C42   C     C_3   0.265906 0.735484 0.335656 0.189200
C43   C     C_3   0.734092 0.264525 0.664363 0.189204
C44   C     C_3   0.676663 0.678118 0.250480 0.189344
C45   C     C_3   0.323336 0.321873 0.749525 0.189370
C46   C     C_3   0.735165 0.266233 0.334957 0.189124
C47   C     C_R   0.329172 0.422370 0.354468 -0.129932
C48   C     C_3   0.264794 0.733780 0.664938 0.189138
C49   C     C_3   0.764810 0.766228 0.835024 0.189129
C50   C     C_3   0.235208 0.233779 0.164927 0.189144
C51   C     C_3   0.823340 0.178118 0.750478 0.189332
C52   C     C_3   0.176661 0.821878 0.249525 0.189356
C53   C     C_3   0.234094 0.235487 0.835666 0.189206
C54   C     C_3   0.765909 0.764527 0.164366 0.189213
C55   C     C_3   0.178503 0.822988 0.750946 0.189505
C56   C     C_3   0.821538 0.177008 0.249049 0.189445
C57   C     C_R   0.317747 0.681332 0.626120 0.037308
C58   C     C_R   0.605416 0.301875 0.607478 -0.141079
C59   C     C_R   0.682214 0.318687 0.373780 0.037343
C60   C     C_R   0.636634 0.635641 0.689222 0.028083
C61   C     C_R   0.363334 0.364337 0.310798 0.028118
C62   C     C_R   0.681567 0.317543 0.625635 0.038057
C63   C     C_R   0.318430 0.682464 0.374382 0.038061
C64   C     C_R   0.364640 0.363649 0.689505 0.028709
C65   C     C_R   0.635347 0.636334 0.310484 0.028693
C66   C     C_R   0.863415 0.135604 0.189254 0.028035
C67   C     C_R   0.136651 0.864350 0.810788 0.028102
C68   C     C_R   0.182257 0.181334 0.126106 0.037313
C69   C     C_R   0.394583 0.698128 0.392531 -0.141061
C70   C     C_R   0.817761 0.818675 0.873846 0.037318
C71   C     C_R   0.135353 0.863657 0.189511 0.028706
C72   C     C_R   0.864654 0.136333 0.810483 0.028703
C73   C     C_R   0.818433 0.817545 0.125637 0.038069
C74   C     C_R   0.181571 0.182467 0.874391 0.038061
C75   C     C_3   0.751719 0.648919 0.791989 -0.165294
C76   C     C_3   0.248123 0.351014 0.208199 -0.165312
C77   C     C_3   0.706068 0.191563 0.707719 -0.168042
C78   C     C_3   0.293907 0.808503 0.292380 -0.168066
C79   C     C_3   0.279803 0.352141 0.820944 -0.160516
C80   C     C_R   0.330262 0.422324 0.646313 -0.142180
C81   C     C_3   0.720368 0.647821 0.179175 -0.160583
C82   C     C_3   0.294279 0.777001 0.736787 -0.154298
C83   C     C_3   0.705585 0.222481 0.263459 -0.154606
C84   C     C_3   0.808264 0.294207 0.291864 -0.168007
C85   C     C_3   0.191367 0.705948 0.707569 -0.168116
C86   C     C_3   0.648394 0.750957 0.206944 -0.165910
C87   C     C_3   0.351557 0.248926 0.792914 -0.165924
C88   C     C_3   0.221986 0.705905 0.264237 -0.154579
C89   C     C_3   0.778103 0.294121 0.735722 -0.154637
C90   C     C_3   0.351657 0.280147 0.179094 -0.160658
C91   C     C_R   0.669734 0.577672 0.353685 -0.142107
C92   C     C_3   0.648287 0.720079 0.820756 -0.160718
C93   C     C_3   0.308669 0.205961 0.207508 -0.168135
C94   C     C_3   0.691485 0.794106 0.792250 -0.168073
C95   C     C_3   0.148426 0.748966 0.292963 -0.165917
C96   C     C_3   0.851600 0.250972 0.706963 -0.165911
C97   C     C_3   0.721875 0.794129 0.235709 -0.154647
C98   C     C_3   0.277959 0.205918 0.764209 -0.154552
C99   C     C_3   0.851804 0.220441 0.320512 -0.160837
C100  C     C_3   0.148324 0.780092 0.679129 -0.160672
C101  C     C_3   0.251830 0.851036 0.708144 -0.165310
C102  C     C_R   0.422216 0.330108 0.353854 -0.142506
C103  C     C_3   0.748540 0.148809 0.292302 -0.165285
C104  C     C_3   0.206107 0.308541 0.792439 -0.168082
C105  C     C_3   0.793942 0.691582 0.207743 -0.168046
C106  C     C_3   0.779659 0.147826 0.679157 -0.160557
C107  C     C_3   0.220251 0.852156 0.320907 -0.160528
C108  C     C_3   0.794325 0.722841 0.763283 -0.154396
C109  C     C_3   0.205731 0.276938 0.236816 -0.154258
C110  C     C_3   0.279189 0.249343 0.279665 -0.137529
C111  C     C_3   0.721002 0.750498 0.720243 -0.137426
C112  C     C_3   0.193150 0.777864 0.365715 -0.150395
H1    H     H_    0.280536 0.226215 0.339936 0.109681
H2    H     H_    0.274349 0.328705 0.074275 0.105303
H3    H     H_    0.727657 0.220391 0.839757 0.109938
H4    H     H_    0.272463 0.779753 0.160301 0.109938
H5    H     H_    0.328102 0.275673 0.926550 0.105463
H6    H     H_    0.672119 0.724060 0.073383 0.105392
H7    H     H_    0.219547 0.726301 0.839972 0.109684
H8    H     H_    0.779625 0.273000 0.159686 0.109713
H9    H     H_    0.775146 0.588419 0.791257 0.101907
H10   H     H_    0.224555 0.411454 0.209096 0.101880
H11   H     H_    0.645665 0.167872 0.707976 0.101123
H12   H     H_    0.719808 0.773487 0.659915 0.109690
H13   H     H_    0.354288 0.832249 0.292193 0.101117
H14   H     H_    0.282287 0.413096 0.842737 0.108105
H15   H     H_    0.718021 0.586829 0.157465 0.108090
H16   H     H_    0.354828 0.774575 0.759913 0.106350
H17   H     H_    0.644921 0.224480 0.240583 0.106283
H18   H     H_    0.832077 0.354562 0.291743 0.101753
H19   H     H_    0.167233 0.645728 0.707271 0.101722
H20   H     H_    0.587739 0.773998 0.207282 0.103021
H21   H     H_    0.412168 0.225778 0.792451 0.102987
H22   H     H_    0.223852 0.645231 0.241502 0.106068
H23   H     H_    0.171969 0.775763 0.426575 0.105441
H24   H     H_    0.776310 0.354813 0.758413 0.106047
H25   H     H_    0.412482 0.283171 0.156883 0.107195
H26   H     H_    0.587413 0.717238 0.842865 0.107158
H27   H     H_    0.332840 0.145756 0.207161 0.101717
H28   H     H_    0.667451 0.854370 0.792419 0.101728
H29   H     H_    0.087799 0.725855 0.292542 0.102995
H30   H     H_    0.912249 0.274027 0.707318 0.103018
H31   H     H_    0.723647 0.854826 0.258388 0.106031
H32   H     H_    0.276049 0.145257 0.741447 0.106079
H33   H     H_    0.912755 0.217893 0.342449 0.107124
H34   H     H_    0.827916 0.224100 0.573393 0.105320
H35   H     H_    0.087488 0.783068 0.656943 0.107180
H36   H     H_    0.275361 0.911491 0.708997 0.101889
H37   H     H_    0.725341 0.088216 0.291839 0.101960
H38   H     H_    0.145740 0.332321 0.792298 0.101116
H39   H     H_    0.854350 0.667905 0.208019 0.101123
H40   H     H_    0.782027 0.086838 0.657435 0.108097
H41   H     H_    0.217810 0.913125 0.342672 0.108101
H42   H     H_    0.854912 0.725134 0.740235 0.106332
H43   H     H_    0.145194 0.274465 0.259968 0.106345
H44   H     H_    0.421199 0.754914 0.606538 0.090679
H45   H     H_    0.772314 0.720433 0.339771 0.109944
H46   H     H_    0.578778 0.245098 0.393416 0.090614
H47   H     H_    0.721663 0.543230 0.660157 0.092791
H48   H     H_    0.278324 0.456768 0.339860 0.092751
H49   H     H_    0.577436 0.245220 0.606430 0.083862
H50   H     H_    0.422566 0.754782 0.393581 0.083845
H51   H     H_    0.279583 0.456513 0.661844 0.099255
H52   H     H_    0.720419 0.543491 0.338158 0.099217
H53   H     H_    0.456589 0.279523 0.338388 0.098916
H54   H     H_    0.543390 0.720462 0.661617 0.098925
H55   H     H_    0.754630 0.422783 0.393102 0.084263
H56   H     H_    0.227461 0.279840 0.660336 0.109939
H57   H     H_    0.245359 0.577213 0.606831 0.084192
H58   H     H_    0.543374 0.721647 0.339632 0.093168
H59   H     H_    0.456623 0.278345 0.660358 0.093127
H60   H     H_    0.244936 0.578985 0.393878 0.090165
H61   H     H_    0.755062 0.421020 0.606130 0.090164
H62   H     H_    0.956628 0.220446 0.161625 0.098909
H63   H     H_    0.043398 0.779536 0.838382 0.098927
H64   H     H_    0.254642 0.077210 0.106822 0.084181
H65   H     H_    0.745363 0.922788 0.893147 0.084215
H66   H     H_    0.043376 0.778349 0.160363 0.093138
H67   H     H_    0.775271 0.172063 0.425975 0.105183
H68   H     H_    0.956627 0.221645 0.839631 0.093167
H69   H     H_    0.744938 0.921023 0.106132 0.090164
H70   H     H_    0.255066 0.078986 0.893882 0.090173
H71   H     H_    0.921208 0.745090 0.893445 0.090659
H72   H     H_    0.078803 0.254916 0.106530 0.090688
H73   H     H_    0.221666 0.956773 0.839850 0.092765
H74   H     H_    0.778360 0.043223 0.160184 0.092862
H75   H     H_    0.077432 0.254783 0.893588 0.083836
H76   H     H_    0.922565 0.745220 0.106432 0.083859
H77   H     H_    0.779587 0.043485 0.838155 0.099240
H78   H     H_    0.225559 0.828629 0.574245 0.105282
H79   H     H_    0.220412 0.956516 0.161845 0.099256
H80   H     H_    0.725303 0.671589 0.925820 0.105231
N1    N     N_R   0.424590 0.632770 0.578330 -0.032701
N2    N     N_R   0.575410 0.632770 0.578330 -0.041636
N3    N     N_R   0.632770 0.424590 0.421670 -0.032871
N4    N     N_R   0.367230 0.575410 0.578330 -0.032886
N5    N     N_R   0.575410 0.632770 0.421670 -0.042158
N6    N     N_R   0.424590 0.367230 0.578330 -0.042154
N7    N     N_R   0.367230 0.575410 0.421670 -0.033036
N8    N     N_R   0.632770 0.424590 0.578330 -0.033034
N9    N     N_R   0.924590 0.132770 0.078330 -0.041651
N10   N     N_R   0.075410 0.867230 0.921670 -0.041631
N11   N     N_R   0.132770 0.075410 0.078330 -0.032884
N12   N     N_R   0.575410 0.367230 0.421670 -0.032697
N13   N     N_R   0.867230 0.924590 0.921670 -0.032879
N14   N     N_R   0.075410 0.867230 0.078330 -0.042154
N15   N     N_R   0.924590 0.132770 0.921670 -0.042159
N16   N     N_R   0.867230 0.924590 0.078330 -0.033027
N17   N     N_R   0.132770 0.075410 0.921670 -0.033034
N18   N     N_R   0.924590 0.867230 0.921670 -0.032698
N19   N     N_R   0.075410 0.132770 0.078330 -0.032699
N20   N     N_R   0.132770 0.924590 0.921670 -0.041839
N21   N     N_R   0.867230 0.075410 0.078330 -0.041851
N22   N     N_R   0.075410 0.132770 0.921670 -0.033213
N23   N     N_R   0.632770 0.575410 0.578330 -0.041843
N24   N     N_R   0.924590 0.867230 0.078330 -0.033211
N25   N     N_R   0.867230 0.075410 0.921670 -0.041963
N26   N     N_R   0.132770 0.924590 0.078330 -0.041958
N27   N     N_R   0.367230 0.424590 0.421670 -0.041837
N28   N     N_R   0.575410 0.367230 0.578330 -0.033220
N29   N     N_R   0.424590 0.632770 0.421670 -0.033214
N30   N     N_R   0.367230 0.424590 0.578330 -0.041955
N31   N     N_R   0.632770 0.575410 0.421670 -0.041959
N32   N     N_R   0.424590 0.367230 0.421670 -0.041630
Ni1   Ni    Ni4+2 0.500000 0.631570 0.500000 0.206850
Ni2   Ni    Ni4+2 0.500000 0.368430 0.500000 0.206865
Ni3   Ni    Ni4+2 0.631570 0.500000 0.500000 0.206876
Ni4   Ni    Ni4+2 0.368430 0.500000 0.500000 0.206873
Ni5   Ni    Ni4+2 1.000000 0.131570 0.000000 0.206849
Ni6   Ni    Ni4+2 1.000000 0.868430 0.000000 0.206861
Ni7   Ni    Ni4+2 0.131570 0.000000 0.000000 0.206872
Ni8   Ni    Ni4+2 0.868430 0.000000 0.000000 0.206864

loop_
_geom_bond_atom_site_label_1
_geom_bond_atom_site_label_2
_ccdc_geom_bond_type
C58   C62   A    
C109  H43   S    
N4    Ni4   S    
C24   N11   A    
C46   C59   S    
N14   Ni6   S    
C11   C88   S    
C94   H28   S    
C107  C112  S    
C87   H21   S    
C39   N26   A    
C53   C74   S    
C28   H68   S    
C27   H66   S    
C25   N12   A    
C92   H26   S    
N25   Ni8   S    
C34   C66   A    
C30   N17   A    
N20   Ni7   S    
C102  N32   A    
C48   C57   S    
C35   C74   A    
C85   H19   S    
N14   N26   A    
C18   C65   A    
C3    C43   S    
C43   C89   S    
C29   N16   A    
C29   H69   S    
C77   H11   S    
C9    H2    S    
N2    Ni1   S    
C77   C106  S    
C45   C87   S    
C19   H59   S    
C55   C101  S    
C83   H17   S    
C7    C101  S    
C95   C112  S    
C16   H8    S    
C36   N23   A    
C30   C74   A    
C33   N20   A    
N31   Ni3   S    
C13   H55   S    
C37   H76   S    
C23   H63   S    
C53   C104  S    
C23   C67   A    
C12   C79   S    
N29   Ni1   S    
C94   C111  S    
C16   C84   S    
C52   C95   S    
C69   N29   A    
N17   Ni7   S    
C5    H56   S    
C104  H38   S    
C34   H74   S    
C86   C97   S    
C42   C112  S    
C97   H31   S    
C80   N30   A    
C11   C52   S    
C41   C60   S    
C36   H47   S    
C50   C68   S    
N27   N32   A    
C58   N28   A    
C52   C107  S    
C31   C70   A    
C22   C66   A    
C63   C69   A    
C10   C89   S    
C15   H7    S    
C76   C109  S    
C14   H6    S    
C55   C100  S    
N24   Ni6   S    
C56   C66   S    
C7    H78   S    
C3    C96   S    
C8    C92   S    
C9    C76   S    
C49   C94   S    
C15   C82   S    
N19   Ni5   S    
N7    Ni4   S    
C2    H54   S    
C37   N24   A    
N23   Ni3   S    
C12   C53   S    
C22   N9    A    
C89   C96   S    
C33   H73   S    
C51   C96   S    
N10   Ni6   S    
C87   C98   S    
C98   H32   S    
C38   H77   S    
N9    Ni5   S    
C99   H33   S    
C5    C104  S    
C75   C108  S    
N16   N24   A    
C89   H24   S    
C4    C97   S    
C81   H15   S    
C64   C80   A    
C38   N25   A    
N11   N19   A    
C44   C65   S    
C28   C72   A    
C2    C60   A    
C20   H60   S    
C44   C86   S    
C10   C51   S    
N13   Ni8   S    
C22   H62   S    
C10   C77   S    
C49   C108  S    
C81   C105  S    
C47   H48   S    
C18   H58   S    
C3    C106  S    
C105  H39   S    
C38   C72   A    
N15   N25   A    
C106  H40   S    
C7    C100  S    
C23   N10   A    
C69   H50   S    
C14   C86   S    
C45   C79   S    
C44   C81   S    
N2    N23   A    
C32   N19   A    
C103  H37   S    
N15   Ni5   S    
C40   C110  S    
N3    N12   A    
C4    C44   S    
C36   C60   A    
C5    C45   S    
C50   C109  S    
C15   C85   S    
C40   C76   S    
C78   C107  S    
C2    N2    A    
N8    Ni3   S    
C15   C55   S    
C1    H44   S    
C1    N1    A    
C16   C56   S    
C20   N7    A    
C93   H27   S    
C11   C78   S    
C1    C57   A    
C41   C75   S    
C54   C73   S    
C39   H79   S    
C31   H71   S    
C4    H45   S    
N30   Ni4   S    
C19   C64   A    
N1    N4    A    
N9    N21   A    
C18   N5    A    
C92   C94   S    
N18   Ni6   S    
N28   Ni2   S    
C54   C97   S    
C6    H67   S    
C6    C103  S    
C11   H4    S    
C40   C61   S    
C110  H1    S    
C82   H16   S    
C21   C62   A    
C107  H41   S    
N21   Ni8   S    
C83   C103  S    
N16   Ni8   S    
N7    N29   A    
C14   C54   S    
C79   H14   S    
C95   H29   S    
C102  H53   S    
C30   H70   S    
C49   C70   S    
C41   C111  S    
C26   C70   A    
C101  H36   S    
C79   C104  S    
C26   N13   A    
C42   C88   S    
C51   C72   S    
C21   N8    A    
C91   N31   A    
C24   H64   S    
C90   H25   S    
C27   C71   A    
C33   C67   A    
C90   C93   S    
C26   H65   S    
C65   C91   A    
C37   C73   A    
C19   N6    A    
C6    C46   S    
C54   C105  S    
N6    N30   A    
C111  H12   S    
C75   H9    S    
C84   C99   S    
C32   H72   S    
C9    C50   S    
C56   C103  S    
N10   N20   A    
N5    N31   A    
C34   N21   A    
N32   Ni2   S    
C9    C90   S    
C47   C61   A    
C80   H51   S    
C55   C67   S    
C100  H35   S    
C50   C93   S    
C42   C78   S    
C13   C59   A    
N3    Ni3   S    
C53   C98   S    
C43   C77   S    
C25   C59   A    
C4    C105  S    
C93   C110  S    
C45   C64   S    
C21   H61   S    
N17   N22   A    
C14   C81   S    
C108  C111  S    
C32   C68   A    
C27   N14   A    
C76   H10   S    
C6    C99   S    
C20   C63   A    
C61   C102  A    
N1    Ni1   S    
C12   C87   S    
C52   C71   S    
C109  C110  S    
C7    C48   S    
N11   Ni7   S    
C78   H13   S    
C86   H20   S    
C31   N18   A    
C47   N27   A    
N13   N18   A    
C8    H80   S    
C51   C106  S    
N8    N28   A    
C8    C49   S    
C84   H18   S    
C88   H22   S    
C82   C101  S    
C48   C82   S    
C46   C84   S    
C17   H57   S    
C8    C75   S    
C91   H52   S    
C35   N22   A    
N26   Ni7   S    
C88   C95   S    
C24   C68   A    
C96   H30   S    
C46   C83   S    
C41   C92   S    
C29   C73   A    
C5    C98   S    
C3    H34   S    
C35   H75   S    
C13   N3    A    
C108  H42   S    
C25   H46   S    
C85   C100  S    
C28   N15   A    
C39   C71   A    
C48   C85   S    
C17   N4    A    
C16   C83   S    
C12   H5    S    
C112  H23   S    
C56   C99   S    
C40   C90   S    
N22   Ni5   S    
C58   H49   S    
N12   Ni2   S    
C42   C63   S    
N27   Ni4   S    
C10   H3    S    
N6    Ni2   S    
C43   C62   S    
C17   C57   A    
N5    Ni1   S    
