data_mof_unit_32268.cif
_audit_creation_date              2012-12-10T16:50:12-0500
_audit_creation_method            fapswitch 2.2
_symmetry_space_group_name_H-M    P1
_symmetry_Int_Tables_number       1
_space_group_crystal_system       triclinic
_cell_length_a                    7.786129
_cell_length_b                    8.567471
_cell_length_c                    10.628011
_cell_angle_alpha                 91.049673
_cell_angle_beta                  85.680839
_cell_angle_gamma                 93.641892
_cell_volume                      705.460961731

loop_
_atom_site_label
_atom_site_type_symbol
_atom_type_description
_atom_site_fract_x
_atom_site_fract_y
_atom_site_fract_z
_atom_type_partial_charge
C1    C     C_R   0.545728 0.794669 0.496989 0.939713
C2    C     C_R   0.454277 0.205329 0.503248 0.949205
C3    C     C_R   0.498933 0.503521 0.260881 0.869669
C4    C     C_R   0.404229 0.777486 0.876642 -0.145470
C5    C     C_R   0.350112 0.907578 0.945853 -0.072109
C6    C     C_R   0.346286 0.908168 0.076830 -0.102765
C7    C     C_R   0.394955 0.777964 0.138963 -0.170241
C8    C     C_R   0.446281 0.643450 0.070124 0.095887
C9    C     C_2   0.620002 0.234938 0.863123 0.394507
C10   C     C_R   0.451267 0.642738 0.938260 0.099691
C11   C     C_R   0.506483 0.507913 0.871730 -0.176298
C12   C     C_R   0.562304 0.377568 0.932484 -0.031552
C13   C     C_R   0.557533 0.381407 0.062051 -0.187901
C14   C     C_R   0.497718 0.510296 0.128920 -0.136509
C15   C     C_2   0.569759 0.958197 0.495476 -0.371087
C16   C     C_2   0.430238 0.041800 0.505433 -0.404952
C17   C     C_R   0.502046 0.501659 0.739260 0.833682
H1    H     H_    0.986579 0.617915 0.594611 0.198245
H2    H     H_    0.595853 0.215080 0.764860 0.074339
H3    H     H_    0.410484 0.784923 0.774993 0.144125
H4    H     H_    0.313380 0.009099 0.897548 0.131814
H5    H     H_    0.307037 0.010285 0.130387 0.134834
H6    H     H_    0.393353 0.784668 0.240680 0.150240
H7    H     H_    0.596883 0.281951 0.112298 0.185575
H8    H     H_    0.701539 0.009242 0.485994 0.187977
H9    H     H_    0.298460 0.990749 0.515014 0.185559
H10   H     H_    0.013433 0.382081 0.405402 0.196186
N1    N     N_2   0.950330 0.457950 0.466250 -0.169938
N2    N     N_2   0.049670 0.542050 0.533750 -0.170139
O1    O     O_R   0.389250 0.738570 0.508280 -0.625831
O2    O     O_R   0.678390 0.711630 0.486650 -0.621412
O3    O     O_R   0.355400 0.513470 0.694050 -0.610851
O4    O     O_R   0.644540 0.486530 0.672420 -0.625819
O5    O     O_R   0.321610 0.288370 0.513350 -0.624721
O6    O     O_R   0.610750 0.261430 0.491720 -0.615757
O7    O     O_R   0.355460 0.513470 0.327580 -0.628405
O8    O     O_R   0.644600 0.486530 0.305950 -0.605094
O9    O     O_2   0.695462 0.136769 0.915545 -0.572335
Zn1   Zn    Zn3+2 0.306930 0.517990 0.514440 0.943688
Zn2   Zn    Zn3+2 0.693070 0.482010 0.485560 0.954247

loop_
_geom_bond_atom_site_label_1
_geom_bond_atom_site_label_2
_ccdc_geom_bond_type
C2    O6    A    
C11   C12   A    
C6    C7    A    
C1    C15   S    
C2    C16   S    
C2    O5    A    
O6    Zn2   S    
C7    C8    A    
H1    N2    S    
C13   C14   A    
O2    Zn2   S    
N2    Zn1   S    
C3    C14   S    
C17   O4    A    
C3    O7    A    
C7    H6    S    
C9    O9    D    
O1    Zn1   S    
O8    Zn2   S    
C16   H9    S    
C5    C6    A    
C9    C12   S    
C15   H8    S    
O4    Zn2   S    
C10   C11   A    
N1    Zn2   S    
C4    C10   A    
O5    Zn1   S    
C6    H5    S    
C1    O2    A    
C5    H4    S    
C12   C13   A    
C3    O8    A    
C8    C10   A    
O3    Zn1   S    
H10   N1    S    
C17   O3    A    
C1    O1    A    
C8    C14   A    
C9    H2    S    
O7    Zn1   S    
C11   C17   S    
N1    N2    D    
C15   C16   D    
C13   H7    S    
C4    C5    A    
C4    H3    S    
