data_mof_unit_6016.cif
_audit_creation_date              2012-12-10T17:22:42-0500
_audit_creation_method            fapswitch 2.2
_symmetry_space_group_name_H-M    P1
_symmetry_Int_Tables_number       1
_space_group_crystal_system       triclinic
_cell_length_a                    10.672937
_cell_length_b                    10.84542
_cell_length_c                    9.623399
_cell_angle_alpha                 88.323095
_cell_angle_beta                  89.823184
_cell_angle_gamma                 96.448502
_cell_volume                      1106.38790802

loop_
_atom_site_label
_atom_site_type_symbol
_atom_type_description
_atom_site_fract_x
_atom_site_fract_y
_atom_site_fract_z
_atom_type_partial_charge
C1    C     C_R   0.490969 0.261307 0.501524 0.778279
C2    C     C_3   0.971432 0.615877 0.464566 -0.302433
C3    C     C_3   0.042911 0.531005 0.375256 0.529726
C4    C     C_3   0.122397 0.499871 0.500092 -0.024933
C5    C     C_R   0.336565 0.100073 0.710279 -0.163561
C6    C     C_R   0.276889 0.025674 0.817087 -0.113906
C7    C     C_R   0.275627 0.898021 0.815709 -0.173306
C8    C     C_R   0.334898 0.844335 0.708156 -0.179552
C9    C     C_R   0.405800 0.918695 0.605357 0.125314
C10   C     C_R   0.407474 0.049516 0.607332 0.078797
C11   C     C_R   0.474568 0.124669 0.501866 -0.109042
C12   C     C_R   0.259360 0.499274 0.500042 0.777179
C13   C     C_R   0.522280 0.067960 0.387273 -0.199766
C14   C     C_R   0.515686 0.940371 0.382865 -0.231110
C15   C     C_R   0.469226 0.866242 0.496188 -0.086001
C16   C     C_R   0.668416 0.675206 0.137023 -0.349835
C17   C     C_R   0.747120 0.766002 0.060420 0.341284
C18   C     C_R   0.744258 0.765987 0.916197 0.386340
C19   C     C_R   0.667108 0.674110 0.849136 -0.296551
C20   C     C_R   0.583604 0.584748 0.922161 0.070678
C21   C     C_R   0.582789 0.585938 0.071395 0.158328
C22   C     C_R   0.419945 0.420428 0.077960 -0.125829
C23   C     C_R   0.490000 0.735701 0.498584 0.767263
C24   C     C_R   0.413703 0.425362 0.930009 0.530702
C25   C     C_R   0.740599 0.501160 0.500142 0.787911
C26   C     C_3   0.027846 0.386298 0.537846 -0.222962
C27   C     C_3   0.947948 0.417324 0.410047 -0.215848
C28   C     C_3   0.877490 0.501375 0.501242 -0.034071
C29   C     C_3   0.954826 0.469730 0.629368 -0.107554
C30   C     C_3   0.051500 0.583373 0.591735 -0.237239
Cu1   Cu    Cu3+1 0.499990 0.499990 0.640660 0.956550
Cu2   Cu    Cu3+1 0.500010 0.500010 0.359340 0.947228
H1    H     H_    0.903814 0.350733 0.334185 0.142309
H2    H     H_    0.224563 0.840110 0.895404 0.137576
H3    H     H_    0.319705 0.744545 0.705401 0.161212
H4    H     H_    0.550683 0.899158 0.292020 0.148196
H5    H     H_    0.355796 0.354085 0.136927 0.152583
H6    H     H_    0.678426 0.675746 0.247038 0.211501
H7    H     H_    0.675602 0.677459 0.739113 0.224401
H8    H     H_    0.053029 0.292385 0.566129 0.140398
H9    H     H_    0.914556 0.445652 0.734347 0.145835
H10   H     H_    0.096439 0.650005 0.666942 0.131205
H11   H     H_    0.945829 0.709421 0.434440 0.135917
H12   H     H_    0.567257 0.122492 0.301016 0.165458
H13   H     H_    0.321463 0.195724 0.704302 0.211216
H14   H     H_    0.227771 0.065862 0.899142 0.163329
N1    N     N_R   0.501210 0.501210 0.147910 -0.197670
N2    N     N_R   0.501250 0.501290 0.852040 -0.214735
O1    O     O_R   0.499990 0.319640 0.618810 -0.549282
O2    O     O_R   0.500000 0.319660 0.381240 -0.581733
O3    O     O_R   0.316850 0.499960 0.618770 -0.580998
O4    O     O_R   0.316860 0.499980 0.381190 -0.543791
O5    O     O_R   0.500000 0.680340 0.618760 -0.605061
O6    O     O_R   0.500010 0.680360 0.381190 -0.590853
O7    O     O_R   0.683140 0.500020 0.618810 -0.595545
O8    O     O_R   0.683150 0.500040 0.381230 -0.598585
O9    O     O_3   0.844415 0.840652 0.121733 -0.591387
C31   C     C_3   0.797662 0.921377 0.215828 0.075199
H15   H     H_    0.760481 0.869196 0.311045 0.127035
H16   H     H_    0.724558 0.973181 0.165848 0.159154
C32   C     C_3   0.905178 0.016034 0.259892 -0.799571
H17   H     H_    0.945519 0.070775 0.167719 0.255873
H18   H     H_    0.869664 0.080262 0.334697 0.200899
H19   H     H_    0.980321 0.968010 0.310657 0.240067
O10   O     O_3   0.806264 0.865511 0.840742 -0.544606
C33   C     C_3   0.913214 0.829131 0.773356 0.071676
H20   H     H_    0.892951 0.738531 0.721993 0.126364
H21   H     H_    0.990338 0.823592 0.849755 0.169533
C34   C     C_3   0.958416 0.926303 0.661716 -0.792923
H22   H     H_    0.982308 0.018054 0.709091 0.254480
H23   H     H_    0.043686 0.899431 0.609214 0.205934
H24   H     H_    0.883386 0.933543 0.583123 0.244067
O11   O     O_3   0.320852 0.349679 0.864526 -0.590559
C35   C     C_3   0.200024 0.383315 0.898394 0.019530
H25   H     H_    0.176078 0.457030 0.824286 0.189140
H26   H     H_    0.192756 0.418074 0.005348 0.168552
C36   C     C_3   0.100581 0.271864 0.887723 -0.831185
H27   H     H_    0.108424 0.206907 0.977650 0.236357
H28   H     H_    0.004681 0.301644 0.890271 0.210330
H29   H     H_    0.111428 0.223927 0.789109 0.242914
O12   O     O_3   0.092676 0.558534 0.240549 -0.592138
C37   C     C_3   0.006775 0.621062 0.161354 0.104415
H30   H     H_    0.033671 0.722635 0.167757 0.201505
H31   H     H_    0.906744 0.598040 0.195602 0.157994
C38   C     C_3   0.012177 0.584629 0.011077 -0.871143
H32   H     H_    0.990048 0.482842 0.005602 0.247488
H33   H     H_    0.939685 0.626554 0.950121 0.201928
H34   H     H_    0.106480 0.616283 0.965851 0.228116

loop_
_geom_bond_atom_site_label_1
_geom_bond_atom_site_label_2
_ccdc_geom_bond_type
C33   H21   S    
C16   C21   A    
C32   H19   S    
O11   C35   S    
C19   C20   A    
C1    C11   S    
C25   O8    A    
O12   C37   S    
C7    C8    A    
C36   H27   S    
C27   H1    S    
C25   C28   S    
C26   C27   S    
C35   H26   S    
C28   C29   S    
C14   H4    S    
C5    C6    A    
C24   O11   S    
C38   H34   S    
C33   C34   S    
C31   H16   S    
C34   H23   S    
C18   C19   A    
C32   H18   S    
Cu2   O4    S    
C16   C17   A    
C35   C36   S    
C3    O12   S    
C4    C12   S    
C9    C10   A    
C31   C32   S    
C15   C23   S    
C22   N1    A    
C13   C14   A    
C32   H17   S    
Cu1   O1    S    
Cu2   O6    S    
C12   O4    A    
C23   O5    A    
C36   H28   S    
C35   H25   S    
C38   H33   S    
C24   N2    A    
C8    C9    A    
C31   H15   S    
C38   H32   S    
C22   H5    S    
C5    H13   S    
C18   O10   S    
C8    H3    S    
C34   H24   S    
C29   C30   S    
Cu1   Cu2   S    
C2    H11   S    
C17   C18   A    
Cu1   O5    S    
Cu2   O2    S    
C20   N2    A    
C19   H7    S    
C37   H30   S    
C37   H31   S    
Cu1   N2    S    
Cu2   N1    S    
C22   C24   A    
C3    C4    S    
C12   O3    A    
C23   O6    A    
C1    O2    A    
C36   H29   S    
C6    H14   S    
C29   H9    S    
C25   O7    A    
Cu1   O3    S    
C4    C26   S    
C6    C7    A    
C37   C38   S    
C2    C30   S    
C3    C27   S    
C2    C3    S    
C9    C15   A    
C5    C10   A    
C11   C13   A    
C26   H8    S    
O9    C31   S    
C7    H2    S    
C33   H20   S    
C34   H22   S    
C10   C11   A    
C20   C21   A    
C26   C29   S    
O10   C33   S    
C17   O9    S    
C27   C28   S    
C14   C15   A    
C30   H10   S    
C2    C28   S    
Cu1   O7    S    
C1    O1    A    
Cu2   O8    S    
C13   H12   S    
C4    C30   S    
C16   H6    S    
C21   N1    A    
