data_mof_unit_22361.cif
_audit_creation_date              2013-03-05T15:45:12-0500
_audit_creation_method            fapswitch 2.2
_symmetry_space_group_name_H-M    P1
_symmetry_Int_Tables_number       1
_space_group_crystal_system       triclinic
_cell_length_a                    24.50796
_cell_length_b                    17.121387
_cell_length_c                    15.568657
_cell_angle_alpha                 90.001546
_cell_angle_beta                  50.79569
_cell_angle_gamma                 89.998302
_cell_volume                      5062.22219844

loop_
_atom_site_label
_atom_site_type_symbol
_atom_site_description
_atom_site_fract_x
_atom_site_fract_y
_atom_site_fract_z
_atom_type_partial_charge
C1    C     C_R   0.338180 0.121804 0.789811 -0.079260
C2    C     C_R   0.667074 0.891185 0.199781 -0.090391
C3    C     C_R   0.661848 0.121710 0.210091 -0.079372
C4    C     C_R   0.332928 0.891187 0.800214 -0.090447
C5    C     C_R   0.848299 0.639859 0.761017 -0.069077
C6    C     C_R   0.166752 0.393611 0.197723 -0.134794
C7    C     C_R   0.151703 0.639849 0.238974 -0.069883
C8    C     C_R   0.833259 0.393591 0.802248 -0.133194
H1    H     H_    0.286206 0.127701 0.814965 0.151191
H2    H     H_    0.719332 0.891767 0.174834 0.151950
H3    H     H_    0.713828 0.127605 0.184924 0.151085
H4    H     H_    0.280671 0.891769 0.825161 0.151961
H5    H     H_    0.799289 0.651601 0.777168 0.142846
H6    H     H_    0.219424 0.394276 0.171369 0.153418
H7    H     H_    0.200716 0.651583 0.222817 0.142940
H8    H     H_    0.780610 0.394184 0.828519 0.153737
N1    N     N_R   0.388930 0.078160 0.705470 -0.055986
N2    N     N_R   0.611070 0.921840 0.294530 -0.056975
N3    N     N_R   0.611070 0.078160 0.294530 -0.055986
N4    N     N_R   0.388930 0.921840 0.705470 -0.056977
N5    N     N_R   0.888930 0.578160 0.705470 -0.060862
N6    N     N_R   0.111070 0.421840 0.294530 -0.053208
N7    N     N_R   0.111070 0.578160 0.294530 -0.060888
N8    N     N_R   0.888930 0.421840 0.705470 -0.053498
C9    C     C_R   0.590801 0.142771 0.592083 -0.123568
C10   C     C_R   0.412790 0.855113 0.407176 -0.127895
C11   C     C_R   0.409217 0.142781 0.407914 -0.123619
C12   C     C_R   0.587211 0.855112 0.592816 -0.127890
C13   C     C_R   0.114588 0.603653 0.592074 -0.130970
C14   C     C_R   0.885747 0.396260 0.407650 -0.124890
C15   C     C_R   0.885413 0.603650 0.407925 -0.130942
C16   C     C_R   0.114256 0.396264 0.592347 -0.124861
H9    H     H_    0.565381 0.156552 0.676962 0.087303
H10   H     H_    0.442554 0.839811 0.321077 0.092973
H11   H     H_    0.434673 0.156579 0.323027 0.087328
H12   H     H_    0.557447 0.839811 0.678913 0.092976
H13   H     H_    0.093677 0.599522 0.677228 0.081630
H14   H     H_    0.907054 0.400030 0.322267 0.083175
H15   H     H_    0.906327 0.599517 0.322769 0.081619
H16   H     H_    0.092948 0.400038 0.677731 0.083181
N9    N     N_R   0.580500 0.077840 0.556650 -0.039734
N10   N     N_R   0.419500 0.922160 0.443350 -0.040225
N11   N     N_R   0.419500 0.077840 0.443350 -0.039728
N12   N     N_R   0.580500 0.922160 0.556650 -0.040230
N13   N     N_R   0.080500 0.577840 0.556650 -0.033822
N14   N     N_R   0.919500 0.422160 0.443350 -0.037801
N15   N     N_R   0.919500 0.577840 0.443350 -0.033824
N16   N     N_R   0.080500 0.422160 0.556650 -0.037786
C17   C     C_R   0.665171 0.142353 0.407739 -0.133581
C18   C     C_R   0.337633 0.855541 0.592156 -0.129757
C19   C     C_R   0.334815 0.142349 0.592255 -0.133559
C20   C     C_R   0.662367 0.855536 0.407837 -0.129760
C21   C     C_R   0.188726 0.603028 0.408166 -0.098883
C22   C     C_R   0.811422 0.396693 0.591960 -0.139572
C23   C     C_R   0.811271 0.603027 0.591832 -0.098964
C24   C     C_R   0.188581 0.396695 0.408038 -0.139397
H17   H     H_    0.708166 0.155777 0.322849 0.091156
H18   H     H_    0.296997 0.840502 0.677806 0.088383
H19   H     H_    0.291787 0.155760 0.677134 0.091216
H20   H     H_    0.703003 0.840493 0.322185 0.088378
H21   H     H_    0.236332 0.598011 0.323288 0.079293
H22   H     H_    0.764017 0.400800 0.677182 0.090099
H23   H     H_    0.763664 0.598012 0.676708 0.079340
H24   H     H_    0.235985 0.400802 0.322816 0.090076
N17   N     N_R   0.626210 0.077590 0.443410 -0.041664
N18   N     N_R   0.373790 0.922410 0.556590 -0.041861
N19   N     N_R   0.373790 0.077590 0.556590 -0.041674
N20   N     N_R   0.626210 0.922410 0.443410 -0.041861
N21   N     N_R   0.126210 0.577590 0.443410 -0.037995
N22   N     N_R   0.873790 0.422410 0.556590 -0.039869
N23   N     N_R   0.873790 0.577590 0.556590 -0.038031
N24   N     N_R   0.126210 0.422410 0.443410 -0.039824
C25   C     C_R   0.570796 0.122315 0.211079 -0.170485
C26   C     C_R   0.422167 0.892200 0.803215 -0.182078
C27   C     C_R   0.429229 0.122427 0.788828 -0.170349
C28   C     C_R   0.577835 0.892201 0.196780 -0.182062
C29   C     C_R   0.060469 0.641093 0.238653 -0.176246
C30   C     C_R   0.924280 0.394626 0.801972 -0.149898
C31   C     C_R   0.939532 0.641097 0.761342 -0.176243
C32   C     C_R   0.075733 0.394668 0.197999 -0.149063
H25   H     H_    0.540001 0.128935 0.184002 0.096862
H26   H     H_    0.450766 0.894963 0.834754 0.100506
H27   H     H_    0.460021 0.129092 0.815903 0.096826
H28   H     H_    0.549237 0.894967 0.165241 0.100505
H29   H     H_    0.024096 0.657267 0.224513 0.108029
H30   H     H_    0.954897 0.397340 0.830034 0.096308
H31   H     H_    0.975905 0.657271 0.775482 0.108030
H32   H     H_    0.045133 0.397456 0.169911 0.096160
N25   N     N_R   0.554800 0.077270 0.294580 -0.039523
N26   N     N_R   0.445200 0.922730 0.705420 -0.041643
N27   N     N_R   0.445200 0.077270 0.705420 -0.039516
N28   N     N_R   0.554800 0.922730 0.294580 -0.041641
N29   N     N_R   0.054800 0.577270 0.294580 -0.043571
N30   N     N_R   0.945200 0.422730 0.705420 -0.042281
N31   N     N_R   0.945200 0.577270 0.705420 -0.043562
N32   N     N_R   0.054800 0.422730 0.294580 -0.042267
C33   C     C_R   0.363891 0.154230 0.839377 0.177923
C34   C     C_R   0.648429 0.872454 0.135410 0.204811
C35   C     C_R   0.636157 0.154050 0.160448 0.178269
C36   C     C_R   0.351575 0.872451 0.864581 0.204817
C37   C     C_R   0.879897 0.682646 0.794370 0.203665
C38   C     C_R   0.146233 0.378275 0.134326 0.161437
C39   C     C_R   0.120106 0.682636 0.205620 0.203789
C40   C     C_R   0.853787 0.378205 0.865625 0.162247
C41   C     C_R   0.641565 0.186542 0.499786 0.042271
C42   C     C_R   0.362173 0.810849 0.499598 0.041410
C43   C     C_R   0.358438 0.186548 0.500211 0.042281
C44   C     C_R   0.637827 0.810843 0.500390 0.041411
C45   C     C_R   0.183472 0.618941 0.500121 0.040233
C46   C     C_R   0.816793 0.381518 0.499674 0.044550
C47   C     C_R   0.816527 0.618937 0.499876 0.040258
C48   C     C_R   0.183211 0.381525 0.500322 0.044453
Ni1   Ni    Ni4+2 0.382710 0.000000 0.629850 0.223017
Ni2   Ni    Ni4+2 0.617290 1.000000 0.370150 0.223039
Ni3   Ni    Ni4+2 0.882710 0.500000 0.629850 0.207205
Ni4   Ni    Ni4+2 0.117290 0.500000 0.370150 0.206973
Ni5   Ni    Ni4+2 0.513020 0.000000 0.629850 0.211861
Ni6   Ni    Ni4+2 0.486980 1.000000 0.370150 0.211861
Ni7   Ni    Ni4+2 0.013020 0.500000 0.629850 0.206481
Ni8   Ni    Ni4+2 0.986980 0.500000 0.370150 0.206416
C49   C     C_R   0.270916 0.292722 0.600876 -0.171817
C50   C     C_R   0.726787 0.705694 0.400159 -0.170380
C51   C     C_R   0.729096 0.292696 0.399117 -0.171927
C52   C     C_R   0.273216 0.705708 0.599824 -0.170368
C53   C     C_R   0.692630 0.659312 0.600665 -0.163779
C54   C     C_R   0.306971 0.342213 0.400159 -0.169718
C55   C     C_R   0.307365 0.659323 0.399322 -0.163794
C56   C     C_R   0.693036 0.342209 0.599835 -0.169711
H33   H     H_    0.255331 0.274020 0.679897 0.112367
H34   H     H_    0.741892 0.723621 0.321179 0.108753
H35   H     H_    0.744685 0.273986 0.320096 0.112271
H36   H     H_    0.258115 0.723634 0.678804 0.108754
H37   H     H_    0.678297 0.643466 0.679769 0.109683
H38   H     H_    0.321967 0.359453 0.321044 0.110381
H39   H     H_    0.321695 0.643477 0.320219 0.109680
H40   H     H_    0.678038 0.359458 0.678950 0.110403
C57   C     C_R   0.646747 0.706457 0.600794 -0.171871
C58   C     C_R   0.351681 0.293093 0.400162 -0.169438
C59   C     C_R   0.353246 0.706470 0.399190 -0.171905
C60   C     C_R   0.648327 0.293091 0.599832 -0.169349
C61   C     C_R   0.226138 0.341800 0.600955 -0.170881
C62   C     C_R   0.772773 0.658596 0.399929 -0.170332
C63   C     C_R   0.773873 0.341772 0.399039 -0.170857
C64   C     C_R   0.227230 0.658610 0.600058 -0.170328
H41   H     H_    0.598919 0.725121 0.679891 0.107604
H42   H     H_    0.399667 0.274642 0.321117 0.109506
H43   H     H_    0.401069 0.725133 0.320092 0.107603
H44   H     H_    0.600338 0.274651 0.678876 0.109530
H45   H     H_    0.177427 0.358721 0.680062 0.106459
H46   H     H_    0.821642 0.642050 0.320781 0.105642
H47   H     H_    0.822585 0.358682 0.319932 0.106453
H48   H     H_    0.178365 0.642065 0.679207 0.105645
C65   C     C_R   0.667674 0.737022 0.500489 0.142103
C66   C     C_R   0.329314 0.260777 0.500441 0.143117
C67   C     C_R   0.332324 0.737034 0.499494 0.142111
C68   C     C_R   0.670694 0.260766 0.499554 0.143109
C69   C     C_R   0.240434 0.359166 0.500521 0.141631
C70   C     C_R   0.759086 0.642103 0.500137 0.139568
C71   C     C_R   0.759573 0.359151 0.499474 0.141609
C72   C     C_R   0.240913 0.642114 0.499853 0.139576
C73   C     C_2   0.661179 0.226204 0.097433 -0.374993
C74   C     C_2   0.303767 0.844568 0.979943 -0.389851
C75   C     C_2   0.338894 0.226455 0.902279 -0.374588
C76   C     C_2   0.696242 0.844582 0.020037 -0.389794
C77   C     C_2   0.147788 0.755490 0.141355 -0.387266
C78   C     C_2   0.809753 0.352577 0.980174 -0.358776
C79   C     C_2   0.852214 0.755503 0.858637 -0.387291
C80   C     C_2   0.190325 0.352938 0.019637 -0.359133
C81   C     C_2   0.726817 0.250422 0.047201 0.494358
C82   C     C_2   0.233858 0.859324 0.049831 0.490333
C83   C     C_2   0.273270 0.250742 0.952463 0.494242
C84   C     C_2   0.766149 0.859349 0.950155 0.490319
C85   C     C_2   0.189054 0.805095 0.145257 0.490332
C86   C     C_2   0.742741 0.334219 0.029948 0.471233
C87   C     C_2   0.810961 0.805120 0.854719 0.490293
C88   C     C_2   0.257347 0.334553 0.969840 0.471929
H49   H     H_    0.326087 0.805486 0.005576 0.132587
H50   H     H_    0.621678 0.266009 0.111520 0.164741
H51   H     H_    0.673931 0.805498 0.994394 0.132580
H52   H     H_    0.378401 0.266211 0.888250 0.164862
H53   H     H_    0.838072 0.320502 0.001443 0.154744
H54   H     H_    0.138224 0.765797 0.082956 0.132807
H55   H     H_    0.162036 0.320925 0.998266 0.154914
H56   H     H_    0.861766 0.765801 0.917054 0.132775
O1    O     O_3   0.204849 0.910806 0.019208 -0.628430
C89   C     C_3   0.146102 0.949946 0.112449 -0.285501
H57   H     H_    0.159878 0.980241 0.159680 0.122857
H58   H     H_    0.100857 0.909735 0.166932 0.141811
H59   H     H_    0.128915 0.995104 0.083013 0.182705
O2    O     O_3   0.779711 0.197738 0.015885 -0.647484
C90   C     C_3   0.805030 0.163213 0.914459 -0.237851
H60   H     H_    0.820246 0.207799 0.850599 0.131535
H61   H     H_    0.765482 0.122217 0.926534 0.156099
H62   H     H_    0.853061 0.129286 0.882163 0.160448
O3    O     O_3   0.795141 0.910839 0.980799 -0.628414
C91   C     C_3   0.853959 0.949892 0.887562 -0.285236
H63   H     H_    0.840282 0.980145 0.840175 0.122755
H64   H     H_    0.899188 0.909629 0.833221 0.141755
H65   H     H_    0.871116 0.995074 0.917016 0.182797
O4    O     O_3   0.220363 0.198114 0.983694 -0.647571
C92   C     C_3   0.195033 0.163474 0.085058 -0.238373
H66   H     H_    0.179764 0.207991 0.149027 0.131739
H67   H     H_    0.234592 0.122469 0.072939 0.156119
H68   H     H_    0.147035 0.129529 0.117229 0.160609
O5    O     O_3   0.698242 0.383783 0.028495 -0.646346
C93   C     C_3   0.693649 0.456938 0.074589 -0.248119
H69   H     H_    0.743645 0.490332 0.018458 0.153777
H70   H     H_    0.679028 0.450319 0.158094 0.137101
H71   H     H_    0.651632 0.491642 0.084856 0.166915
O6    O     O_3   0.200452 0.793063 0.221281 -0.627295
C94   C     C_3   0.207998 0.864827 0.257214 -0.270424
H72   H     H_    0.162562 0.904222 0.289811 0.130297
H73   H     H_    0.258511 0.893850 0.190278 0.133156
H74   H     H_    0.209015 0.853060 0.326260 0.182237
O7    O     O_3   0.302010 0.384107 0.970955 -0.646420
C95   C     C_3   0.305420 0.457874 0.927217 -0.246922
H75   H     H_    0.317823 0.452419 0.845206 0.136889
H76   H     H_    0.348408 0.492071 0.914629 0.166568
H77   H     H_    0.255720 0.491114 0.986060 0.153905
O8    O     O_3   0.799575 0.793091 0.778678 -0.627301
C96   C     C_3   0.791991 0.864852 0.742791 -0.270431
H78   H     H_    0.837407 0.904269 0.710215 0.130285
H79   H     H_    0.741463 0.893850 0.809744 0.133165
H80   H     H_    0.790979 0.853087 0.673739 0.182233

loop_
_geom_bond_atom_site_label_1
_geom_bond_atom_site_label_2
_geom_bond_distance
_ccdc_geom_bond_type
N21   Ni4   1.851642 S    
O2    C90   1.410368 S    
N18   Ni1   1.851644 S    
C2    N2    1.332552 A    
O6    C94   1.409832 S    
C16   N16   1.330815 A    
C92   H66   1.114278 S    
C85   O6    1.392617 S    
N1    N27   1.378657 A    
C95   H77   1.111773 S    
C62   H46   1.080441 S    
N5    Ni3   1.851183 S    
C21   N21   1.332483 A    
C60   H44   1.080591 S    
C31   H31   1.080686 S    
C9    C41   1.383613 A    
O5    C93   1.412177 S    
C2    C34   1.376558 A    
C52   H36   1.080643 S    
C96   H78   1.112647 S    
C17   N17   1.333939 A    
C14   C46   1.382543 A    
C77   H54   1.087269 S    
N14   Ni8   1.851369 S    
C57   H41   1.080603 S    
C47   C70   1.460086 S    
C26   H26   1.081517 S    
C96   H80   1.109325 S    
C56   H40   1.080305 S    
N12   N20   1.366158 A    
N4    Ni1   1.851223 S    
C93   H70   1.114680 S    
C64   C72   1.401645 A    
C19   C43   1.382980 A    
C6    N6    1.329368 A    
C3    C35   1.384037 A    
C1    C33   1.384002 A    
C27   C33   1.373614 A    
C17   H17   1.072086 S    
C14   H14   1.079990 S    
C25   C35   1.373454 A    
C87   O8    1.392628 S    
C29   N29   1.348564 A    
C74   C82   1.351482 D    
C37   C79   1.469415 S    
N28   Ni6   1.850617 S    
C74   H49   1.087270 S    
C20   H20   1.075849 S    
C40   C78   1.450736 S    
N7    Ni4   1.851225 S    
C35   C73   1.450610 S    
C12   C44   1.388231 A    
C21   H21   1.079707 S    
C10   H10   1.077682 S    
C44   C65   1.460805 S    
C79   H56   1.087271 S    
O4    C92   1.410352 S    
C33   C75   1.450860 S    
C23   H23   1.079708 S    
C51   C63   1.381535 A    
C86   O5    1.393257 S    
C81   C86   1.466427 S    
C24   H24   1.080007 S    
C3    N3    1.328462 A    
N29   Ni8   1.850732 S    
C59   C67   1.401093 A    
C32   N32   1.334066 A    
C75   C83   1.334697 D    
C5    H5    1.079150 S    
C20   N20   1.335082 A    
C84   C87   1.487567 S    
C27   N27   1.339622 A    
C51   H35   1.080697 S    
N13   Ni7   1.851369 S    
C63   H47   1.080367 S    
C52   C64   1.383956 A    
C89   H57   1.112458 S    
C29   H29   1.080684 S    
C8    H8    1.079434 S    
C15   N15   1.334092 A    
C32   H32   1.081897 S    
C6    C38   1.386881 A    
C92   H67   1.112274 S    
C10   C42   1.388247 A    
C13   C45   1.383030 A    
C78   H53   1.087863 S    
C55   C59   1.383162 A    
C81   O2    1.390229 S    
N16   N24   1.366158 A    
C91   H65   1.108725 S    
C54   H38   1.080305 S    
C25   H25   1.078120 S    
O8    C96   1.409830 S    
C14   N14   1.330819 A    
N16   Ni7   1.851255 S    
C51   C68   1.401187 A    
C5    C37   1.383587 A    
C28   H28   1.081519 S    
C78   C86   1.337040 D    
C48   C69   1.455606 S    
C30   C40   1.371690 A    
C90   H60   1.114279 S    
C18   H18   1.075846 S    
N26   Ni5   1.850730 S    
C49   C61   1.381536 A    
C1    H1    1.074929 S    
C95   H75   1.113873 S    
C91   H64   1.110886 S    
C49   C66   1.401183 A    
C9    N9    1.334160 A    
C53   C70   1.402315 A    
N10   Ni6   1.851369 S    
C26   C36   1.389507 A    
C7    H7    1.079147 S    
C22   H22   1.080005 S    
N3    Ni2   1.851225 S    
C53   C57   1.383164 A    
N13   N21   1.366157 A    
C12   N12   1.333791 A    
C15   C47   1.383012 A    
N7    N29   1.378653 A    
C21   C45   1.381025 A    
C13   N13   1.334109 A    
N20   Ni2   1.851678 S    
C22   C46   1.382028 A    
C24   N24   1.330204 A    
O7    C95   1.412056 S    
C90   H61   1.112282 S    
C31   N31   1.348551 A    
C83   O4    1.390218 S    
N3    N25   1.378653 A    
N8    N30   1.378658 A    
C6    H6    1.079492 S    
C18   N18   1.335072 A    
N30   Ni7   1.850730 S    
C34   C76   1.471824 S    
C94   H72   1.112656 S    
C22   N22   1.330201 A    
N17   Ni2   1.851642 S    
C11   C43   1.383576 A    
N23   Ni3   1.851678 S    
C80   H55   1.087854 S    
C59   H43   1.080603 S    
C41   C68   1.456505 S    
N27   Ni5   1.850613 S    
C88   O7    1.393670 S    
C57   C65   1.401102 A    
C19   N19   1.333969 A    
C63   C71   1.401265 A    
C8    C40   1.386933 A    
C12   H12   1.077679 S    
N1    Ni1   1.851183 S    
C76   H51   1.087272 S    
C28   N28   1.350383 A    
C39   C77   1.469444 S    
C61   C69   1.401271 A    
N15   Ni8   1.851253 S    
C94   H73   1.111142 S    
C60   C68   1.400775 A    
C42   C67   1.460806 S    
C4    C36   1.376562 A    
C92   H68   1.107983 S    
N2    N28   1.378652 A    
C29   C39   1.398731 A    
C4    H4    1.078131 S    
N15   N23   1.366158 A    
C89   H58   1.110894 S    
C2    H2    1.078134 S    
C18   C42   1.388537 A    
N31   Ni7   1.850613 S    
N2    Ni2   1.851186 S    
C10   N10   1.333799 A    
C79   C87   1.351100 D    
C54   C69   1.401312 A    
C53   H37   1.080199 S    
C80   C88   1.337258 D    
C76   C84   1.351482 D    
C54   C58   1.381285 A    
C38   C80   1.450808 S    
C16   C48   1.382535 A    
C23   C47   1.381039 A    
C93   H69   1.112804 S    
N6    N32   1.378652 A    
N32   Ni8   1.850617 S    
C17   C41   1.382963 A    
C49   H33   1.080703 S    
C91   H63   1.112446 S    
C58   C66   1.400778 A    
C95   H76   1.109157 S    
N9    N17   1.366157 A    
C32   C38   1.371677 A    
C30   N30   1.334064 A    
N22   Ni3   1.851644 S    
C50   H34   1.080643 S    
N5    N31   1.378657 A    
C83   C88   1.466660 S    
N24   Ni4   1.851678 S    
C1    N1    1.328457 A    
C11   H11   1.072053 S    
C26   N26   1.350386 A    
C89   H59   1.108713 S    
C56   C60   1.381289 A    
C90   H62   1.107978 S    
C73   C81   1.334534 D    
C96   H79   1.111138 S    
C93   H71   1.109448 S    
C27   H27   1.078095 S    
O1    C89   1.409611 S    
C61   H45   1.080369 S    
N4    N26   1.378658 A    
N12   Ni5   1.851255 S    
C58   H42   1.080589 S    
C7    N7    1.329138 A    
C82   O1    1.392170 S    
N6    Ni4   1.851186 S    
C8    N8    1.329249 A    
C15   H15   1.079967 S    
C62   C70   1.401651 A    
C28   C34   1.389500 A    
C16   H16   1.079991 S    
N19   Ni1   1.851678 S    
C55   H39   1.080199 S    
C50   C65   1.401986 A    
N14   N22   1.366157 A    
C43   C66   1.456504 S    
C3    H3    1.074984 S    
N11   Ni6   1.851253 S    
C25   N25   1.339514 A    
O3    C91   1.409604 S    
C4    N4    1.332553 A    
C11   N11   1.334142 A    
C94   H74   1.109326 S    
C19   H19   1.072067 S    
N25   Ni6   1.850732 S    
C20   C44   1.388546 A    
N8    Ni3   1.851223 S    
N11   N19   1.366158 A    
C30   H30   1.081898 S    
C5    N5    1.329145 A    
C52   C67   1.401994 A    
C13   H13   1.079967 S    
C75   H52   1.086826 S    
N10   N18   1.366157 A    
C50   C62   1.383952 A    
C31   C37   1.398708 A    
C84   O3    1.392201 S    
C7    C39   1.383583 A    
C36   C74   1.471828 S    
C73   H50   1.086864 S    
C45   C72   1.460089 S    
C77   C85   1.351109 D    
C55   C72   1.402321 A    
C24   C48   1.382029 A    
N9    Ni5   1.851369 S    
C23   N23   1.332498 A    
C46   C71   1.455609 S    
C64   H48   1.080441 S    
C56   C71   1.401318 A    
C9    H9    1.072044 S    
C82   C85   1.487553 S    
