data_mof_unit_65272.cif
_audit_creation_date              2012-12-10T19:38:59-0500
_audit_creation_method            fapswitch 2.2
_symmetry_space_group_name_H-M    P1
_symmetry_Int_Tables_number       1
_space_group_crystal_system       triclinic
_cell_length_a                    19.2338
_cell_length_b                    18.327831
_cell_length_c                    23.44061
_cell_angle_alpha                 90.068682
_cell_angle_beta                  90.133321
_cell_angle_gamma                 90.005952
_cell_volume                      8263.11099277

loop_
_atom_site_label
_atom_site_type_symbol
_atom_type_description
_atom_site_fract_x
_atom_site_fract_y
_atom_site_fract_z
_atom_type_partial_charge
C1    C     C_R   0.365649 0.499995 0.499978 0.993483
C2    C     C_R   0.500670 0.433750 0.702921 -0.181019
C3    C     C_R   0.499183 0.566411 0.237841 0.407105
C4    C     C_R   0.500801 0.433591 0.762158 0.407108
C5    C     C_R   0.499323 0.499970 0.208173 0.120333
C6    C     C_R   0.500673 0.500028 0.791826 0.120356
C7    C     C_R   0.254296 0.539791 0.458242 0.336475
C8    C     C_R   0.745705 0.460205 0.541753 0.336482
C9    C     C_R   0.745471 0.539870 0.458332 0.339100
C10   C     C_R   0.254527 0.460130 0.541666 0.339104
C11   C     C_R   0.182202 0.539558 0.458471 -0.160897
C12   C     C_R   0.634351 0.500005 0.500022 0.993480
C13   C     C_R   0.817799 0.460435 0.541522 -0.160893
C14   C     C_R   0.817565 0.539641 0.458557 -0.165927
C15   C     C_R   0.182433 0.460356 0.541439 -0.165921
C16   C     C_R   0.145920 0.499962 0.499961 -0.065550
C17   C     C_R   0.854080 0.500030 0.500032 -0.065549
C18   C     C_R   0.290613 0.499977 0.499963 -0.229162
C19   C     C_R   0.709387 0.500022 0.500035 -0.229164
C20   C     C_R   0.499864 0.499972 0.389081 0.977266
C21   C     C_R   0.500135 0.500028 0.610919 0.977266
C22   C     C_R   0.929882 0.500013 0.500015 0.349604
C23   C     C_R   0.499487 0.433518 0.237704 0.413187
C24   C     C_R   0.070118 0.499974 0.499974 0.349604
C25   C     C_R   0.458978 0.273455 0.462390 0.053448
C26   C     C_R   0.541031 0.726545 0.537603 0.053458
C27   C     C_R   0.540977 0.273584 0.537648 0.062796
C28   C     C_R   0.459014 0.726416 0.462358 0.062783
C29   C     C_R   0.458193 0.196714 0.461673 -0.223996
C30   C     C_R   0.541817 0.803286 0.538320 -0.223996
C31   C     C_R   0.541754 0.196847 0.538381 -0.223244
C32   C     C_R   0.458237 0.803153 0.461625 -0.223244
C33   C     C_R   0.499979 0.156898 0.500024 0.068856
C34   C     C_R   0.500521 0.566476 0.762295 0.413189
C35   C     C_R   0.500021 0.843102 0.499976 0.068858
C36   C     C_R   0.500013 0.925175 0.499985 0.322337
C37   C     C_R   0.499987 0.074825 0.500015 0.322337
C38   C     C_R   0.562605 0.500281 0.880862 0.618224
C39   C     C_R   0.437390 0.499716 0.119137 0.618215
C40   C     C_R   0.438193 0.499744 0.880349 0.618943
C41   C     C_R   0.561804 0.500252 0.119651 0.618933
C42   C     C_R   0.436632 0.499730 0.939885 -0.034757
C43   C     C_R   0.563364 0.500267 0.060114 -0.034756
C44   C     C_R   0.500099 0.500002 0.970039 -0.005973
C45   C     C_R   0.499616 0.433657 0.296947 -0.240591
C46   C     C_R   0.499897 0.499995 0.029960 -0.005969
C47   C     C_R   0.563767 0.500281 0.940413 -0.034271
C48   C     C_R   0.436228 0.499717 0.059587 -0.034271
C49   C     C_R   0.373504 0.499453 0.969782 -0.113433
C50   C     C_R   0.626493 0.500543 0.030218 -0.113434
C51   C     C_R   0.373303 0.499446 0.029163 -0.113797
C52   C     C_R   0.626693 0.500550 0.970836 -0.113795
C53   C     C_R   0.500394 0.566338 0.703053 -0.240592
C54   C     C_R   0.499606 0.499949 0.326897 -0.160700
C55   C     C_R   0.500393 0.500050 0.673103 -0.160715
C56   C     C_R   0.499316 0.566253 0.297078 -0.181006
Cl1   Cl    Cl    0.499634 0.349677 0.201080 -0.517725
Cl2   Cl    Cl    0.500389 0.650311 0.798920 -0.517737
Cl3   Cl    Cl    0.498919 0.650266 0.201398 -0.500947
Cl4   Cl    Cl    0.501049 0.349740 0.798601 -0.500960
Cl5   Cl    Cl    0.297180 0.588071 0.403571 -0.585999
Cl6   Cl    Cl    0.702824 0.411925 0.596424 -0.585992
Cl7   Cl    Cl    0.702277 0.588227 0.403706 -0.546651
Cl8   Cl    Cl    0.297720 0.411776 0.596295 -0.546651
H1    H     H_    0.324151 0.499241 0.947441 0.203578
H2    H     H_    0.500251 0.617976 0.680611 0.202520
H3    H     H_    0.499225 0.617894 0.319620 0.209650
H4    H     H_    0.500753 0.382113 0.680379 0.209651
H5    H     H_    0.154774 0.570098 0.425919 0.204575
H6    H     H_    0.845228 0.429892 0.574073 0.204574
H7    H     H_    0.844809 0.570197 0.426010 0.204542
H8    H     H_    0.155188 0.429801 0.573986 0.204542
H9    H     H_    0.426652 0.303452 0.432754 0.139244
H10   H     H_    0.573365 0.696548 0.567233 0.139244
H11   H     H_    0.573259 0.303674 0.567311 0.174276
H12   H     H_    0.675846 0.500754 0.052558 0.203579
H13   H     H_    0.426724 0.696326 0.432701 0.174283
H14   H     H_    0.425038 0.168909 0.431251 0.173005
H15   H     H_    0.574979 0.831091 0.568736 0.173004
H16   H     H_    0.574892 0.169149 0.568819 0.178654
H17   H     H_    0.425091 0.830851 0.431193 0.178653
H18   H     H_    0.323802 0.499228 0.051091 0.203420
H19   H     H_    0.676194 0.500768 0.948908 0.203419
H20   H     H_    0.499768 0.382016 0.319389 0.202516
N1    N     N_R   0.500493 0.500018 0.852492 -0.331984
N2    N     N_R   0.459567 0.963472 0.462861 -0.149748
N3    N     N_R   0.459555 0.036411 0.462876 -0.150641
N4    N     N_R   0.540445 0.963589 0.537124 -0.150641
N5    N     N_R   0.499503 0.499979 0.147508 -0.331988
N6    N     N_R   0.034582 0.461155 0.539482 -0.151655
N7    N     N_R   0.965418 0.538831 0.460506 -0.151653
N8    N     N_R   0.965647 0.461174 0.539502 -0.152093
N9    N     N_R   0.034354 0.538812 0.460486 -0.152091
N10   N     N_R   0.500000 0.310560 0.500000 -0.105032
N11   N     N_R   0.500000 0.689440 0.500000 -0.105031
N12   N     N_R   0.540433 0.036528 0.537138 -0.149748
O1    O     O_R   0.398130 0.560830 0.500010 -0.597403
O2    O     O_2   0.377216 0.499457 0.148644 -0.503486
O3    O     O_2   0.378215 0.499489 0.850345 -0.501580
O4    O     O_2   0.621783 0.500506 0.149654 -0.501578
O5    O     O_R   0.601870 0.439170 0.499990 -0.597397
O6    O     O_R   0.601870 0.560830 0.499990 -0.595617
O7    O     O_R   0.398130 0.439170 0.500010 -0.595613
O8    O     O_R   0.499970 0.560830 0.416150 -0.606121
O9    O     O_R   0.500030 0.439170 0.583850 -0.606130
O10   O     O_R   0.500030 0.560830 0.583850 -0.643256
O11   O     O_R   0.499970 0.439170 0.416150 -0.643261
O12   O     O_2   0.622778 0.500541 0.851355 -0.503489
Zn1   Zn    Zn3+2 0.500000 0.581210 0.500000 1.018630
Zn2   Zn    Zn3+2 0.500000 0.418790 0.500000 1.018630

loop_
_geom_bond_atom_site_label_1
_geom_bond_atom_site_label_2
_ccdc_geom_bond_type
C41   N5    A    
O9    Zn2   S    
N4    N12   A    
C8    C13   A    
C23   C45   A    
C14   H7    S    
C35   C36   S    
C40   O3    S    
C31   H16   S    
C36   N4    A    
C7    C11   A    
C15   H8    S    
C1    C18   S    
C6    N1    S    
C49   H1    S    
C30   C35   A    
C28   N11   A    
C2    H4    S    
C10   C15   A    
O8    Zn1   S    
C13   H6    S    
C15   C16   A    
C29   C33   A    
C11   C16   A    
C7    Cl5   S    
C9    C19   A    
C48   C51   A    
C29   H14   S    
C49   C51   A    
C50   C52   A    
C22   N7    A    
C31   C33   A    
C1    O7    A    
C21   O10   A    
C44   C47   A    
C20   O11   A    
C40   C42   A    
C25   N10   A    
C16   C24   S    
C41   C43   A    
C14   C17   A    
C42   C44   A    
C27   H11   S    
C44   C46   A    
C46   C48   A    
C53   C55   A    
C25   C29   A    
C54   C56   A    
C8    C19   A    
C38   N1    A    
C27   C31   A    
C32   C35   A    
C28   C32   A    
C4    C6    A    
N11   Zn1   S    
C1    O1    A    
C21   C55   S    
N2    N3    A    
C39   O2    S    
C36   N2    A    
O5    Zn2   S    
N10   Zn2   S    
C33   C37   S    
C6    C34   A    
C37   N12   A    
C40   N1    A    
C52   H19   S    
C2    C4    A    
C9    C14   A    
C12   O6    A    
C28   H13   S    
C50   H12   S    
N7    N9    A    
O1    Zn1   S    
C3    C56   A    
N6    N8    A    
C5    C23   A    
C7    C18   A    
C4    Cl4   S    
C41   O4    S    
C53   H2    S    
C51   H18   S    
C38   C47   A    
C30   H15   S    
C20   C54   S    
C45   C54   A    
C26   C30   A    
O7    Zn2   S    
O11   Zn2   S    
C45   H20   S    
C32   H17   S    
C26   N11   A    
C23   Cl1   S    
C9    Cl7   S    
C37   N3    A    
C10   Cl8   S    
C3    C5    A    
C24   N6    A    
C11   H5    S    
C43   C50   A    
C47   C52   A    
C20   O8    A    
C56   H3    S    
C17   C22   S    
C13   C17   A    
C2    C55   A    
C27   N10   A    
C12   O5    A    
C24   N9    A    
C10   C18   A    
C12   C19   S    
C26   H10   S    
C25   H9    S    
C38   O12   S    
C43   C46   A    
C21   O9    A    
C42   C49   A    
C34   C53   A    
C34   Cl2   S    
C22   N8    A    
O6    Zn1   S    
C39   N5    A    
C5    N5    S    
C8    Cl6   S    
C39   C48   A    
O10   Zn1   S    
C3    Cl3   S    
