data_mof_unit_40119.cif
_audit_creation_date              2012-12-10T20:21:42-0500
_audit_creation_method            fapswitch 2.2
_symmetry_space_group_name_H-M    P1
_symmetry_Int_Tables_number       1
_space_group_crystal_system       triclinic
_cell_length_a                    19.197434
_cell_length_b                    18.647323
_cell_length_c                    8.897155
_cell_angle_alpha                 89.80783
_cell_angle_beta                  92.515309
_cell_angle_gamma                 89.675603
_cell_volume                      3181.86989706

loop_
_atom_site_label
_atom_site_type_symbol
_atom_type_description
_atom_site_fract_x
_atom_site_fract_y
_atom_site_fract_z
_atom_type_partial_charge
C1    C     C_R   0.366133 0.500068 0.497421 0.892430
C2    C     C_R   0.633830 0.499829 0.500453 0.889541
C3    C     C_R   0.535174 0.726580 0.614433 0.280691
C4    C     C_R   0.463550 0.272984 0.387922 0.250406
C5    C     C_R   0.465558 0.728290 0.386126 0.238659
C6    C     C_R   0.536499 0.272340 0.612131 0.250358
C7    C     C_R   0.534368 0.802863 0.618837 -0.017667
C8    C     C_R   0.464455 0.196348 0.385549 -0.014259
C9    C     C_R   0.467798 0.804861 0.383107 0.016495
C10   C     C_R   0.536014 0.195722 0.614422 -0.014825
C11   C     C_R   0.501808 0.842569 0.500566 -0.025867
C12   C     C_R   0.500375 0.157590 0.499915 0.011287
C13   C     C_R   0.438868 0.962318 0.510235 -0.170630
C14   C     C_R   0.563468 0.037847 0.489359 -0.161607
C15   C     C_R   0.563845 0.962339 0.488887 -0.205840
C16   C     C_R   0.438415 0.037836 0.509575 -0.169846
C17   C     C_R   0.500752 0.076662 0.499725 0.206485
C18   C     C_R   0.501630 0.923497 0.500667 0.171119
C19   C     C_R   0.499403 0.500081 0.218722 0.934682
C20   C     C_R   0.500203 0.499922 0.781254 0.939389
C21   C     C_1   0.499519 0.500117 0.065391 -0.212610
C22   C     C_1   0.499836 0.499892 0.934563 -0.208882
C23   C     C_R   0.735542 0.504993 0.342229 0.136991
C24   C     C_R   0.257010 0.504946 0.341111 0.131943
C25   C     C_R   0.252812 0.489431 0.614758 0.138036
C26   C     C_R   0.752621 0.492096 0.616317 0.136559
C27   C     C_R   0.807486 0.502342 0.328852 -0.144107
C28   C     C_R   0.184538 0.502432 0.329686 -0.138474
C29   C     C_R   0.180338 0.487169 0.600252 -0.147257
C30   C     C_R   0.824347 0.489627 0.599903 -0.142194
C31   C     C_R   0.851297 0.494358 0.457022 0.100151
C32   C     C_R   0.146709 0.493855 0.458529 0.100326
C33   C     C_R   0.708349 0.499320 0.486619 -0.040381
C34   C     C_R   0.290965 0.499570 0.484770 -0.043933
C35   C     C_R   0.961127 0.555030 0.402430 0.024177
C36   C     C_R   0.036149 0.428782 0.480701 0.022569
C37   C     C_R   0.034191 0.555015 0.403710 0.024015
C38   C     C_R   0.963109 0.428828 0.479551 0.022985
C39   C     C_R   0.071025 0.492239 0.445496 0.050356
C40   C     C_R   0.926372 0.492296 0.443042 0.050513
H1    H     H_    0.829679 0.506183 0.219144 0.141010
H2    H     H_    0.157226 0.506544 0.220671 0.140579
H3    H     H_    0.149766 0.480267 0.698846 0.139904
H4    H     H_    0.859572 0.484298 0.698011 0.139568
H5    H     H_    0.390096 0.934019 0.518914 0.136356
H6    H     H_    0.612217 0.066131 0.480167 0.136591
H7    H     H_    0.612835 0.934147 0.478297 0.134775
H8    H     H_    0.389315 0.066102 0.517953 0.135853
N1    N     N_R   0.500000 0.689440 0.500000 -0.114457
N2    N     N_R   0.500000 0.310560 0.500000 -0.105207
O1    O     O_R   0.398180 0.560840 0.499960 -0.622649
O2    O     O_R   0.601820 0.439160 0.500040 -0.622390
O3    O     O_R   0.601820 0.560840 0.500040 -0.624837
O4    O     O_R   0.398180 0.439160 0.499960 -0.624493
O5    O     O_R   0.500000 0.560800 0.285330 -0.618691
O6    O     O_R   0.500000 0.439200 0.714670 -0.619655
O7    O     O_R   0.500000 0.560800 0.714670 -0.620792
O8    O     O_R   0.500000 0.439200 0.285330 -0.619238
Zn1   Zn    Zn3+2 0.500000 0.581210 0.500000 0.928588
Zn2   Zn    Zn3+2 0.500000 0.418790 0.500000 0.929611
C41   C     C_3   0.688607 0.513280 0.202751 -0.907318
H9    H     H_    0.655900 0.562254 0.211469 0.252230
H10   H     H_    0.718958 0.518400 0.100085 0.239025
H11   H     H_    0.654413 0.465695 0.189646 0.243057
C42   C     C_3   0.296976 0.511251 0.199662 -0.934404
H12   H     H_    0.331307 0.463720 0.187835 0.237483
H13   H     H_    0.261410 0.514952 0.098387 0.242203
H14   H     H_    0.329004 0.560272 0.203084 0.240141
C43   C     C_3   0.288608 0.480322 0.767856 -0.923928
H15   H     H_    0.318357 0.529472 0.798218 0.243511
H16   H     H_    0.250391 0.470199 0.855311 0.235376
H17   H     H_    0.324943 0.433792 0.767390 0.253439
C44   C     C_3   0.724263 0.487681 0.771368 -0.952971
H18   H     H_    0.690588 0.439882 0.779933 0.242497
H19   H     H_    0.766784 0.483169 0.859686 0.241099
H20   H     H_    0.693187 0.536587 0.793835 0.237159
N3    N     N_3   0.921673 0.618837 0.365674 -0.460556
H21   H     H_    0.936612 0.659195 0.441441 0.184762
H22   H     H_    0.933050 0.635257 0.257092 0.179884
N4    N     N_3   0.075632 0.365043 0.517864 -0.460066
H23   H     H_    0.063978 0.348502 0.626203 0.178886
H24   H     H_    0.060928 0.324729 0.441792 0.183887
N5    N     N_3   0.071729 0.618814 0.368158 -0.461516
H25   H     H_    0.056526 0.635204 0.259111 0.179367
H26   H     H_    0.058877 0.659194 0.443410 0.184607
N6    N     N_3   0.925495 0.365222 0.516103 -0.459476
H27   H     H_    0.937972 0.324744 0.440757 0.184012
H28   H     H_    0.941048 0.348858 0.624970 0.179013
C45   C     C_3   0.574400 0.687746 0.741081 -0.774573
H29   H     H_    0.538406 0.674878 0.831472 0.234857
H30   H     H_    0.600672 0.639263 0.702000 0.257667
H31   H     H_    0.617328 0.720655 0.791343 0.217915
C46   C     C_3   0.424631 0.312041 0.261087 -0.828940
H32   H     H_    0.381062 0.280425 0.210490 0.194818
H33   H     H_    0.399254 0.360928 0.300047 0.274190
H34   H     H_    0.460818 0.324437 0.170787 0.238024
C47   C     C_3   0.426562 0.690460 0.259767 -0.837746
H35   H     H_    0.382593 0.722661 0.210527 0.197045
H36   H     H_    0.462464 0.677716 0.169042 0.242019
H37   H     H_    0.401960 0.641974 0.301250 0.274903
C48   C     C_3   0.575118 0.310751 0.738883 -0.832194
H38   H     H_    0.619069 0.278891 0.789154 0.195501
H39   H     H_    0.599830 0.359706 0.699478 0.273985
H40   H     H_    0.538866 0.322960 0.829251 0.238313
N7    N     N_3   0.564804 0.839143 0.747742 -0.464113
H41   H     H_    0.527225 0.872862 0.792147 0.199506
H42   H     H_    0.606497 0.870173 0.714131 0.189875
N8    N     N_3   0.430854 0.156760 0.264863 -0.458792
H43   H     H_    0.376983 0.164681 0.267055 0.185363
H44   H     H_    0.449012 0.174793 0.162381 0.197595
N9    N     N_3   0.436780 0.845371 0.259621 -0.452361
H45   H     H_    0.455941 0.826359 0.158929 0.200429
H46   H     H_    0.382683 0.839330 0.258308 0.182786
N10   N     N_3   0.569843 0.155523 0.735079 -0.463211
H47   H     H_    0.623665 0.163190 0.732935 0.185522
H48   H     H_    0.551572 0.173302 0.837563 0.198006

loop_
_geom_bond_atom_site_label_1
_geom_bond_atom_site_label_2
_ccdc_geom_bond_type
C9    N9    S    
C15   C18   A    
C13   H5    S    
C11   C18   S    
C46   H32   S    
O5    Zn1   S    
C41   H11   S    
C44   H18   S    
N9    H45   S    
C15   H7    S    
C4    C8    A    
C5    N1    A    
C16   H8    S    
C47   H35   S    
C3    N1    A    
C14   H6    S    
O4    Zn2   S    
N3    H21   S    
N8    H43   S    
C7    C11   A    
N7    H42   S    
C48   H38   S    
C13   C18   A    
C38   N6    S    
C35   C37   A    
C29   C32   A    
C3    C7    A    
C30   C31   A    
N6    H28   S    
O7    Zn1   S    
O8    Zn2   S    
C26   C44   S    
C31   C40   S    
C41   H10   S    
C6    C48   S    
C43   H16   S    
O2    Zn2   S    
C16   C17   A    
C23   C33   A    
C12   C17   S    
C7    N7    S    
C23   C27   A    
C45   H30   S    
C10   N10   S    
C20   O6    A    
C25   C34   A    
C46   H33   S    
C21   C22   T    
C29   H3    S    
C25   C29   A    
C44   H19   S    
C14   C17   A    
C30   H4    S    
C41   H9    S    
C8    N8    S    
C47   H36   S    
C1    C34   S    
N10   H47   S    
C10   C12   A    
N3    H22   S    
C19   O8    A    
O3    Zn1   S    
C27   C31   A    
C28   C32   A    
N4    H24   S    
C36   N4    S    
N6    H27   S    
C42   H13   S    
C35   N3    S    
C24   C34   A    
O6    Zn2   S    
C4    N2    A    
C43   H17   S    
C1    O4    A    
C5    C9    A    
C1    O1    A    
C27   H1    S    
C26   C33   A    
N5    H25   S    
C8    C12   A    
C42   H14   S    
N9    H46   S    
C6    N2    A    
C45   H31   S    
C9    C11   A    
C2    O2    A    
C24   C42   S    
C2    C33   S    
N5    H26   S    
C5    C47   S    
C26   C30   A    
C46   H34   S    
C44   H20   S    
O1    Zn1   S    
C47   H37   S    
C19   O5    A    
C19   C21   S    
C36   C39   A    
C24   C28   A    
C20   C22   S    
N4    H23   S    
C2    O3    A    
C6    C10   A    
N10   H48   S    
C48   H40   S    
N7    H41   S    
N1    Zn1   S    
C3    C45   S    
N2    Zn2   S    
C36   C38   A    
C35   C40   A    
C45   H29   S    
C37   C39   A    
C38   C40   A    
C28   H2    S    
N8    H44   S    
C43   H15   S    
C4    C46   S    
C23   C41   S    
C25   C43   S    
C48   H39   S    
C42   H12   S    
C13   C16   A    
C32   C39   S    
C14   C15   A    
C37   N5    S    
C20   O7    A    
