data_mof_unit_66983.cif
_audit_creation_date              2013-03-05T15:58:12-0500
_audit_creation_method            fapswitch 2.2
_symmetry_space_group_name_H-M    P1
_symmetry_Int_Tables_number       1
_space_group_crystal_system       triclinic
_cell_length_a                    8.539119
_cell_length_b                    12.887761
_cell_length_c                    14.509988
_cell_angle_alpha                 94.867028
_cell_angle_beta                  90.125185
_cell_angle_gamma                 99.096008
_cell_volume                      1570.86288511

loop_
_atom_site_label
_atom_site_type_symbol
_atom_site_description
_atom_site_fract_x
_atom_site_fract_y
_atom_site_fract_z
_atom_type_partial_charge
P1    P     P_3+3 0.054400 0.427280 0.286870 0.562187
O1    O     O_2   0.887370 0.460630 0.272300 -0.348674
O2    O     O_3   0.129410 0.451380 0.388510 -0.280689
O3    O     O_3   0.670210 0.653170 0.329170 -0.267353
O4    O     O_2   0.754770 0.555985 0.170955 -0.346810
O5    O     O_3   0.054400 0.293295 0.253936 -0.595166
O6    O     O_3   0.731634 0.744537 0.160041 -0.536087
H1    H     H_    0.729099 0.896871 0.209524 0.149708
C1    C     C_3   0.585245 0.856177 0.085876 -0.958282
H2    H     H_    0.601420 0.942829 0.084773 0.272693
H3    H     H_    0.652670 0.825428 0.027036 0.300327
P2    P     P_3+3 0.668300 0.742890 0.573060 0.502276
P3    P     P_3+3 0.141811 0.842166 0.389820 0.517534
O7    O     O_2   0.845380 0.761330 0.544970 -0.383153
O8    O     O_3   0.088930 0.704860 0.376040 -0.327344
O9    O     O_2   0.026797 0.883306 0.460565 -0.370798
O10   O     O_3   0.678717 0.765184 0.693926 -0.549157
O11   O     O_3   0.089546 0.890902 0.286703 -0.491791
C2    C     C_3   0.128357 0.824597 0.211162 0.313361
H4    H     H_    0.066139 0.742384 0.213678 0.126440
H5    H     H_    0.258882 0.827665 0.208815 0.078074
C3    C     C_3   0.077448 0.863268 0.121686 -0.724232
H6    H     H_    0.949564 0.846087 0.109232 0.270948
H7    H     H_    0.107154 0.949712 0.124904 0.314212
C4    C     C_3   0.207625 0.760699 0.657900 0.382620
H8    H     H_    0.325496 0.747537 0.632036 0.083602
H9    H     H_    0.113774 0.734354 0.604505 0.164029
C5    C     C_3   0.208949 0.877863 0.679357 -0.880163
H10   H     H_    0.289533 0.905946 0.738639 0.274695
H11   H     H_    0.250548 0.921275 0.619053 0.214029
H12   H     H_    0.087763 0.893210 0.696959 0.301646
Ba1   Ba    Ba6+2 0.855630 0.555280 0.454520 1.741899
C6    C     C_3   0.911305 0.227656 0.261825 0.930365
H13   H     H_    0.811338 0.270709 0.274938 0.086155
C7    C     C_3   0.885699 0.151357 0.174638 -0.723547
H14   H     H_    0.900238 0.195232 0.111810 0.241932
H15   H     H_    0.766375 0.104084 0.173499 0.203399
H16   H     H_    0.972390 0.095730 0.171964 0.274530
C8    C     C_3   0.716464 0.676271 0.733019 0.451926
H17   H     H_    0.839394 0.665642 0.715068 0.066758
H18   H     H_    0.632236 0.603861 0.709764 0.108526
C9    C     C_3   0.704435 0.694014 0.837691 -0.952342
H19   H     H_    0.784084 0.767032 0.863828 0.289552
H20   H     H_    0.738864 0.626949 0.871513 0.213289
H21   H     H_    0.580611 0.701810 0.856679 0.256017
P4    P     P_3+3 0.135310 0.572810 0.713130 0.477076
O12   O     O_2   0.302330 0.539400 0.727760 -0.355607
O13   O     O_3   0.060300 0.548700 0.611500 -0.385803
O14   O     O_3   0.519500 0.346920 0.670840 -0.413709
O15   O     O_3   0.176351 0.709953 0.739101 -0.570810
P5    P     P_3+3 0.048588 0.158295 0.624667 0.543117
O16   O     O_3   0.614310 0.373510 0.452640 -0.309524
O17   O     O_3   0.100780 0.295230 0.623970 -0.333965
O18   O     O_2   0.162962 0.109527 0.557802 -0.378522
O19   O     O_3   0.104428 0.125162 0.732257 -0.499787
Ba2   Ba    Ba6+2 0.334200 0.444810 0.545490 1.689807
P6    P     P_3+3 0.641958 0.631271 0.207096 0.577710
C10   C     C_3   0.645789 0.828120 0.177645 0.327615
H22   H     H_    0.547116 0.814006 0.226611 0.112504
H23   H     H_    0.458195 0.821917 0.075825 0.244508
O20   O     O_3   0.575400 0.626570 0.547370 -0.336660
C11   C     C_3   0.443222 0.196932 0.257140 0.730628
H24   H     H_    0.330099 0.213906 0.287054 0.085498
C12   C     C_3   0.412830 0.091221 0.195043 0.056705
H25   H     H_    0.318128 0.037965 0.227283 0.087685
H26   H     H_    0.517741 0.051456 0.196457 0.067675
P7    P     P_3+3 0.527544 0.236958 0.438970 0.533188
O21   O     O_2   0.344320 0.238700 0.455090 -0.344319
O22   O     O_3   0.556439 0.185619 0.324663 -0.652882
H27   H     H_    0.133783 0.823958 0.062475 0.226535
C13   C     C_3   0.032214 0.185634 0.799645 0.140242
H28   H     H_    0.091483 0.269295 0.803743 0.081875
H29   H     H_    0.903630 0.182151 0.785443 0.035456
C14   C     C_3   0.050618 0.143406 0.892643 0.327147
H30   H     H_    0.996817 0.192419 0.946663 0.024219
H31   H     H_    0.179200 0.149646 0.907651 0.177589
P8    P     P_3+3 0.543306 0.359870 0.791624 0.452925
C15   C     C_3   0.525188 0.159763 0.767707 0.426488
H32   H     H_    0.648983 0.183217 0.745476 0.009392
O23   O     O_2   0.424061 0.428818 0.832920 -0.380236
O24   O     O_3   0.474941 0.236583 0.830247 -0.482149
H33   H     H_    0.444444 0.144189 0.706139 0.120745
H34   H     H_    0.605996 0.071838 0.873376 0.300185
C16   C     C_3   0.519825 0.059082 0.814586 -0.846385
H35   H     H_    0.550346 0.995634 0.764476 0.227829
H36   H     H_    0.398838 0.036148 0.840922 0.284303
C17   C     C_R   0.979689 0.450735 0.057013 -0.115856
C18   C     C_R   0.176475 0.489230 0.190014 0.103723
C19   C     C_R   0.336730 0.514001 0.210723 -0.206897
C20   C     C_R   0.442907 0.574640 0.156699 0.297074
C21   C     C_R   0.395110 0.591861 0.067523 -0.399881
C22   C     C_R   0.240568 0.549525 0.034120 0.095066
C23   C     C_R   0.128784 0.497141 0.095125 0.007344
H37   H     H_    0.373981 0.493141 0.275247 0.215427
C24   C     C_R   0.051554 0.507190 0.901271 -0.018851
C25   C     C_R   0.939889 0.455777 0.962357 0.046897
C26   C     C_R   0.009604 0.505157 0.804114 0.230847
C27   C     C_R   0.859013 0.454457 0.773574 -0.521517
C28   C     C_R   0.746635 0.411595 0.834936 0.224431
C29   C     C_R   0.787572 0.410318 0.928346 -0.273114
C30   C     C_R   0.199605 0.556707 0.939962 -0.129692
H38   H     H_    0.479945 0.634091 0.023168 0.175482
H39   H     H_    0.699670 0.374447 0.974581 0.203686
H40   H     H_    0.825191 0.453266 0.701504 0.157084
H41   H     H_    0.895348 0.407362 0.100131 0.200376
H42   H     H_    0.286170 0.599024 0.896795 0.168174
C31   C     C_R   0.739841 0.177418 0.566091 -0.392838
C32   C     C_R   0.443716 0.809268 0.462104 0.183966
C33   C     C_R   0.405577 0.991271 0.451190 -0.319696
C34   C     C_R   0.349732 0.883796 0.435679 0.094890
C35   C     C_R   0.580392 0.844464 0.517193 0.077115
C36   C     C_R   0.634770 0.956429 0.536162 -0.078454
C37   C     C_R   0.545810 0.030307 0.501084 0.008473
C38   C     C_R   0.600500 0.141742 0.514572 0.277069
C39   C     C_R   0.837239 0.106574 0.592182 0.249699
C40   C     C_R   0.781008 0.997394 0.582225 -0.112045
H43   H     H_    0.336302 0.044513 0.424704 0.190935
H44   H     H_    0.857037 0.945730 0.606239 0.186855
H45   H     H_    0.783825 0.261252 0.574576 0.157095
S1    S     S_3+6 0.935770 0.156353 0.356200 -0.038755
O25   O     O_2   0.963162 0.235048 0.438791 -0.312259
O26   O     O_2   0.793966 0.073525 0.366414 -0.363367
O27   O     O_3   0.095460 0.098464 0.340122 -0.559443
H46   H     H_    0.093441 0.056908 0.393915 0.406893
S2    S     S_3+6 0.523107 0.305929 0.194852 -0.028499
O28   O     O_2   0.577555 0.396979 0.264288 -0.286061
O29   O     O_2   0.662171 0.283412 0.138592 -0.380199
O30   O     O_3   0.383679 0.332620 0.122621 -0.518509
H47   H     H_    0.442220 0.363416 0.069965 0.378311
S3    S     S_3+6 0.356635 0.096009 0.075690 -0.018206
O31   O     O_2   0.206215 0.141894 0.073907 -0.272711
O32   O     O_2   0.481051 0.160732 0.022514 -0.231556
O33   O     O_3   0.325730 0.974247 0.021531 -0.543051
H48   H     H_    0.415653 0.970190 0.979416 0.372731
S4    S     S_3+6 0.959399 0.008268 0.893439 -0.021502
O34   O     O_2   0.873246 0.994182 0.982718 -0.316245
O35   O     O_2   0.844429 0.976842 0.813698 -0.324497
O36   O     O_3   0.100185 0.930762 0.884989 -0.489361
H49   H     H_    0.045699 0.859709 0.897197 0.366652
S5    S     S_3+6 0.378143 0.675490 0.418590 -0.001407
O37   O     O_2   0.458136 0.580504 0.408422 -0.199310
O38   O     O_2   0.240133 0.638833 0.477546 -0.273726
O39   O     O_3   0.353149 0.704233 0.309196 -0.684953
H50   H     H_    0.257738 0.662190 0.281417 0.320736

loop_
_geom_bond_atom_site_label_1
_geom_bond_atom_site_label_2
_geom_bond_distance
_ccdc_geom_bond_type
S4    O36   1.678577 S    
C24   C25   1.427394 A    
S5    O39   1.680957 S    
O30   H47   0.990736 S    
C26   C27   1.399863 A    
C33   H43   1.067960 S    
O27   H46   0.982043 S    
C8    H18   1.111445 S    
C4    C5    1.513907 S    
C11   H24   1.105387 S    
C14   H31   1.107934 S    
P3    O11   1.754292 S    
C5    H10   1.100116 S    
C2    H5    1.109701 S    
P7    C38   1.887972 S    
S5    O38   1.496918 D    
Ba1   O20   2.980681 S    
O11   C2    1.404876 S    
P8    O23   1.543972 D    
O39   H50   0.970452 S    
C25   C29   1.409141 A    
O1    Ba1   2.848265 S    
P1    O1    1.572151 D    
O10   C8    1.401784 S    
C19   H37   1.057580 S    
C4    O15   1.401488 S    
Ba1   O16   2.863126 S    
C11   C12   1.553767 S    
H1    C10   1.111234 S    
P4    O12   1.572536 D    
H34   C16   1.109666 S    
C32   C34   1.420743 A    
P2    O10   1.752674 S    
S2    O30   1.679138 S    
O19   C13   1.403214 S    
C1    H2    1.104875 S    
O6    C10   1.402408 S    
C21   C22   1.413781 A    
S1    O27   1.662527 S    
C33   C37   1.398236 A    
P1    C18   1.905997 S    
S4    O35   1.502122 D    
C17   C25   1.423440 A    
Ba1   Ba2   4.754384 S    
Ba1   O13   2.883082 S    
C9    H20   1.107258 S    
C31   H45   1.082817 S    
C36   C37   1.432441 A    
S1    O26   1.498874 D    
C8    C9    1.522742 S    
P4    O13   1.592670 S    
P6    C20   1.862321 S    
P7    O21   1.585847 D    
S4    O34   1.501397 D    
C7    H16   1.107542 S    
S5    O37   1.490334 D    
C14   H30   1.110752 S    
C8    H17   1.108652 S    
C32   S5    1.786949 S    
C15   H32   1.108998 S    
C4    H8    1.107937 S    
Ba2   O21   2.875027 S    
C29   H39   1.082724 S    
P5    C39   1.867134 S    
P1    O5    1.752160 S    
C11   O22   1.407306 S    
P1    O2    1.592796 S    
C9    H21   1.110925 S    
C12   H26   1.101119 S    
O3    P6    1.779634 S    
S3    O32   1.500806 D    
C31   C38   1.396691 A    
P3    C34   1.875093 S    
C11   S2    1.780611 S    
O2    Ba2   2.883682 S    
C15   H33   1.112147 S    
C28   C29   1.401091 A    
C17   H41   1.075460 S    
P8    O24   1.743194 S    
C14   S4    1.792949 S    
C2    C3    1.516159 S    
C6    H13   1.097858 S    
C32   C35   1.404928 A    
C16   H35   1.110201 S    
C1    H3    1.111002 S    
C31   C39   1.402138 A    
O3    Ba1   2.900859 S    
O16   P7    1.792549 S    
C22   C30   1.423767 A    
C40   H44   1.077637 S    
P4    C26   1.887029 S    
C12   S3    1.804737 S    
P3    O8    1.749912 S    
S2    O28   1.494324 D    
C3    H7    1.099749 S    
S3    O33   1.675889 S    
C9    H19   1.108105 S    
C21   H38   1.082593 S    
C36   C40   1.418741 A    
S1    O25   1.495661 D    
C13   H29   1.109915 S    
C37   C38   1.434846 A    
O17   Ba2   2.855407 S    
P7    O22   1.765448 S    
C30   H42   1.081044 S    
O13   Ba2   2.993770 S    
C18   C23   1.451348 A    
C1    C10   1.519504 S    
C35   C36   1.446985 A    
C7    H15   1.100728 S    
C3    H6    1.090912 S    
C5    H12   1.110180 S    
O7    Ba1   2.874811 S    
O8    Ba1   2.854800 S    
C13   C14   1.514094 S    
C24   C26   1.450840 A    
C4    H9    1.106532 S    
O14   Ba2   2.900230 S    
P4    O15   1.754797 S    
C24   C30   1.414827 A    
O5    C6    1.382754 S    
O4    P6    1.534865 D    
C1    H23   1.109125 S    
C12   H25   1.106579 S    
P5    O18   1.544320 D    
C2    H4    1.111254 S    
C5    H11   1.107449 S    
S3    O31   1.497603 D    
C10   H22   1.106309 S    
C13   H28   1.112948 S    
C33   C34   1.390821 A    
P2    O20   1.594819 S    
C15   O24   1.404033 S    
C20   C21   1.401855 A    
O33   H48   0.987472 S    
O16   Ba2   2.979858 S    
C27   H40   1.082478 S    
C17   C23   1.408702 A    
C22   C23   1.432412 A    
C6    C7    1.528033 S    
O14   P8    1.754642 S    
P8    C28   1.847184 S    
P5    O19   1.738124 S    
P1    Ba1   3.426677 S    
O2    Ba1   2.992966 S    
O6    P6    1.732448 S    
O36   H49   0.989718 S    
C15   C16   1.509817 S    
P2    O7    1.553893 D    
C18   C19   1.381523 A    
C6    S1    1.742486 S    
C27   C28   1.392235 A    
P3    O9    1.541454 D    
P4    Ba2   3.427168 S    
S2    O29   1.494565 D    
Ba2   O20   2.862431 S    
C16   H36   1.106825 S    
C7    H14   1.109952 S    
P5    O17   1.751449 S    
C19   C20   1.389341 A    
C3    H27   1.109599 S    
P2    C35   1.849955 S    
P2    Ba1   3.448567 S    
C39   C40   1.408157 A    
O12   Ba2   2.848811 S    
