data_mof_unit_49188.cif
_audit_creation_date              2012-12-10T18:43:12-0500
_audit_creation_method            fapswitch 2.2
_symmetry_space_group_name_H-M    P1
_symmetry_Int_Tables_number       1
_space_group_crystal_system       triclinic
_cell_length_a                    10.600666
_cell_length_b                    9.934678
_cell_length_c                    10.739353
_cell_angle_alpha                 90.143345
_cell_angle_beta                  91.316264
_cell_angle_gamma                 89.363961
_cell_volume                      1130.63544078

loop_
_atom_site_label
_atom_site_type_symbol
_atom_type_description
_atom_site_fract_x
_atom_site_fract_y
_atom_site_fract_z
_atom_type_partial_charge
C1    C     C_R   0.260609 0.500639 0.499302 0.903440
C2    C     C_R   0.739364 0.499644 0.497866 0.861931
C3    C     C_R   0.497110 0.499736 0.262805 0.923241
C4    C     C_R   0.503289 0.499913 0.737227 0.921483
C5    C     C_2   0.499848 0.386169 0.932820 -0.170433
C6    C     C_2   0.506688 0.386254 0.066995 -0.172510
C7    C     C_2   0.515790 0.499753 0.869123 -0.334183
C8    C     C_2   0.485840 0.499394 0.130935 -0.329708
C9    C     C_R   0.067150 0.446372 0.596632 -0.237142
C10   C     C_R   0.937907 0.447681 0.596550 -0.243627
C11   C     C_R   0.871758 0.500094 0.494140 -0.052440
C12   C     C_R   0.128181 0.502354 0.496250 -0.035508
C13   C     C_R   0.932360 0.556879 0.392007 0.052616
C14   C     C_R   0.063133 0.558974 0.393951 0.083078
C15   C     C_R   0.586907 0.068230 0.571130 0.197129
C16   C     C_R   0.414026 0.070414 0.427615 0.133816
C17   C     C_R   0.581875 0.925625 0.573971 -0.094130
C18   C     C_R   0.416639 0.927415 0.427211 -0.105832
H1    H     H_    0.482365 0.290557 0.886498 0.169725
H2    H     H_    0.527655 0.291096 0.113158 0.170116
H3    H     H_    0.541344 0.594459 0.912668 0.149414
H4    H     H_    0.457289 0.593679 0.087619 0.151311
H5    H     H_    0.119679 0.404421 0.675484 0.146534
H6    H     H_    0.889189 0.409694 0.676596 0.136028
H7    H     H_    0.645746 0.868435 0.634034 0.152044
H8    H     H_    0.350995 0.871893 0.368477 0.144843
N1    N     N_R   0.500000 0.857200 0.500000 -0.110259
N2    N     N_R   0.500000 0.142810 0.500000 -0.118108
O1    O     O_R   0.316770 0.614620 0.499990 -0.603985
O2    O     O_R   0.683230 0.614620 0.500010 -0.624338
O3    O     O_R   0.316800 0.385290 0.500000 -0.636366
O4    O     O_R   0.683200 0.385290 0.500000 -0.636941
O5    O     O_R   0.500000 0.614630 0.319080 -0.617240
O6    O     O_R   0.500000 0.614630 0.680920 -0.617718
O7    O     O_R   0.500030 0.385300 0.319080 -0.639432
O8    O     O_R   0.499970 0.385300 0.680920 -0.638103
Zn1   Zn    Zn3+2 0.500000 0.653120 0.500000 0.936661
Zn2   Zn    Zn3+2 0.500000 0.346880 0.500000 0.912934
N3    N     N_3   0.863345 0.609682 0.286037 -0.478644
H9    H     H_    0.808327 0.691442 0.314767 0.207673
H10   H     H_    0.803598 0.534868 0.250972 0.178233
N4    N     N_3   0.130627 0.614694 0.292166 -0.470960
H11   H     H_    0.102819 0.715402 0.281528 0.197676
H12   H     H_    0.104819 0.562670 0.210919 0.191536
C19   C     C_3   0.691647 0.130665 0.648747 -0.409791
C20   C     C_3   0.820768 0.122166 0.585530 -0.336807
C21   C     C_3   0.875136 0.979525 0.574322 -0.868706
H13   H     H_    0.871106 0.925901 0.664719 0.256970
H14   H     H_    0.823875 0.922002 0.500746 0.264840
H15   H     H_    0.975407 0.984801 0.547397 0.245079
H16   H     H_    0.814246 0.168281 0.491551 0.244149
H17   H     H_    0.889183 0.180489 0.642850 0.213164
H18   H     H_    0.670646 0.236239 0.670614 0.230349
H19   H     H_    0.698509 0.080161 0.741022 0.161019
C22   C     C_3   0.315814 0.135845 0.342807 -0.394322
C23   C     C_3   0.182403 0.118959 0.392892 -0.356318
C24   C     C_3   0.083664 0.184217 0.306029 -0.865844
H20   H     H_    0.103717 0.292689 0.293730 0.265937
H21   H     H_    0.083465 0.133789 0.213608 0.255066
H22   H     H_    0.988724 0.174509 0.346154 0.252921
H23   H     H_    0.160378 0.010333 0.401610 0.208629
H24   H     H_    0.176296 0.165767 0.486689 0.247202
H25   H     H_    0.333178 0.242635 0.327948 0.265369
H26   H     H_    0.320938 0.088478 0.249047 0.167239

loop_
_geom_bond_atom_site_label_1
_geom_bond_atom_site_label_2
_ccdc_geom_bond_type
C16   N2    A    
C19   C20   S    
C8    H4    S    
C22   C23   S    
C4    O8    A    
C15   C17   A    
C5    H1    S    
O4    Zn2   S    
O6    Zn1   S    
C6    H2    S    
C9    C10   A    
C21   H13   S    
C18   H8    S    
O3    Zn2   S    
C2    O2    A    
C14   N4    S    
C17   H7    S    
C22   H26   S    
O8    Zn2   S    
C24   H20   S    
C16   C22   S    
C19   H18   S    
C21   H14   S    
C16   C18   A    
C20   C21   S    
C13   C14   A    
C11   C13   A    
C15   N2    A    
C1    C12   S    
N4    H12   S    
N1    Zn1   S    
C4    C7    S    
C2    C11   S    
C1    O1    A    
C12   C14   A    
C19   H19   S    
C21   H15   S    
C23   H24   S    
C5    C6    S    
C9    C12   A    
C4    O6    A    
C24   H21   S    
C13   N3    S    
C10   C11   A    
C3    O5    A    
C3    O7    A    
C17   N1    A    
C20   H17   S    
C1    O3    A    
O7    Zn2   S    
C23   C24   S    
N3    H10   S    
C2    O4    A    
C3    C8    S    
N4    H11   S    
O1    Zn1   S    
N3    H9    S    
C5    C7    D    
C15   C19   S    
C23   H23   S    
C9    H5    S    
C24   H22   S    
C6    C8    D    
C10   H6    S    
N2    Zn2   S    
C7    H3    S    
C20   H16   S    
O5    Zn1   S    
C18   N1    A    
O2    Zn1   S    
C22   H25   S    
