data_mof_unit_49474.cif
_audit_creation_date              2012-12-11T15:14:39-0500
_audit_creation_method            fapswitch 2.2
_symmetry_space_group_name_H-M    P1
_symmetry_Int_Tables_number       1
_space_group_crystal_system       triclinic
_cell_length_a                    22.319228
_cell_length_b                    7.231456
_cell_length_c                    19.204523
_cell_angle_alpha                 90.246045
_cell_angle_beta                  99.252298
_cell_angle_gamma                 89.978952
_cell_volume                      3059.26522821

loop_
_atom_site_label
_atom_site_type_symbol
_atom_type_description
_atom_site_fract_x
_atom_site_fract_y
_atom_site_fract_z
_atom_type_partial_charge
O1    O     O_R   0.448470 0.506130 0.415700 -0.530452
O2    O     O_R   0.551530 0.006130 0.584300 -0.530468
O3    O     O_R   0.436320 0.174490 0.555800 -0.527459
O4    O     O_R   0.563680 0.674490 0.444200 -0.528019
C1    C     C_R   0.421370 0.344501 0.575282 0.698770
C2    C     C_R   0.578589 0.843963 0.424606 0.699145
O5    O     O_R   0.441350 0.176340 0.414480 -0.534431
O6    O     O_R   0.558650 0.676340 0.585520 -0.534265
O7    O     O_R   0.556600 0.007100 0.441970 -0.535842
O8    O     O_R   0.443400 0.507100 0.558030 -0.536480
C3    C     C_R   0.427246 0.344442 0.388875 0.683579
C4    C     C_R   0.572665 0.845135 0.611180 0.684374
O9    O     O_3   0.537810 0.339550 0.509190 -0.372846
O10   O     O_3   0.462190 0.839550 0.490810 -0.373014
V1    V     V_3+5 0.492990 0.064280 0.498300 1.476277
V2    V     V_3+5 0.507010 0.564280 0.501700 1.475278
C5    C     C_R   0.868602 0.894432 0.695159 -0.152095
C6    C     C_R   0.131942 0.427056 0.305659 -0.149982
H1    H     H_    0.956334 0.919261 0.758928 0.118231
H2    H     H_    0.044296 0.453285 0.241837 0.112385
H3    H     H_    0.786617 0.868225 0.579883 0.146881
H4    H     H_    0.214400 0.416074 0.420933 0.157922
H5    H     H_    0.887711 0.886336 0.646793 0.120591
H6    H     H_    0.113177 0.434762 0.354262 0.121151
C7    C     C_R   0.884638 0.935242 0.821689 -0.043325
C8    C     C_R   0.115478 0.438846 0.178314 -0.040958
C9    C     C_R   0.587683 0.843662 0.740540 -0.198652
C10   C     C_R   0.411181 0.320383 0.259846 -0.193296
C11   C     C_R   0.622839 0.822006 0.807073 -0.033368
C12   C     C_R   0.375207 0.287467 0.194455 -0.033348
C13   C     C_R   0.687205 0.821158 0.814099 -0.078889
C14   C     C_R   0.310936 0.294179 0.188132 -0.077371
C15   C     C_R   0.715972 0.858383 0.753802 0.008396
C16   C     C_R   0.283292 0.351546 0.247309 0.009830
C17   C     C_R   0.678255 0.859813 0.685704 0.064628
C18   C     C_R   0.321563 0.364629 0.314864 0.062312
C19   C     C_R   0.780596 0.887400 0.757265 0.086614
C20   C     C_R   0.219131 0.389319 0.243412 0.088329
C21   C     C_R   0.805586 0.882582 0.693619 0.130972
C22   C     C_R   0.194671 0.404776 0.307183 0.127474
C23   C     C_R   0.767729 0.869322 0.628491 -0.173833
C24   C     C_R   0.232851 0.401904 0.372292 -0.168838
C25   C     C_R   0.705187 0.864494 0.624449 -0.159044
C26   C     C_R   0.295258 0.388444 0.376032 -0.157877
C27   C     C_R   0.821453 0.928545 0.820515 -0.153243
C28   C     C_R   0.178406 0.420782 0.179311 -0.148778
C29   C     C_R   0.907786 0.915509 0.758814 -0.167719
C30   C     C_R   0.092632 0.439626 0.241761 -0.169173
C31   C     C_R   0.614116 0.852847 0.679802 -0.097121
C32   C     C_R   0.385526 0.348856 0.320421 -0.096463
H7    H     H_    0.805715 0.961092 0.869237 0.122638
H8    H     H_    0.194240 0.438558 0.129695 0.121657
H9    H     H_    0.538552 0.839520 0.735303 0.152887
H10   H     H_    0.460173 0.308989 0.264790 0.148836
H11   H     H_    0.677959 0.861330 0.572425 0.110101
H12   H     H_    0.322848 0.394124 0.427814 0.112775
C33   C     C_3   0.771270 0.788858 0.302667 -0.016800
C34   C     C_3   0.224289 0.330165 0.688837 -0.020327
C35   C     C_3   0.798547 0.974877 0.282982 -0.209735
C36   C     C_3   0.207173 0.512728 0.723349 -0.212478
H13   H     H_    0.839755 0.042359 0.312289 0.128329
H14   H     H_    0.170976 0.609547 0.699808 0.130882
H15   H     H_    0.720938 0.197135 0.290668 0.134486
H16   H     H_    0.297005 0.697098 0.736403 0.139655
C37   C     C_1   0.874632 0.941740 0.119989 -0.113338
C38   C     C_1   0.125109 0.439902 0.879765 -0.113686
C39   C     C_1   0.623963 0.851759 0.378358 -0.129611
C40   C     C_1   0.375822 0.353963 0.621198 -0.127346
C41   C     C_3   0.762887 0.727062 0.224658 -0.117345
C42   C     C_3   0.226312 0.228883 0.759748 -0.096803
C43   C     C_3   0.789553 0.912546 0.204631 0.131046
C44   C     C_3   0.209752 0.410600 0.794565 0.130984
C45   C     C_3   0.698434 0.811663 0.212773 -0.105988
C46   C     C_3   0.294547 0.275889 0.779055 -0.105550
C47   C     C_3   0.707006 0.873570 0.290799 0.139219
C48   C     C_3   0.292357 0.377222 0.708110 0.134379
C49   C     C_3   0.725228 0.996944 0.192661 -0.045215
C50   C     C_3   0.277846 0.457531 0.813873 -0.045736
C51   C     C_3   0.733526 0.060419 0.270893 -0.215945
C52   C     C_3   0.276043 0.560335 0.742887 -0.209607
C53   C     C_1   0.836161 0.931064 0.157945 0.097516
C54   C     C_1   0.163379 0.428452 0.841574 0.104283
C55   C     C_1   0.661457 0.860072 0.339061 0.095897
C56   C     C_1   0.338133 0.363661 0.660186 0.099389
O11   O     O_R   0.056650 0.288730 0.942060 -0.530377
O12   O     O_R   0.943350 0.788730 0.057940 -0.529199
O13   O     O_R   0.058660 0.616870 0.085540 -0.535467
O14   O     O_R   0.941340 0.116870 0.914460 -0.535394
C57   C     C_R   0.072883 0.448728 0.111061 0.683372
C58   C     C_R   0.927151 0.948063 0.888939 0.688053
O15   O     O_R   0.063700 0.618520 0.944220 -0.529287
O16   O     O_R   0.936300 0.118520 0.055780 -0.528031
O17   O     O_R   0.948460 0.787610 0.915680 -0.531354
O18   O     O_R   0.051540 0.287610 0.084320 -0.532284
C59   C     C_R   0.078950 0.449840 0.924886 0.698388
C60   C     C_R   0.920993 0.950330 0.075075 0.698987
O19   O     O_3   0.962230 0.453430 0.990860 -0.367045
O20   O     O_3   0.037770 0.953430 0.009140 -0.369607
V3    V     V_3+5 0.007010 0.728750 0.001700 1.519516
V4    V     V_3+5 0.992990 0.228750 0.998300 1.520507
C61   C     C_2   0.799237 0.671351 0.363323 0.338457
H17   H     H_    0.845180 0.620415 0.365285 0.048322
O21   O     O_2   0.770796 0.632187 0.410422 -0.529159
C62   C     C_2   0.191936 0.259332 0.619463 0.340881
H18   H     H_    0.143578 0.232017 0.612856 0.048961
O22   O     O_2   0.219456 0.231989 0.570406 -0.533145
C63   C     C_2   0.697308 0.115008 0.132134 0.400202
H19   H     H_    0.651611 0.167673 0.130586 0.072257
O23   O     O_2   0.725517 0.152631 0.084660 -0.486472
C64   C     C_2   0.310037 0.532041 0.882707 0.414796
H20   H     H_    0.358562 0.556663 0.889619 0.073992
O24   O     O_2   0.282162 0.565837 0.930935 -0.494046
C65   C     C_2   0.643879 0.719474 0.171260 0.373447
H21   H     H_    0.643868 0.683578 0.116362 0.083958
O25   O     O_2   0.599584 0.684245 0.198672 -0.506871
C66   C     C_2   0.341831 0.142134 0.812431 0.364461
H22   H     H_    0.337770 0.080969 0.862930 0.081488
O26   O     O_2   0.384707 0.101164 0.783262 -0.509669
C67   C     C_2   0.777986 0.538393 0.200013 0.382935
H23   H     H_    0.755531 0.418979 0.217477 0.046127
O27   O     O_2   0.815110 0.518184 0.160408 -0.509107
C68   C     C_2   0.199889 0.040842 0.767037 0.343856
H24   H     H_    0.213884 0.926339 0.736931 0.051801
O28   O     O_2   0.162761 0.015742 0.806230 -0.522957
C69   C     C_2   0.722338 0.759308 0.882122 0.804485
O29   O     O_2   0.755497 0.624198 0.883622 -0.535862
O30   O     O_R   0.717736 0.856102 0.944269 -0.632524
H25   H     H_    0.744021 0.800939 0.987133 0.321715
C70   C     C_2   0.274467 0.218602 0.122910 0.801078
O31   O     O_2   0.239882 0.089128 0.126585 -0.541222
O32   O     O_R   0.279400 0.296175 0.057487 -0.628035
H26   H     H_    0.252046 0.233220 0.017034 0.320649
C71   C     C_2   0.589872 0.788138 0.867327 0.835629
O33   O     O_2   0.543631 0.875306 0.871715 -0.531232
O34   O     O_R   0.609866 0.652391 0.917368 -0.638896
H27   H     H_    0.583176 0.642592 0.955222 0.315595
C72   C     C_2   0.407104 0.232993 0.135152 0.838638
O35   O     O_2   0.453987 0.312212 0.127366 -0.532439
O36   O     O_R   0.385381 0.087042 0.090059 -0.637991
H28   H     H_    0.411544 0.063258 0.052409 0.319178

loop_
_geom_bond_atom_site_label_1
_geom_bond_atom_site_label_2
_ccdc_geom_bond_type
C11   C71   S    
C39   C55   T    
C61   H17   S    
C9    C11   A    
C63   O23   D    
O1    C3    A    
O2    C4    A    
C48   C56   S    
C2    O7    A    
C62   O22   D    
C4    C31   S    
C34   C48   S    
O34   H27   S    
C21   C23   A    
H15   C51   S    
C8    C57   S    
O5    C3    A    
C72   O36   S    
C7    C58   S    
C5    H5    S    
C46   C48   S    
C6    H6    S    
C65   H21   S    
H1    C29   S    
C33   C35   S    
C27   H7    S    
C34   C36   S    
C28   H8    S    
O16   C60   A    
C45   C65   S    
C66   H22   S    
C36   H14   S    
C5    C21   A    
C57   O18   A    
C41   C43   S    
C26   H12   S    
C64   H20   S    
C14   C70   S    
C44   C50   S    
H16   C52   S    
C10   C32   A    
C37   C60   S    
C42   C46   S    
C63   H19   S    
C13   C15   A    
C41   C45   S    
C12   C14   A    
C17   C25   A    
O17   V3    S    
C16   C18   A    
C8    C30   A    
C22   C24   A    
O6    V2    S    
C12   C72   S    
C11   C13   A    
C45   C47   S    
C68   O28   D    
C24   C26   A    
C1    C40   S    
C62   H18   S    
O13   V3    S    
C49   C51   S    
C35   H13   S    
C40   C56   T    
C48   C52   S    
C49   C63   S    
O4    C2    A    
C35   C51   S    
C10   H10   S    
C34   C42   S    
C41   C67   S    
C15   C19   A    
C65   O25   D    
C14   C16   A    
O4    V2    S    
C17   C31   A    
O2    V1    S    
C38   C54   T    
C42   C68   S    
C37   C53   T    
O18   V4    S    
O6    C4    A    
C46   C66   S    
C50   C64   S    
O1    V2    S    
O14   V4    S    
C67   H23   S    
O12   V3    S    
H2    C30   S    
C67   O27   D    
O12   C60   A    
H3    C23   S    
C25   H11   S    
C2    C39   S    
O14   C58   A    
O13   C57   A    
C69   O29   D    
C18   C26   A    
C34   C62   S    
C13   C69   S    
C19   C27   A    
O32   H26   S    
C7    C27   A    
C43   C49   S    
O19   V4    S    
C18   C32   A    
O16   V4    S    
C58   O17   A    
C69   O30   S    
C70   O31   D    
C7    C29   A    
C36   C52   S    
C45   C49   S    
C16   C20   A    
C23   C25   A    
C5    C29   A    
O3    C1    A    
C6    C30   A    
O36   H28   S    
C9    H9    S    
C43   C53   S    
C33   C61   S    
C72   O35   D    
O15   V3    S    
C33   C47   S    
C10   C12   A    
O7    V1    S    
C1    O8    A    
C19   C21   A    
C3    C32   S    
O8    V2    S    
C20   C22   A    
O11   C59   A    
C47   C55   S    
C71   O33   D    
O11   V4    S    
O5    V1    S    
C15   C17   A    
C66   O26   D    
C50   C52   S    
C64   O24   D    
C20   C28   A    
C8    C28   A    
O15   C59   A    
C9    C31   A    
C6    C22   A    
C61   O21   D    
O20   V3    S    
C46   C50   S    
O9    V2    S    
H4    C24   S    
C71   O34   S    
C36   C44   S    
O10   V1    S    
O3    V1    S    
C42   C44   S    
C33   C41   S    
C68   H24   S    
C47   C51   S    
C44   C54   S    
O30   H25   S    
C35   C43   S    
C38   C59   S    
C70   O32   S    
