data_mof_unit_53063.cif
_audit_creation_date              2012-12-10T20:56:24-0500
_audit_creation_method            fapswitch 2.2
_symmetry_space_group_name_H-M    P1
_symmetry_Int_Tables_number       1
_space_group_crystal_system       triclinic
_cell_length_a                    13.262474
_cell_length_b                    15.052074
_cell_length_c                    15.827002
_cell_angle_alpha                 90.56218
_cell_angle_beta                  90.104316
_cell_angle_gamma                 71.385148
_cell_volume                      2994.0741574

loop_
_atom_site_label
_atom_site_type_symbol
_atom_type_description
_atom_site_fract_x
_atom_site_fract_y
_atom_site_fract_z
_atom_type_partial_charge
C1    C     C_R   0.499702 0.500524 0.661155 0.917749
C2    C     C_R   0.981857 0.457771 0.469217 0.099798
C3    C     C_R   0.871788 0.481159 0.455122 0.068319
C4    C     C_R   0.029163 0.529297 0.461225 0.040922
C5    C     C_R   0.966710 0.623217 0.444840 0.054482
C6    C     C_R   0.864928 0.638060 0.409745 -0.037205
C7    C     C_R   0.818410 0.567006 0.415103 -0.251460
C8    C     C_R   0.137369 0.509733 0.470736 -0.283332
C9    C     C_R   0.115362 0.674156 0.493254 -0.065306
C10   C     C_R   0.818731 0.418021 0.481479 -0.110218
C11   C     C_R   0.470276 0.420531 0.042806 0.159758
C12   C     C_R   0.703517 0.449468 0.493164 0.860260
C13   C     C_R   0.478912 0.499718 0.086875 0.140205
C14   C     C_R   0.483032 0.579396 0.044957 -0.244185
C15   C     C_R   0.481722 0.580905 0.957871 -0.210935
C16   C     C_R   0.477136 0.502456 0.912801 0.073117
C17   C     C_R   0.470447 0.421706 0.953717 -0.006761
C18   C     C_1   0.486490 0.500112 0.175838 -0.055332
C19   C     C_1   0.485496 0.504069 0.823992 -0.053821
C20   C     C_1   0.492876 0.503173 0.749368 -0.185112
C21   C     C_1   0.493319 0.500149 0.250530 -0.192846
C22   C     C_R   0.540793 0.035536 0.561491 -0.203762
C23   C     C_R   0.499713 0.499636 0.338809 0.900466
C24   C     C_R   0.489845 0.097759 0.497785 0.025504
C25   C     C_R   0.435373 0.065283 0.433136 -0.034172
C26   C     C_R   0.433606 0.970298 0.433293 -0.044534
C27   C     C_R   0.489000 0.907947 0.497501 0.012581
C28   C     C_R   0.541129 0.942207 0.560979 -0.195180
C29   C     C_1   0.495950 0.194018 0.499158 0.042934
C30   C     C_1   0.494785 0.808476 0.499332 0.039069
C31   C     C_R   0.295881 0.550694 0.499775 0.885003
C32   C     C_R   0.009119 0.697153 0.464745 -0.048023
C33   C     C_R   0.180989 0.580213 0.488348 -0.119677
C34   C     C_R   0.877294 0.326916 0.506158 -0.193448
C35   C     C_R   0.986955 0.300876 0.512737 -0.155185
C36   C     C_R   0.038592 0.366298 0.498098 -0.197460
H1    H     H_    0.488993 0.639924 0.079785 0.148199
H2    H     H_    0.486993 0.642437 0.925517 0.153227
H3    H     H_    0.583204 0.896026 0.610639 0.136704
H4    H     H_    0.582073 0.059086 0.611694 0.130947
H5    H     H_    0.189096 0.438503 0.464406 0.168693
H6    H     H_    0.837930 0.277105 0.524509 0.155717
H7    H     H_    0.121986 0.344004 0.513426 0.123039
H8    H     H_    0.031542 0.231384 0.534403 0.137152
H9    H     H_    0.741284 0.578747 0.386144 0.173891
N1    N     N_1   0.500030 0.729450 0.499980 -0.084413
N2    N     N_1   0.499970 0.270550 0.500020 -0.088991
O1    O     O_R   0.500000 0.426350 0.621980 -0.602281
O2    O     O_R   0.499950 0.573700 0.621980 -0.604589
O3    O     O_R   0.653660 0.389750 0.499980 -0.617241
O4    O     O_R   0.653610 0.537090 0.499980 -0.614836
O5    O     O_R   0.500050 0.426300 0.378020 -0.602071
O6    O     O_R   0.500000 0.573650 0.378020 -0.621094
O7    O     O_R   0.346390 0.462910 0.500020 -0.620845
O8    O     O_R   0.346340 0.610250 0.500020 -0.598104
Zn1   Zn    Zn3+2 0.500030 0.401620 0.500000 0.969368
Zn2   Zn    Zn3+2 0.499970 0.598380 0.500000 0.973994
C37   C     C_R   0.152384 0.743733 0.540342 0.148941
C38   C     C_R   0.163106 0.736371 0.628563 -0.150628
C39   C     C_R   0.199362 0.799798 0.674582 -0.131448
C40   C     C_R   0.224805 0.871171 0.632944 -0.117286
C41   C     C_R   0.214337 0.878942 0.545278 -0.130029
C42   C     C_R   0.179014 0.815087 0.498676 -0.095283
H10   H     H_    0.143528 0.681301 0.661553 0.116188
H11   H     H_    0.207654 0.793637 0.742506 0.125690
H12   H     H_    0.252765 0.920431 0.668556 0.123704
H13   H     H_    0.234091 0.934472 0.513918 0.132248
H14   H     H_    0.173168 0.820765 0.430612 0.128384
C43   C     C_3   0.460377 0.337633 0.091672 -0.929304
H15   H     H_    0.444483 0.283263 0.051069 0.241844
H16   H     H_    0.534804 0.304617 0.127468 0.247575
H17   H     H_    0.393099 0.362091 0.136911 0.247955
C44   C     C_R   0.383020 0.130033 0.364287 0.112595
C45   C     C_R   0.297418 0.211179 0.382561 -0.155143
C46   C     C_R   0.246938 0.271527 0.317727 -0.123329
C47   C     C_R   0.281566 0.251281 0.234290 -0.114983
C48   C     C_R   0.366992 0.170881 0.215612 -0.127656
C49   C     C_R   0.417733 0.110386 0.280307 -0.128172
H18   H     H_    0.269513 0.226961 0.446897 0.114041
H19   H     H_    0.180723 0.333750 0.332078 0.132563
H20   H     H_    0.242174 0.297872 0.184101 0.124199
H21   H     H_    0.393805 0.155368 0.150970 0.130850
H22   H     H_    0.483717 0.048285 0.264999 0.115518
C50   C     C_R   0.372532 0.937080 0.367591 0.099656
C51   C     C_R   0.263377 0.984389 0.355759 -0.142471
C52   C     C_R   0.205324 0.952228 0.295806 -0.149624
C53   C     C_R   0.255530 0.872801 0.246777 -0.131169
C54   C     C_R   0.363996 0.825677 0.257340 -0.117084
C55   C     C_R   0.422373 0.857694 0.317148 -0.144029
H23   H     H_    0.222684 0.045236 0.394068 0.125225
H24   H     H_    0.121175 0.988527 0.287817 0.127217
H25   H     H_    0.210374 0.847737 0.200644 0.123277
H26   H     H_    0.402889 0.764143 0.219276 0.129284
H27   H     H_    0.506206 0.820108 0.324200 0.136683
C56   C     C_R   0.815330 0.718528 0.354309 0.126458
C57   C     C_R   0.858993 0.721685 0.274052 -0.159797
C58   C     C_R   0.816830 0.799815 0.222681 -0.148088
C59   C     C_R   0.731918 0.875634 0.251590 -0.123768
C60   C     C_R   0.688575 0.872906 0.331500 -0.137707
C61   C     C_R   0.728642 0.793804 0.382198 -0.127192
H28   H     H_    0.926301 0.664101 0.251803 0.127901
H29   H     H_    0.850914 0.802111 0.160989 0.126289
H30   H     H_    0.700365 0.936839 0.212468 0.120130
H31   H     H_    0.625019 0.932723 0.354423 0.143287
H32   H     H_    0.696305 0.792862 0.444643 0.139933
C62   C     C_R   0.940532 0.796202 0.471079 0.136267
C63   C     C_R   0.945838 0.860957 0.409340 -0.128970
C64   C     C_R   0.885113 0.955417 0.418148 -0.129732
C65   C     C_R   0.819993 0.985822 0.489020 -0.100084
C66   C     C_R   0.815849 0.921821 0.551279 -0.133044
C67   C     C_R   0.875551 0.827197 0.542307 -0.160024
H33   H     H_    0.996700 0.838151 0.354561 0.118269
H34   H     H_    0.888801 0.005044 0.370187 0.122272
H35   H     H_    0.773229 0.059000 0.495942 0.124622
H36   H     H_    0.766955 0.945519 0.606836 0.121954
H37   H     H_    0.872281 0.778296 0.591154 0.125598
C68   C     C_R   0.468095 0.338970 0.902794 0.128210
C69   C     C_R   0.378964 0.343245 0.852950 -0.146047
C70   C     C_R   0.378812 0.266826 0.802026 -0.125119
C71   C     C_R   0.467462 0.185817 0.800565 -0.112400
C72   C     C_R   0.556383 0.181074 0.850100 -0.148159
C73   C     C_R   0.556961 0.257427 0.900967 -0.153183
H38   H     H_    0.310168 0.405931 0.853148 0.123470
H39   H     H_    0.310136 0.270535 0.763457 0.125996
H40   H     H_    0.467329 0.126820 0.760946 0.120827
H41   H     H_    0.625080 0.118402 0.848742 0.124319
H42   H     H_    0.626685 0.253413 0.938416 0.132833

loop_
_geom_bond_atom_site_label_1
_geom_bond_atom_site_label_2
_ccdc_geom_bond_type
C53   C54   A    
C18   C21   T    
C63   H33   S    
C56   C57   A    
C34   H6    S    
C68   C73   A    
C58   C59   A    
C48   C49   A    
C8    H5    S    
C26   C27   A    
C41   H13   S    
C29   N2    T    
C7    H9    S    
C9    C37   S    
C3    C7    A    
C52   H24   S    
C51   C52   A    
C5    C6    A    
C62   C63   A    
C59   H30   S    
C73   H42   S    
O2    Zn2   S    
C64   C65   A    
C34   C35   A    
C44   C45   A    
C4    C8    A    
C43   H16   S    
C66   C67   A    
C9    C32   A    
C69   C70   A    
C40   H12   S    
C35   C36   A    
C16   C17   A    
C63   C64   A    
C31   C33   S    
C67   H37   S    
O4    Zn2   S    
C46   H19   S    
C58   H29   S    
C17   C68   S    
C69   H38   S    
C5    C32   A    
C60   H31   S    
C38   C39   A    
C32   C62   S    
C57   H28   S    
C27   C30   S    
C9    C33   A    
C43   H15   S    
C49   H22   S    
C23   O6    A    
C62   C67   A    
O7    Zn1   S    
C45   C46   A    
C24   C25   A    
O6    Zn2   S    
C52   C53   A    
C28   H3    S    
C37   C38   A    
C70   H39   S    
O3    Zn1   S    
C39   C40   A    
C64   H34   S    
C43   H17   S    
C2    C4    A    
C46   C47   A    
C15   H2    S    
C41   C42   A    
C60   C61   A    
C44   C49   A    
C22   H4    S    
C57   C58   A    
C61   H32   S    
C10   C34   A    
C50   C51   A    
C70   C71   A    
C35   H8    S    
C72   C73   A    
C10   C12   S    
C65   H35   S    
C13   C18   S    
C39   H11   S    
C59   C60   A    
C45   H18   S    
C21   C23   S    
N1    Zn2   S    
C22   C24   A    
C50   C55   A    
C12   O4    A    
C53   H25   S    
C71   C72   A    
C2    C36   A    
C37   C42   A    
O1    Zn1   S    
C54   H26   S    
C11   C17   A    
C1    C20   S    
C26   C50   S    
C56   C61   A    
C30   N1    T    
C4    C5    A    
C47   H20   S    
C55   H27   S    
C12   O3    A    
C51   H23   S    
C11   C43   S    
C1    O1    A    
C6    C7    A    
C42   H14   S    
C19   C20   T    
O8    Zn2   S    
C2    C3    A    
C25   C26   A    
C72   H41   S    
C3    C10   A    
C68   C69   A    
C14   H1    S    
C47   C48   A    
C11   C13   A    
C23   O5    A    
O5    Zn1   S    
C48   H21   S    
C16   C19   S    
C71   H40   S    
C25   C44   S    
C8    C33   A    
C31   O7    A    
C40   C41   A    
C38   H10   S    
C24   C29   S    
C54   C55   A    
C6    C56   S    
C65   C66   A    
C27   C28   A    
C14   C15   A    
C36   H7    S    
C22   C28   A    
C31   O8    A    
C13   C14   A    
C1    O2    A    
C66   H36   S    
C15   C16   A    
N2    Zn1   S    
