data_mof_unit_64557.cif
_audit_creation_date              2012-12-11T18:51:45-0500
_audit_creation_method            fapswitch 2.2
_symmetry_space_group_name_H-M    P1
_symmetry_Int_Tables_number       1
_space_group_crystal_system       triclinic
_cell_length_a                    8.22807
_cell_length_b                    15.217584
_cell_length_c                    15.043601
_cell_angle_alpha                 99.844267
_cell_angle_beta                  97.424506
_cell_angle_gamma                 99.103871
_cell_volume                      1808.7207901

loop_
_atom_site_label
_atom_site_type_symbol
_atom_type_description
_atom_site_fract_x
_atom_site_fract_y
_atom_site_fract_z
_atom_type_partial_charge
Ba1   Ba    Ba6+2 0.844890 0.542420 0.457460 1.769586
Ba2   Ba    Ba6+2 0.344950 0.457650 0.542550 1.782037
Br1   Br    Br    0.219687 0.904748 0.812739 -0.425824
Br2   Br    Br    0.980447 0.093051 0.342135 -0.602025
Br3   Br    Br    0.741285 0.920579 0.175876 -0.451638
Br4   Br    Br    0.564295 0.375124 0.984771 -0.643948
Br5   Br    Br    0.369652 0.719441 0.918222 -0.472008
C1    C     C_3   0.547392 0.851957 0.208743 0.619357
C2    C     C_R   0.890023 0.449327 0.924806 -0.074306
C3    C     C_R   0.044733 0.455332 0.108531 -0.079611
C4    C     C_3   0.093430 0.760309 0.216334 0.820586
C5    C     C_R   0.882598 0.409645 0.075739 -0.025169
C6    C     C_R   0.800815 0.412207 0.989878 0.251589
C7    C     C_R   0.115142 0.463967 0.201870 0.006406
C8    C     C_R   0.282076 0.505734 0.230424 0.085641
C9    C     C_R   0.083140 0.531715 0.802312 -0.038471
C10   C     C_R   0.150002 0.542996 0.897688 -0.057345
C11   C     C_R   0.059500 0.494532 0.955781 -0.026330
C12   C     C_3   0.592133 0.776008 0.256648 -0.347020
C13   C     C_R   0.303652 0.599936 0.939135 0.314937
C14   C     C_R   0.385073 0.590201 0.022742 0.006376
C15   C     C_R   0.302269 0.542102 0.079844 -0.097841
C16   C     C_3   0.045220 0.797191 0.130748 -0.060564
C17   C     C_R   0.135653 0.496912 0.047905 0.046157
C18   C     C_R   0.376676 0.544685 0.170873 -0.087246
C19   C     C_R   0.925544 0.476268 0.771673 -0.268358
C20   C     C_R   0.342050 0.822392 0.434265 -0.096802
C21   C     C_R   0.592161 0.794631 0.523489 -0.006619
C22   C     C_R   0.763838 0.233226 0.536662 0.109901
C23   C     C_3   0.394391 0.288069 0.253049 0.674690
C24   C     C_R   0.869932 0.175402 0.562200 0.006012
C25   C     C_R   0.811971 0.082122 0.546660 -0.091327
C26   C     C_R   0.644042 0.044256 0.508383 0.028849
C27   C     C_R   0.545901 0.102473 0.470806 -0.104334
C28   C     C_3   0.179565 0.743955 0.673408 0.621586
C29   C     C_R   0.574274 0.949684 0.499960 0.039760
C30   C     C_R   0.412885 0.915085 0.446830 -0.104250
C31   C     C_R   0.325215 0.973615 0.406543 -0.069632
C32   C     C_R   0.390617 0.064760 0.418060 0.004174
C33   C     C_R   0.655398 0.889564 0.545689 0.319472
C34   C     C_3   0.309089 0.232405 0.158657 0.217188
C35   C     C_R   0.440115 0.762794 0.464644 -0.405059
C36   C     C_R   0.607547 0.197095 0.484200 -0.034894
C37   C     C_3   0.255608 0.845150 0.694298 0.114588
C38   C     C_3   0.889459 0.265066 0.332048 0.248724
C39   C     C_3   0.822543 0.163391 0.299132 0.047809
C40   C     C_3   0.690375 0.689874 0.750903 0.566913
C41   C     C_3   0.765188 0.726637 0.852549 0.637337
C42   C     C_3   0.111678 0.272053 0.785103 0.341931
C43   C     C_3   0.124805 0.244898 0.878113 -0.286866
C44   C     C_3   0.574469 0.218878 0.729352 0.328373
C45   C     C_3   0.538415 0.124942 0.753192 0.230208
C46   C     C_R   0.822689 0.442543 0.831007 0.027392
H1    H     H_    0.690594 0.805203 0.316934 0.107976
H2    H     H_    0.478999 0.745962 0.281646 0.753580
H3    H     H_    0.492853 0.899289 0.256145 -0.075702
H4    H     H_    0.298217 0.317275 0.287854 0.015620
H5    H     H_    0.241313 0.275100 0.119297 -0.052218
H6    H     H_    0.405679 0.210126 0.119322 0.127732
H7    H     H_    0.105539 0.766287 0.074355 0.107996
H8    H     H_    0.202993 0.335411 0.790144 0.092879
H9    H     H_    0.983976 0.285263 0.767052 -0.051045
H10   H     H_    0.249938 0.228708 0.897441 0.174056
H11   H     H_    0.105545 0.301384 0.930653 0.065997
H12   H     H_    0.391768 0.854569 0.692417 0.047491
H13   H     H_    0.028307 0.184270 0.875881 0.168742
H14   H     H_    0.709027 0.235324 0.725093 -0.040097
H15   H     H_    0.499881 0.216385 0.661728 0.018327
H16   H     H_    0.565312 0.074123 0.697359 0.065410
H17   H     H_    0.404171 0.106445 0.758851 0.105970
H18   H     H_    0.812321 0.374220 0.118765 0.138528
H19   H     H_    0.507453 0.630783 0.046921 0.182307
H20   H     H_    0.876799 0.463632 0.699564 0.134097
H21   H     H_    0.389911 0.691204 0.449729 0.064065
H22   H     H_    0.205072 0.949787 0.364104 0.146191
H23   H     H_    0.197233 0.878918 0.641943 0.055678
H24   H     H_    0.231200 0.775600 0.232658 -0.310406
H25   H     H_    0.903363 0.040854 0.560869 0.162402
H26   H     H_    0.317782 0.105362 0.383916 0.166354
H27   H     H_    0.908450 0.779078 0.107933 0.181146
H28   H     H_    0.085828 0.872051 0.144238 0.103517
H29   H     H_    0.049971 0.735914 0.685987 0.079662
H30   H     H_    0.828354 0.607791 0.702150 0.250589
H31   H     H_    0.985005 0.696288 0.844210 0.277534
H32   H     H_    0.779160 0.615131 0.898389 0.303659
H33   H     H_    0.478099 0.385574 0.192093 0.278333
H34   H     H_    0.786591 0.298827 0.350621 0.020341
H35   H     H_    0.091766 0.173829 0.175460 0.339756
H36   H     H_    0.395737 0.867044 0.105951 0.347508
H37   H     H_    0.119374 0.639047 0.225932 0.209656
H38   H     H_    0.588102 0.150515 0.885463 0.348971
H39   H     H_    0.319260 0.556946 0.356067 0.271586
H40   H     H_    0.857797 0.883166 0.625568 0.339173
H41   H     H_    0.869224 0.345077 0.512398 0.290071
H42   H     H_    0.294654 0.688169 0.581034 0.271815
H43   H     H_    0.988694 0.276981 0.392607 0.053366
H44   H     H_    0.706465 0.142379 0.325502 0.051798
H45   H     H_    0.793356 0.145603 0.223327 0.159124
H46   H     H_    0.556178 0.689894 0.743363 0.074984
H47   H     H_    0.716182 0.789364 0.874847 0.137259
O1    O     O_2   0.826410 0.445300 0.275350 -0.401307
O2    O     O_2   0.207946 0.179102 0.552753 -0.473411
O3    O     O_3   0.147019 0.202089 0.720648 -0.594809
O4    O     O_3   0.098900 0.448430 0.388910 -0.470398
O5    O     O_3   0.590780 0.611410 0.551120 -0.446649
O6    O     O_2   0.326530 0.274990 0.446290 -0.454475
O7    O     O_3   0.468042 0.229920 0.301961 -0.642752
O8    O     O_2   0.481672 0.450546 0.818986 -0.423563
O9    O     O_3   0.528925 0.282826 0.796059 -0.577025
O10   O     O_3   0.628630 0.613330 0.338230 -0.469015
O11   O     O_2   0.721608 0.549972 0.180510 -0.385777
O12   O     O_3   0.759923 0.749409 0.698920 -0.670305
O13   O     O_3   0.952490 0.299860 0.260998 -0.663578
O14   O     O_3   0.651056 0.711931 0.195891 -0.523051
O15   O     O_2   0.863180 0.725040 0.553770 -0.438505
O16   O     O_3   0.060890 0.661420 0.386090 -0.442281
O17   O     O_2   0.015498 0.822744 0.462175 -0.444800
O18   O     O_3   0.718530 0.601680 0.723068 -0.734285
O19   O     O_3   0.939901 0.751235 0.865896 -0.666765
O20   O     O_3   0.715316 0.664952 0.907868 -0.703939
O21   O     O_3   0.519968 0.357859 0.243366 -0.699564
O22   O     O_3   0.199919 0.155046 0.167867 -0.658577
O23   O     O_3   0.024123 0.802975 0.288963 -0.566735
O24   O     O_3   0.432140 0.814927 0.129279 -0.705995
O25   O     O_3   0.031461 0.666947 0.196996 -0.687490
O26   O     O_3   0.640132 0.122134 0.834586 -0.673067
O27   O     O_3   0.355639 0.506574 0.317543 -0.679538
O28   O     O_3   0.780350 0.925784 0.619299 -0.725490
O29   O     O_3   0.813341 0.325494 0.562022 -0.732030
O30   O     O_3   0.187199 0.709559 0.581863 -0.707446
O31   O     O_2   0.363300 0.554730 0.724710 -0.412800
O32   O     O_3   0.090820 0.551650 0.611100 -0.470212
O33   O     O_3   0.561090 0.386750 0.661790 -0.427362
O34   O     O_3   0.267110 0.699576 0.732315 -0.631651
O35   O     O_3   0.598940 0.388670 0.448890 -0.394722
O36   O     O_3   0.128820 0.338650 0.613920 -0.468466
P1    P     P_3+3 0.996530 0.418490 0.288400 1.030819
P2    P     P_3+3 0.693090 0.712100 0.580610 0.999197
P3    P     P_3+3 0.114567 0.778139 0.392086 1.009184
P4    P     P_3+3 0.193180 0.581580 0.711620 1.015647
P5    P     P_3+3 0.088966 0.222394 0.610994 1.013600
P6    P     P_3+3 0.593815 0.603396 0.219683 1.023539
P7    P     P_3+3 0.503825 0.272842 0.420280 1.023038
P8    P     P_3+3 0.602096 0.392143 0.778514 1.080937

loop_
_geom_bond_atom_site_label_1
_geom_bond_atom_site_label_2
_ccdc_geom_bond_type
H39   O27   S    
O17   P3    D    
H38   O26   S    
C23   O7    S    
C43   H11   S    
C36   P7    S    
C18   P6    S    
Ba1   O32   S    
C1    H3    S    
O6    P7    D    
C41   O20   S    
Br2   C39   S    
C38   C39   S    
O36   P5    S    
C11   C17   A    
O14   P6    S    
H30   O18   S    
C29   C30   A    
C38   H34   S    
C34   H5    S    
O34   P4    S    
C31   C32   A    
C8    C18   A    
C21   C33   A    
C40   O12   S    
C33   O28   S    
C23   H4    S    
O23   P3    S    
C26   C29   A    
C40   H46   S    
O4    P1    S    
Ba2   O5    S    
C37   H23   S    
Ba1   Ba2   S    
C21   C35   A    
O10   P6    S    
C2    C6    A    
C45   H16   S    
C4    H24   S    
O11   P6    D    
O5    P2    S    
C40   O18   S    
C22   O29   S    
C40   C41   S    
C9    C10   A    
C15   C18   A    
H42   O30   S    
Ba2   O32   S    
C7    P1    S    
C23   C34   S    
O31   P4    D    
Ba1   O16   S    
C16   H27   S    
O16   P3    S    
O35   P7    S    
C39   H45   S    
C44   O9    S    
C8    O27   S    
C14   C15   A    
C22   C36   A    
C43   H10   S    
C37   H12   S    
C9    P4    S    
O3    P5    S    
C28   O34   S    
C28   H29   S    
C1    C12   S    
C10   C11   A    
C41   O19   S    
C31   H22   S    
C9    C19   A    
C16   H7    S    
C41   H47   S    
Br1   C37   S    
C35   H21   S    
Ba2   O33   S    
C42   H8    S    
C14   H19   S    
C44   C45   S    
H41   O29   S    
O12   P2    S    
C29   C33   A    
C21   P2    S    
C34   H6    S    
H35   O22   S    
C3    C7    A    
O1    P1    D    
C1    O24   S    
C12   O14   S    
C3    C17   A    
C19   H20   S    
Ba2   O6    S    
Ba2   O36   S    
C27   C32   A    
C32   H26   S    
C34   O22   S    
C24   P5    S    
H32   O20   S    
C30   C31   A    
Ba1   O10   S    
C24   C25   A    
Ba1   O4    S    
C23   O21   S    
Ba2   O4    S    
H33   O21   S    
Ba2   O31   S    
C44   H14   S    
C13   C14   A    
C28   C37   S    
C43   H13   S    
C28   O30   S    
C3    C5    A    
C12   H1    S    
O2    P5    D    
C39   H44   S    
C42   C43   S    
C15   C17   A    
C2    C46   A    
O7    P7    S    
C19   C46   A    
Ba1   O1    S    
O8    P8    D    
Ba1   P1    S    
C12   H2    S    
O33   P8    S    
C45   O26   S    
C42   H9    S    
C16   H28   S    
C4    O25   S    
C10   C13   A    
C5    H18   S    
C4    O23   S    
C27   C36   A    
C42   O3    S    
Br3   C1    S    
H36   O24   S    
O32   P4    S    
O15   P2    D    
Ba2   O35   S    
C46   P8    S    
Ba2   P4    S    
C25   C26   A    
H40   O28   S    
C22   C24   A    
Br4   C6    S    
C20   C35   A    
C20   C30   A    
H31   O19   S    
C4    C16   S    
H37   O25   S    
C26   C27   A    
O9    P8    S    
O13   P1    S    
C44   H15   S    
C20   P3    S    
C45   H17   S    
C25   H25   S    
C38   O13   S    
C2    C11   A    
C5    C6    A    
Br5   C13   S    
C7    C8    A    
Ba1   O15   S    
Ba1   O35   S    
C38   H43   S    
Ba1   P2    S    
Ba1   O5    S    
