data_mof_unit_18680.cif
_audit_creation_date              2012-10-26T21:07:43-0400
_audit_creation_method            fapswitch 2.2
_symmetry_space_group_name_H-M    P1
_symmetry_Int_Tables_number       1
_space_group_crystal_system       triclinic
_cell_length_a                    11.088365
_cell_length_b                    9.084478
_cell_length_c                    7.796486
_cell_angle_alpha                 89.999866
_cell_angle_beta                  101.785401
_cell_angle_gamma                 89.998067
_cell_volume                      768.799968962

loop_
_atom_site_label
_atom_site_type_symbol
_atom_type_description
_atom_site_fract_x
_atom_site_fract_y
_atom_site_fract_z
_atom_type_partial_charge
C1    C     C_R   0.500006 0.220074 0.500002 0.551952
C2    C     C_1   0.500015 0.934580 0.500005 -0.067925
C3    C     C_3   0.879269 0.728448 0.800739 0.025965
C4    C     C_3   0.937268 0.852415 0.711701 -0.301465
C5    C     C_3   0.887850 0.002764 0.751376 -0.473722
C6    C     C_3   0.121371 0.729868 0.201018 0.025567
C7    C     C_3   0.063216 0.853439 0.290466 -0.301297
C8    C     C_3   0.113240 0.003926 0.252590 -0.473522
C9    C     C_R   0.500008 0.779920 0.500002 0.528292
C10   C     C_R   0.263032 0.507646 0.430910 0.532959
C11   C     C_R   0.736973 0.507688 0.569094 0.533024
C12   C     C_2   0.130221 0.534462 0.392954 0.236329
C13   C     C_2   0.869838 0.534197 0.607089 0.235972
C14   C     C_2   0.066957 0.505251 0.518098 -0.115540
C15   C     C_2   0.932991 0.505539 0.481658 -0.115611
C16   C     C_1   0.500015 0.065379 0.500006 -0.064106
Cu1   Cu    Cu3+1 0.500010 0.500000 0.669080 1.009197
Cu2   Cu    Cu3+1 0.499990 0.500000 0.330920 1.009294
H1    H     H_    0.885656 0.473620 0.350720 0.159523
H2    H     H_    0.102691 0.749394 0.057931 0.167094
H3    H     H_    0.223206 0.736743 0.241739 0.144051
H4    H     H_    0.961531 0.851916 0.244676 0.164697
H5    H     H_    0.085338 0.835492 0.434236 0.158590
H6    H     H_    0.213792 0.009979 0.307448 0.155549
H7    H     H_    0.066428 0.091262 0.314412 0.158028
H8    H     H_    0.096693 0.024221 0.109316 0.154933
H9    H     H_    0.114199 0.472486 0.648768 0.159460
H10   H     H_    0.898380 0.747228 0.943973 0.168285
H11   H     H_    0.777419 0.735610 0.760657 0.144015
H12   H     H_    0.039019 0.850437 0.756604 0.164976
H13   H     H_    0.914492 0.835354 0.567787 0.158312
H14   H     H_    0.787202 0.009340 0.697374 0.155779
H15   H     H_    0.934576 0.090367 0.689849 0.158301
H16   H     H_    0.905045 0.022156 0.894859 0.154693
N1    N     N_1   0.499980 0.500000 0.076820 -0.079088
N2    N     N_1   0.500020 0.500000 0.923180 -0.079112
O1    O     O_R   0.500010 0.288400 0.642760 -0.491796
O2    O     O_3   0.070961 0.590479 0.231464 -0.555383
O3    O     O_R   0.499990 0.711600 0.357240 -0.506435
O4    O     O_R   0.499990 0.288400 0.357240 -0.491782
O5    O     O_R   0.500010 0.711600 0.642760 -0.506403
O6    O     O_R   0.320690 0.500000 0.590310 -0.530959
O7    O     O_R   0.679310 0.500000 0.409690 -0.530993
O8    O     O_R   0.320680 0.500000 0.304730 -0.487239
O9    O     O_R   0.679320 0.500000 0.695270 -0.487471
O10   O     O_3   0.929313 0.589161 0.769014 -0.554989

loop_
_geom_bond_atom_site_label_1
_geom_bond_atom_site_label_2
_ccdc_geom_bond_type
C2    C9    S    
Cu2   O3    S    
C6    O2    S    
C11   O7    A    
C6    C7    S    
Cu1   N2    S    
Cu2   O8    S    
C14   H9    S    
C10   O6    A    
C7    H4    S    
C2    C16   T    
Cu2   N1    S    
C3    O10   S    
C9    O5    A    
N1    N2    T    
C1    O1    A    
C5    H14   S    
C5    H16   S    
Cu1   Cu2   S    
C7    C8    S    
C1    C16   S    
Cu1   O1    S    
Cu2   O7    S    
C15   H1    S    
C8    H7    S    
C11   C13   S    
C10   C12   S    
C7    H5    S    
C3    H10   S    
C8    H6    S    
C12   C14   D    
C13   C15   D    
C12   O2    S    
C13   O10   S    
Cu1   O5    S    
C11   O9    A    
C4    H13   S    
C8    H8    S    
C10   O8    A    
C3    C4    S    
C9    O3    A    
C6    H2    S    
C3    H11   S    
Cu2   O4    S    
Cu1   O6    S    
C1    O4    A    
C14   C15   S    
C6    H3    S    
C4    H12   S    
Cu1   O9    S    
C4    C5    S    
C5    H15   S    
