data_mof_unit_60694.cif
_audit_creation_date              2012-12-10T17:59:06-0500
_audit_creation_method            fapswitch 2.2
_symmetry_space_group_name_H-M    P1
_symmetry_Int_Tables_number       1
_space_group_crystal_system       triclinic
_cell_length_a                    18.626511
_cell_length_b                    18.66811
_cell_length_c                    18.95476
_cell_angle_alpha                 109.490337
_cell_angle_beta                  109.650557
_cell_angle_gamma                 108.756
_cell_volume                      5105.57716652

loop_
_atom_site_label
_atom_site_type_symbol
_atom_type_description
_atom_site_fract_x
_atom_site_fract_y
_atom_site_fract_z
_atom_type_partial_charge
C1    C     C_R   0.618841 0.618818 0.500249 0.794611
C2    C     C_3   0.175515 0.427086 0.214204 -0.151105
C3    C     C_3   0.227389 0.496574 0.311167 -0.196430
C4    C     C_3   0.311815 0.500108 0.313374 -0.036026
C5    C     C_R   0.666901 0.696816 0.428709 0.095901
C6    C     C_R   0.684838 0.686541 0.501104 -0.064955
C7    C     C_R   0.764018 0.748936 0.577928 -0.209239
C8    C     C_R   0.828808 0.812940 0.577791 -0.220367
C9    C     C_R   0.813540 0.816304 0.501339 -0.106136
C10   C     C_R   0.729975 0.761238 0.429057 0.144729
C11   C     C_3   0.703109 0.703510 0.337861 -0.469464
C12   C     C_R   0.380155 0.500013 0.380856 0.787498
C13   C     C_3   0.633879 0.632680 0.337647 -0.482854
C14   C     C_R   0.724746 0.449674 0.672960 0.051105
C15   C     C_R   0.687247 0.502009 0.687503 -0.107142
C16   C     C_R   0.716527 0.559239 0.773870 -0.272294
C17   C     C_R   0.780549 0.563269 0.843392 0.145913
C18   C     C_R   0.817386 0.507170 0.824867 -0.096571
C19   C     C_R   0.786349 0.452100 0.738419 0.009497
C20   C     C_3   0.792509 0.380658 0.678985 0.266228
C21   C     C_3   0.722908 0.379467 0.604129 -0.431026
C22   C     C_R   0.244956 0.243050 0.426310 0.125725
C23   C     C_R   0.381495 0.381381 0.500170 0.800983
C24   C     C_R   0.316478 0.315479 0.501814 -0.089463
C25   C     C_R   0.322698 0.322994 0.580523 -0.211503
C26   C     C_R   0.258207 0.257665 0.580558 -0.212464
C27   C     C_R   0.185595 0.185979 0.501864 -0.087824
C28   C     C_R   0.181612 0.182267 0.426317 0.125108
C29   C     C_3   0.129165 0.129660 0.330514 -0.477215
C30   C     C_3   0.201118 0.199669 0.330515 -0.478660
C31   C     C_R   0.007431 0.618950 0.126045 0.786052
C32   C     C_R   0.123488 0.500176 0.123436 0.793543
C33   C     C_R   0.005433 0.381139 0.886302 0.786843
C34   C     C_R   0.619896 0.500024 0.619315 0.815405
C35   C     C_R   0.884349 0.504041 0.888508 0.820109
C36   C     C_R   0.996728 0.116988 0.617207 0.794395
C37   C     C_R   0.881042 0.880706 0.499476 0.790449
C38   C     C_R   0.001237 0.881188 0.382940 0.796949
C39   C     C_R   0.118697 0.118700 0.500273 0.798368
C40   C     C_R   0.973252 0.667025 0.244213 0.062505
C41   C     C_R   0.012702 0.687060 0.197253 -0.115558
C42   C     C_R   0.058549 0.775299 0.220620 -0.195971
C43   C     C_R   0.054374 0.839308 0.281291 -0.217725
C44   C     C_R   0.005114 0.815732 0.319514 -0.050437
C45   C     C_3   0.325616 0.571823 0.289712 0.320114
C46   C     C_R   0.970236 0.730758 0.304888 0.073028
C47   C     C_3   0.879963 0.670550 0.280672 -0.525113
C48   C     C_3   0.883016 0.599834 0.213964 -0.015568
C49   C     C_R   0.925696 0.237666 0.754635 0.051220
C50   C     C_R   0.003176 0.315276 0.816362 -0.077403
C51   C     C_R   0.076210 0.331760 0.804592 -0.201961
C52   C     C_R   0.073525 0.266418 0.738496 -0.204957
C53   C     C_R   0.996632 0.185725 0.681433 -0.087750
C54   C     C_R   0.920344 0.175117 0.685351 0.093215
C55   C     C_3   0.855036 0.102932 0.686217 -0.068236
C56   C     C_3   0.242150 0.570422 0.287893 -0.155799
C57   C     C_3   0.865409 0.172784 0.765373 -0.500769
C58   C     C_3   0.191536 0.500684 0.191777 -0.017219
C59   C     C_3   0.275886 0.504060 0.193443 -0.205706
C60   C     C_3   0.260840 0.430720 0.217172 -0.206174
Cu1   Cu    Cu3+1 0.500490 0.438210 0.438660 0.930096
Cu2   Cu    Cu3+1 0.499510 0.561790 0.561340 0.945579
Cu3   Cu    Cu3+1 0.942090 0.438240 0.003860 0.917404
Cu4   Cu    Cu3+1 0.065700 0.561800 0.003830 0.924508
Cu5   Cu    Cu3+1 0.937720 0.000020 0.437750 0.929147
Cu6   Cu    Cu3+1 0.062280 0.000080 0.562350 0.944309
H1    H     H_    0.234243 0.628038 0.315726 0.125197
H2    H     H_    0.754512 0.688361 0.332274 0.189230
H3    H     H_    0.566204 0.615079 0.293788 0.189666
H4    H     H_    0.645318 0.576569 0.331806 0.211989
H5    H     H_    0.688899 0.601607 0.788239 0.168894
H6    H     H_    0.747439 0.403788 0.566230 0.177905
H7    H     H_    0.658519 0.319163 0.563994 0.185702
H8    H     H_    0.377490 0.378218 0.641398 0.153528
H9    H     H_    0.264303 0.263817 0.641455 0.150933
H10   H     H_    0.126211 0.065180 0.305573 0.188369
H11   H     H_    0.065284 0.128254 0.304819 0.206661
H12   H     H_    0.239285 0.175443 0.305024 0.205441
H13   H     H_    0.178914 0.239083 0.305402 0.192086
H14   H     H_    0.093518 0.794376 0.188827 0.166567
H15   H     H_    0.087190 0.906360 0.296368 0.130858
H16   H     H_    0.878415 0.660247 0.334750 0.198524
H17   H     H_    0.831720 0.689213 0.251066 0.180202
H18   H     H_    0.295546 0.508234 0.145162 0.135057
H19   H     H_    0.836146 0.577231 0.146147 0.166437
H20   H     H_    0.136491 0.393010 0.848957 0.156298
H21   H     H_    0.131850 0.277974 0.733186 0.141466
H22   H     H_    0.878783 0.058921 0.700080 0.158726
H23   H     H_    0.805764 0.178520 0.756391 0.196389
H24   H     H_    0.899661 0.171912 0.825516 0.194024
H25   H     H_    0.268776 0.373178 0.189113 0.153917
H26   H     H_    0.112175 0.366826 0.181736 0.144850
H27   H     H_    0.208437 0.492963 0.360004 0.142640
H28   H     H_    0.777160 0.745619 0.636617 0.144797
H29   H     H_    0.890978 0.858441 0.636631 0.161231
H30   H     H_    0.675357 0.726733 0.294214 0.200607
O1    O     O_R   0.590590 0.537990 0.448210 -0.590193
O2    O     O_R   0.055390 0.642370 0.093330 -0.592887
O3    O     O_R   0.042570 0.447840 0.094710 -0.593328
O4    O     O_R   0.146960 0.552180 0.094690 -0.589374
O5    O     O_R   0.952400 0.357670 0.914360 -0.583179
O6    O     O_R   0.056780 0.462020 0.914330 -0.593414
O7    O     O_R   0.860840 0.447860 0.913000 -0.587258
O8    O     O_R   0.965220 0.552200 0.912980 -0.591821
O9    O     O_R   0.946640 0.090180 0.536890 -0.591740
O10   O     O_R   0.051820 0.090220 0.642110 -0.586983
O11   O     O_R   0.857230 0.909860 0.447430 -0.591281
O12   O     O_R   0.589760 0.642350 0.551800 -0.581538
O13   O     O_R   0.962420 0.909900 0.552660 -0.586563
O14   O     O_R   0.948170 0.909880 0.357990 -0.587978
O15   O     O_R   0.053360 0.909920 0.463210 -0.579911
O16   O     O_R   0.037580 0.090200 0.447440 -0.583574
O17   O     O_R   0.142770 0.090240 0.552670 -0.586457
O18   O     O_R   0.409550 0.447830 0.357350 -0.595986
O19   O     O_R   0.408710 0.552190 0.460940 -0.575581
O20   O     O_R   0.410240 0.357650 0.448200 -0.586723
O21   O     O_R   0.409410 0.462010 0.551790 -0.589061
O22   O     O_R   0.591290 0.447810 0.539060 -0.587037
O23   O     O_R   0.590450 0.552170 0.642650 -0.600499
O24   O     O_R   0.951010 0.538020 0.093350 -0.602723
C61   C     C_3   0.800045 0.628697 0.930402 -0.443965
C62   C     C_3   0.866500 0.638475 0.009893 -0.835149
H31   H     H_    0.844097 0.575615 0.009389 0.259754
H32   H     H_    0.930630 0.662552 0.012828 0.266707
H33   H     H_    0.872657 0.687553 0.067800 0.240061
H34   H     H_    0.822474 0.693936 0.935261 0.210644
H35   H     H_    0.738038 0.610685 0.932492 0.208776
C63   C     C_3   0.883809 0.414180 0.686544 -0.404234
C64   C     C_3   0.887289 0.349183 0.614702 -0.837058
H36   H     H_    0.877277 0.289647 0.619795 0.251854
H37   H     H_    0.836874 0.330991 0.550388 0.249626
H38   H     H_    0.952557 0.379199 0.620623 0.249369
H39   H     H_    0.903516 0.476247 0.684810 0.203710
H40   H     H_    0.932839 0.428344 0.749649 0.209885
C65   C     C_3   0.762062 0.297250 0.686876 -0.355318
C66   C     C_3   0.680609 0.270875 0.696844 -0.843001
H41   H     H_    0.692076 0.322371 0.756598 0.265384
H42   H     H_    0.623006 0.257264 0.640547 0.246588
H43   H     H_    0.665381 0.210605 0.701547 0.231829
H44   H     H_    0.748875 0.241786 0.629090 0.199614
H45   H     H_    0.816127 0.307817 0.744249 0.206232
N1    N     N_2   0.409042 0.649655 0.333127 -0.430056
H46   H     H_    0.459776 0.636626 0.338547 0.235229
C67   C     C_3   0.409095 0.710743 0.302281 -0.687920
H47   H     H_    0.474338 0.770104 0.342753 0.227005
H48   H     H_    0.359593 0.730125 0.306630 0.235958
H49   H     H_    0.394930 0.681381 0.234373 0.218221
C68   C     C_3   0.882493 0.525726 0.232776 -0.344415
C69   C     C_3   0.790972 0.463321 0.209324 -0.850841
H50   H     H_    0.767647 0.497935 0.248446 0.256820
H51   H     H_    0.744716 0.434569 0.139799 0.249262
H52   H     H_    0.792259 0.409857 0.222318 0.239100
H53   H     H_    0.904447 0.488605 0.193947 0.219002
H54   H     H_    0.928371 0.552137 0.301996 0.205023
C70   C     C_3   0.761829 0.055694 0.609057 -0.382966
C71   C     C_3   0.748650 0.983684 0.530054 -0.812981
H55   H     H_    0.791140 0.011352 0.506389 0.280254
H56   H     H_    0.763314 0.936557 0.546412 0.249079
H57   H     H_    0.679605 0.948819 0.477837 0.233900
H58   H     H_    0.714471 0.025784 0.627603 0.214644
H59   H     H_    0.746401 0.102375 0.591843 0.207821

loop_
_geom_bond_atom_site_label_1
_geom_bond_atom_site_label_2
_ccdc_geom_bond_type
C11   H30   S    
C34   O22   A    
C42   H14   S    
Cu6   O17   S    
C41   C42   A    
C19   C20   S    
C32   C58   S    
Cu3   O5    S    
C63   C64   S    
C7    C8    A    
C29   H10   S    
C53   C54   A    
C70   H59   S    
Cu4   O6    S    
C8    H29   S    
C26   C27   A    
C57   H23   S    
C33   O5    A    
C14   C21   S    
C27   C28   A    
C28   C29   S    
C61   H35   S    
C35   O7    A    
C67   H49   S    
C5    C6    A    
C2    C60   S    
C47   H16   S    
Cu2   O12   S    
C13   H4    S    
C5    C10   A    
C49   C54   A    
C21   H7    S    
C49   C57   S    
C40   C48   S    
C25   H8    S    
C31   O2    A    
C55   H22   S    
Cu2   O21   S    
Cu3   O3    S    
C36   C53   S    
C23   O20   A    
C54   C55   S    
C45   C56   S    
C27   C39   S    
C16   C17   A    
C39   O17   A    
C23   C24   S    
C70   H58   S    
C47   H17   S    
Cu6   O15   S    
C38   O14   A    
C22   C30   S    
C18   C35   S    
C15   C34   S    
C5    C13   S    
C12   O19   A    
Cu4   O2    S    
Cu1   O22   S    
C59   C60   S    
C20   C65   S    
C22   C28   A    
C16   H5    S    
C68   H54   S    
Cu6   O10   S    
C66   H43   S    
C51   H20   S    
Cu5   O9    S    
C44   C46   A    
C17   C18   A    
C12   O18   A    
C4    C45   S    
C52   H21   S    
C65   H44   S    
C31   O24   A    
C57   H24   S    
C21   H6    S    
C36   O10   A    
C51   C52   A    
C20   C63   S    
C65   C66   S    
C59   H18   S    
Cu3   O7    S    
C35   O8    A    
C69   H52   S    
C1    O1    A    
C8    C9    A    
C33   C50   S    
C33   O6    A    
C71   H55   S    
C55   C70   S    
C43   C44   A    
Cu5   O16   S    
C38   C44   S    
C29   C30   S    
C63   H40   S    
C3    C56   S    
C47   C48   S    
C14   C15   A    
Cu4   O4    S    
C4    C60   S    
Cu1   O20   S    
C9    C37   S    
C50   C51   A    
Cu2   O23   S    
C3    H27   S    
C52   C53   A    
C24   C25   A    
C2    H26   S    
C61   C62   S    
C30   H13   S    
C67   H48   S    
C39   O16   A    
C49   C50   A    
C55   C57   S    
C45   N1    S    
C43   H15   S    
C22   C24   A    
C58   C59   S    
C4    C12   S    
C42   C43   A    
C40   C46   A    
C62   H32   S    
C3    C4    S    
C70   C71   S    
C11   H2    S    
C66   H42   S    
C64   H36   S    
C9    C10   A    
C60   H25   S    
C17   C61   S    
C34   O23   A    
Cu4   O8    S    
C7    H28   S    
C46   C47   S    
C45   C59   S    
C31   C41   S    
C36   O9    A    
N1    H46   S    
C37   O13   A    
C14   C19   A    
C71   H57   S    
Cu1   O1    S    
C67   H47   S    
C23   O21   A    
C2    C58   S    
C37   O11   A    
C6    C7    A    
C56   H1    S    
C1    C6    S    
C32   O3    A    
C64   H38   S    
C62   H33   S    
C69   H51   S    
C2    C3    S    
C25   C26   A    
Cu2   O19   S    
C69   H50   S    
Cu3   O24   S    
C11   C13   S    
C13   H3    S    
C48   C68   S    
C71   H56   S    
C65   H45   S    
C56   C58   S    
N1    C67   S    
C68   C69   S    
Cu6   O13   S    
Cu1   Cu2   S    
Cu5   O14   S    
C10   C11   S    
C1    O12   A    
Cu3   Cu4   S    
C30   H12   S    
C32   O4    A    
C61   H34   S    
C29   H11   S    
C20   C21   S    
C26   H9    S    
Cu5   Cu6   S    
C68   H53   S    
Cu1   O18   S    
C62   H31   S    
C18   C19   A    
C48   H19   S    
C66   H41   S    
C40   C41   A    
C38   O15   A    
C63   H39   S    
Cu5   O11   S    
C15   C16   A    
C64   H37   S    
