data_mof_unit_30352.cif
_audit_creation_date              2012-12-10T18:11:04-0500
_audit_creation_method            fapswitch 2.2
_symmetry_space_group_name_H-M    P1
_symmetry_Int_Tables_number       1
_space_group_crystal_system       triclinic
_cell_length_a                    10.728735
_cell_length_b                    9.420304
_cell_length_c                    10.645788
_cell_angle_alpha                 90.234577
_cell_angle_beta                  89.428301
_cell_angle_gamma                 89.981073
_cell_volume                      1075.88526657

loop_
_atom_site_label
_atom_site_type_symbol
_atom_type_description
_atom_site_fract_x
_atom_site_fract_y
_atom_site_fract_z
_atom_type_partial_charge
C1    C     C_R   0.259632 0.500248 0.499297 0.768942
C2    C     C_3   0.502846 0.498914 0.123134 -0.192530
C3    C     C_3   0.071177 0.655502 0.490137 -0.371963
C4    C     C_3   0.069971 0.433545 0.620657 -0.395655
C5    C     C_3   0.928454 0.655436 0.492362 -0.379045
C6    C     C_3   0.926371 0.429342 0.618719 -0.377543
C7    C     C_3   0.073067 0.416288 0.383624 -0.373657
C8    C     C_3   0.121576 0.501163 0.498328 0.165416
C9    C     C_3   0.877932 0.500838 0.497841 0.170062
C10   C     C_3   0.929150 0.418256 0.382031 -0.382685
C11   C     C_3   0.614257 0.083995 0.561469 -0.196477
C12   C     C_3   0.614242 0.916502 0.561460 -0.193196
C13   C     C_3   0.392178 0.084099 0.574017 -0.196496
C14   C     C_3   0.392122 0.916572 0.573928 -0.190452
C15   C     C_3   0.494306 0.083039 0.373735 -0.150940
C16   C     C_3   0.494292 0.915931 0.373705 -0.175308
C17   C     C_R   0.501266 0.499643 0.259521 0.866757
C18   C     C_R   0.740050 0.500169 0.498593 0.752930
C19   C     C_R   0.500141 0.500319 0.740653 0.839393
C20   C     C_3   0.400497 0.565327 0.043619 0.567576
C21   C     C_3   0.503459 0.366211 0.039560 0.596811
C22   C     C_3   0.400089 0.432011 0.960263 -0.054892
C23   C     C_3   0.500741 0.500873 0.877307 -0.168459
C24   C     C_3   0.500558 0.635761 0.959812 -0.176552
C25   C     C_3   0.605072 0.433740 0.955633 -0.216497
C26   C     C_3   0.604387 0.568190 0.040721 -0.314256
Cu1   Cu    Cu3+1 0.499860 0.642410 0.500060 0.907414
Cu2   Cu    Cu3+1 0.499860 0.357590 0.500060 0.905045
H1    H     H_    0.896564 0.469029 0.294002 0.156497
H2    H     H_    0.893730 0.307204 0.382312 0.164654
H3    H     H_    0.622689 0.124251 0.659396 0.152854
H4    H     H_    0.622731 0.877071 0.659355 0.147310
H5    H     H_    0.698703 0.120765 0.509813 0.138520
H6    H     H_    0.698618 0.879346 0.509671 0.138678
H7    H     H_    0.393109 0.123737 0.672447 0.146420
H8    H     H_    0.392602 0.877344 0.672320 0.149448
H9    H     H_    0.408955 0.121851 0.326225 0.171620
H10   H     H_    0.408898 0.876896 0.326183 0.174816
H11   H     H_    0.575261 0.121128 0.317136 0.186088
H12   H     H_    0.575155 0.877292 0.316918 0.150893
H13   H     H_    0.303396 0.121491 0.532660 0.138869
H14   H     H_    0.303481 0.879235 0.532104 0.140079
H15   H     H_    0.498471 0.746673 0.925001 0.162724
H16   H     H_    0.688779 0.379084 0.916821 0.146219
H17   H     H_    0.688064 0.623692 0.076821 0.167477
H18   H     H_    0.105181 0.706685 0.402127 0.183230
H19   H     H_    0.107121 0.324110 0.632496 0.162975
H20   H     H_    0.105330 0.720089 0.570596 0.157478
H21   H     H_    0.099905 0.498146 0.702424 0.153148
H22   H     H_    0.894842 0.716890 0.575644 0.162025
H23   H     H_    0.888225 0.484793 0.703305 0.149011
H24   H     H_    0.893824 0.709899 0.406857 0.162317
H25   H     H_    0.894444 0.317017 0.623072 0.161442
H26   H     H_    0.110141 0.463399 0.295191 0.174123
H27   H     H_    0.106226 0.304424 0.387512 0.162604
N1    N     N_3   0.500250 0.143650 0.502780 -0.131687
N2    N     N_3   0.500250 0.856350 0.502780 -0.125794
O1    O     O_R   0.317570 0.620260 0.500070 -0.592439
O2    O     O_R   0.317570 0.379740 0.500070 -0.603782
O3    O     O_R   0.499850 0.620240 0.316900 -0.578012
O4    O     O_R   0.499850 0.379760 0.316900 -0.568890
O5    O     O_R   0.682190 0.620260 0.500030 -0.602921
O6    O     O_R   0.682190 0.379740 0.500030 -0.600293
O7    O     O_R   0.499910 0.620280 0.683200 -0.590831
O8    O     O_R   0.499910 0.379720 0.683200 -0.591431
C27   C     C_3   0.284829 0.355579 0.911506 -0.365195
C28   C     C_3   0.201264 0.302602 0.018951 -0.305998
C29   C     C_3   0.085139 0.229515 0.968288 -0.876806
H28   H     H_    0.029957 0.304707 0.910978 0.253655
H29   H     H_    0.111748 0.136397 0.909516 0.256587
H30   H     H_    0.026134 0.192450 0.047921 0.246796
H31   H     H_    0.253497 0.226274 0.077890 0.248158
H32   H     H_    0.171668 0.393435 0.078963 0.244004
H33   H     H_    0.232305 0.431267 0.853051 0.184852
H34   H     H_    0.314930 0.264618 0.851902 0.201232
F1    F     F_    0.296245 0.633528 0.091849 -0.695872
F2    F     F_    0.505561 0.227646 0.081817 -0.700594

loop_
_geom_bond_atom_site_label_1
_geom_bond_atom_site_label_2
_ccdc_geom_bond_type
C7    C10   S    
C1    C8    S    
C7    H27   S    
C4    C8    S    
C6    C9    S    
C13   H13   S    
Cu2   N1    S    
C7    C8    S    
C24   C26   S    
C13   H7    S    
Cu1   O3    S    
C1    O2    A    
C14   H8    S    
C18   O6    A    
C15   C16   S    
C27   H33   S    
C3    H20   S    
C20   F1    S    
C28   H31   S    
C15   H9    S    
C26   H17   S    
C17   O4    A    
C22   C27   S    
C20   C24   S    
C29   H28   S    
C23   C24   S    
C5    H24   S    
C28   H32   S    
C6    H23   S    
C9    C10   S    
C14   H14   S    
C13   N1    S    
Cu2   O4    S    
C27   C28   S    
C11   H3    S    
C13   C14   S    
C12   H4    S    
C2    C17   S    
C25   H16   S    
C2    C20   S    
C28   C29   S    
C11   H5    S    
C4    C6    S    
C3    C8    S    
Cu1   N2    S    
C18   O5    A    
C25   C26   S    
C19   C23   S    
C5    C9    S    
Cu1   O5    S    
C10   H2    S    
C19   O7    A    
C2    C21   S    
C2    C26   S    
C15   H11   S    
C16   H12   S    
C12   N2    S    
C20   C22   S    
C5    H22   S    
C6    H25   S    
C12   H6    S    
Cu2   O2    S    
C14   N2    S    
C21   C25   S    
C3    C5    S    
Cu1   O1    S    
C11   C12   S    
C3    H18   S    
C4    H21   S    
C15   N1    S    
Cu2   O8    S    
C1    O1    A    
C10   H1    S    
C29   H30   S    
C27   H34   S    
C19   O8    A    
C16   N2    S    
C23   C25   S    
Cu1   O7    S    
C17   O3    A    
Cu2   O6    S    
C9    C18   S    
C29   H29   S    
C21   F2    S    
Cu1   Cu2   S    
C24   H15   S    
C22   C23   S    
C7    H26   S    
C21   C22   S    
C11   N1    S    
C16   H10   S    
C4    H19   S    
