data_mof_unit_40163.cif
_audit_creation_date              2012-12-11T16:58:25-0500
_audit_creation_method            fapswitch 2.2
_symmetry_space_group_name_H-M    P1
_symmetry_Int_Tables_number       1
_space_group_crystal_system       triclinic
_cell_length_a                    16.897068
_cell_length_b                    7.254598
_cell_length_c                    16.870501
_cell_angle_alpha                 89.996396
_cell_angle_beta                  100.427061
_cell_angle_gamma                 90.003972
_cell_volume                      2033.85931477

loop_
_atom_site_label
_atom_site_type_symbol
_atom_type_description
_atom_site_fract_x
_atom_site_fract_y
_atom_site_fract_z
_atom_type_partial_charge
O1    O     O_R   0.413450 0.494370 0.415710 -0.534107
O2    O     O_R   0.586550 0.994370 0.584290 -0.534103
O3    O     O_R   0.578420 0.819350 0.429360 -0.540906
O4    O     O_R   0.421580 0.319350 0.570640 -0.540925
C1    C     C_R   0.604801 0.653897 0.413741 0.702578
C2    C     C_R   0.395199 0.153875 0.586258 0.702598
O5    O     O_R   0.413570 0.823780 0.406240 -0.542842
O6    O     O_R   0.586430 0.323780 0.593760 -0.542840
O7    O     O_R   0.420530 0.998740 0.561000 -0.535748
O8    O     O_R   0.579470 0.498740 0.439000 -0.535703
C3    C     C_R   0.386145 0.655361 0.383607 0.686010
C4    C     C_R   0.613854 0.155363 0.616394 0.686037
O9    O     O_3   0.502480 0.662320 0.550800 -0.376190
O10   O     O_3   0.497520 0.162320 0.449200 -0.376163
V1    V     V_3+5 0.499540 0.935370 0.490580 1.400179
V2    V     V_3+5 0.500460 0.435370 0.509420 1.400155
C5    C     C_R   0.695264 0.989318 0.735431 0.124856
C6    C     C_R   0.304728 0.489319 0.264574 0.124881
C7    C     C_R   0.680665 0.147030 0.686965 -0.108884
C8    C     C_R   0.319334 0.647026 0.313035 -0.108883
C9    C     C_R   0.730936 0.300407 0.709646 -0.188261
C10   C     C_R   0.269071 0.800402 0.290349 -0.188269
H1    H     H_    0.721820 0.426384 0.675058 0.141602
H2    H     H_    0.278192 0.926372 0.324933 0.141619
C11   C     C_R   0.797098 0.288768 0.773807 -0.181242
C12   C     C_R   0.202910 0.788766 0.226188 -0.181259
H3    H     H_    0.836160 0.407208 0.786880 0.140191
H4    H     H_    0.163854 0.907203 0.213111 0.140202
C13   C     C_R   0.815371 0.122967 0.817186 -0.107611
C14   C     C_R   0.184630 0.622969 0.182813 -0.107612
C15   C     C_R   0.760554 0.977684 0.798720 0.113359
C16   C     C_R   0.239439 0.477689 0.201285 0.113422
C17   C     C_3   0.774161 0.779477 0.782269 -0.429943
C18   C     C_3   0.225823 0.279476 0.217737 -0.429955
C19   C     C_3   0.702785 0.792199 0.713125 -0.408214
C20   C     C_3   0.297198 0.292196 0.286882 -0.408258
H5    H     H_    0.762623 0.689183 0.832190 0.177255
H6    H     H_    0.237359 0.189189 0.167820 0.177268
H7    H     H_    0.832347 0.755288 0.761960 0.173199
H8    H     H_    0.167636 0.255276 0.238044 0.173194
H9    H     H_    0.650229 0.709122 0.723252 0.182080
H10   H     H_    0.349749 0.209120 0.276758 0.182091
H11   H     H_    0.719703 0.775255 0.652823 0.167367
H12   H     H_    0.280279 0.275240 0.347183 0.167369
C21   C     C_R   0.333173 0.132112 0.638197 -0.098905
C22   C     C_R   0.666849 0.632216 0.361824 -0.098813
C23   C     C_R   0.167207 0.137854 0.862948 -0.097036
C24   C     C_R   0.832774 0.637752 0.137032 -0.096990
C25   C     C_R   0.269298 0.338282 0.819812 0.331818
C26   C     C_R   0.730461 0.837835 0.179946 0.332082
C27   C     C_R   0.216120 0.296863 0.872744 -0.247081
C28   C     C_R   0.783687 0.796452 0.127057 -0.247120
C29   C     C_R   0.174079 0.015701 0.800143 -0.240319
C30   C     C_R   0.826055 0.515882 0.199988 -0.240165
C31   C     C_R   0.226835 0.055217 0.746333 0.092394
C32   C     C_R   0.773263 0.555376 0.253761 0.092404
C33   C     C_R   0.274452 0.217793 0.755615 0.119524
C34   C     C_R   0.725456 0.717640 0.244291 0.119464
C35   C     C_R   0.326879 0.255586 0.700855 -0.194825
C36   C     C_R   0.672993 0.755412 0.299017 -0.194692
C37   C     C_R   0.284415 0.972990 0.629446 -0.149623
C38   C     C_R   0.715783 0.473402 0.370754 -0.149677
C39   C     C_R   0.231997 0.935249 0.682549 -0.142979
C40   C     C_R   0.768247 0.435700 0.317692 -0.143117
H13   H     H_    0.364783 0.377082 0.708368 0.171201
H14   H     H_    0.634946 0.876651 0.291366 0.171151
H15   H     H_    0.287519 0.875127 0.581605 0.124656
H16   H     H_    0.712787 0.375770 0.418710 0.124533
H17   H     H_    0.196002 0.810751 0.674094 0.121280
H18   H     H_    0.804392 0.311454 0.326292 0.121089
H19   H     H_    0.212125 0.391695 0.921480 0.126311
H20   H     H_    0.787581 0.891057 0.078207 0.126200
H21   H     H_    0.136475 0.893668 0.791392 0.132605
H22   H     H_    0.863807 0.394111 0.208881 0.132515
O11   O     O_R   0.920630 0.775410 0.061150 -0.535314
O12   O     O_R   0.079370 0.275410 0.938850 -0.535355
O13   O     O_R   0.086500 0.441450 0.093690 -0.538612
O14   O     O_R   0.913500 0.941450 0.906310 -0.538611
C41   C     C_R   0.114008 0.610237 0.116205 0.684223
C42   C     C_R   0.885992 0.110236 0.883795 0.684248
O15   O     O_R   0.921670 0.445960 0.070740 -0.539725
O16   O     O_R   0.078330 0.945960 0.929260 -0.539753
O17   O     O_R   0.913380 0.271130 0.915780 -0.537374
O18   O     O_R   0.086620 0.771130 0.084220 -0.537381
C43   C     C_R   0.895616 0.615716 0.085910 0.709376
C44   C     C_R   0.104385 0.115737 0.914090 0.709379
O19   O     O_3   0.997500 0.603030 0.949220 -0.377465
O20   O     O_3   0.002500 0.103030 0.050780 -0.377434
V3    V     V_3+5 0.000470 0.329940 0.009420 1.392853
V4    V     V_3+5 0.999530 0.829940 0.990580 1.392807
O21   O     O_3   0.315710 0.496434 0.829307 -0.651768
H23   H     H_    0.304239 0.566455 0.876402 0.290068
O22   O     O_3   0.683860 0.995657 0.170264 -0.651677
H24   H     H_    0.695212 0.065478 0.123047 0.290038

loop_
_geom_bond_atom_site_label_1
_geom_bond_atom_site_label_2
_ccdc_geom_bond_type
O22   H24   S    
C2    C21   S    
C29   C31   A    
C20   H10   S    
O1    C3    A    
O2    C4    A    
C2    O7    A    
O14   V4    S    
C24   C30   A    
O13   V3    S    
C17   H7    S    
C27   H19   S    
C22   C38   A    
C18   H8    S    
C7    C9    A    
C41   O18   A    
O14   C42   A    
C33   C35   A    
C34   C36   A    
C25   C33   A    
C37   C39   A    
C38   C40   A    
O11   V4    S    
C17   C19   S    
C30   H22   S    
O11   C43   A    
C39   H17   S    
C25   C27   A    
C31   C39   A    
C26   C28   A    
C32   C40   A    
C40   H18   S    
C19   H11   S    
C18   C20   S    
O12   V3    S    
C23   C29   A    
O15   V3    S    
O5    V1    S    
C36   H14   S    
O6    V2    S    
O18   V4    S    
C25   O21   S    
C42   O17   A    
O13   C41   A    
O9    V2    S    
C11   C13   A    
O17   V3    S    
C30   C32   A    
C3    C8    S    
C26   C34   A    
C23   C44   S    
O4    C2    A    
O21   H23   S    
C23   C27   A    
O16   C44   A    
C17   H5    S    
C16   C18   S    
O4    V2    S    
O5    C3    A    
C28   H20   S    
C37   H15   S    
O6    C4    A    
C15   C17   S    
O1    V2    S    
O2    V1    S    
C14   C41   S    
C8    C10   A    
C12   C14   A    
C31   C33   A    
C5    C15   A    
C10   H2    S    
C20   H12   S    
C6    C16   A    
O12   C44   A    
O3    V1    S    
C9    C11   A    
C21   C35   A    
C22   C36   A    
C18   H6    S    
C24   C43   S    
C29   H21   S    
O3    C1    A    
C26   O22   S    
C11   H3    S    
C1    C22   S    
C12   H4    S    
O16   V4    S    
C38   H16   S    
C9    H1    S    
O7    V1    S    
C1    O8    A    
C13   C15   A    
O8    V2    S    
C35   H13   S    
C14   C16   A    
C13   C42   S    
C4    C7    S    
C21   C37   A    
C5    C7    A    
C32   C34   A    
C6    C8    A    
C19   H9    S    
C24   C28   A    
O20   V3    S    
C10   C12   A    
O19   V4    S    
O10   V1    S    
C5    C19   S    
C6    C20   S    
O15   C43   A    
