data_mof_unit_44071.cif
_audit_creation_date              2012-12-10T20:21:43-0500
_audit_creation_method            fapswitch 2.2
_symmetry_space_group_name_H-M    P1
_symmetry_Int_Tables_number       1
_space_group_crystal_system       triclinic
_cell_length_a                    18.986626
_cell_length_b                    18.604145
_cell_length_c                    8.855047
_cell_angle_alpha                 90.20315
_cell_angle_beta                  94.698291
_cell_angle_gamma                 91.044734
_cell_volume                      3116.79951387

loop_
_atom_site_label
_atom_site_type_symbol
_atom_type_description
_atom_site_fract_x
_atom_site_fract_y
_atom_site_fract_z
_atom_type_partial_charge
C1    C     C_R   0.365966 0.499477 0.513601 0.947624
C2    C     C_R   0.545775 0.197988 0.604364 0.531609
C3    C     C_R   0.499473 0.842419 0.497491 0.014894
C4    C     C_R   0.500558 0.157577 0.502723 0.014952
C5    C     C_R   0.437519 0.961141 0.518968 0.553744
C6    C     C_R   0.562526 0.038855 0.481341 0.553719
C7    C     C_R   0.562041 0.963179 0.478566 0.553504
C8    C     C_R   0.438005 0.036816 0.521748 0.553487
C9    C     C_R   0.500517 0.076739 0.502980 -0.252157
C10   C     C_R   0.499528 0.923257 0.497325 -0.252200
C11   C     C_R   0.499410 0.499911 0.218639 0.930027
C12   C     C_R   0.633984 0.500516 0.486065 0.947868
C13   C     C_R   0.500603 0.500089 0.781363 0.930072
C14   C     C_1   0.499826 0.499880 0.065468 -0.232265
C15   C     C_1   0.500212 0.500116 0.934539 -0.232671
C16   C     C_R   0.739547 0.437677 0.403259 0.476205
C17   C     C_R   0.259512 0.562251 0.592101 0.476857
C18   C     C_R   0.253906 0.433274 0.555946 0.500337
C19   C     C_R   0.745648 0.566634 0.439786 0.500115
C20   C     C_R   0.812079 0.436812 0.386728 -0.123082
C21   C     C_R   0.186666 0.563067 0.604921 -0.122959
C22   C     C_R   0.181141 0.433211 0.564848 -0.120649
C23   C     C_R   0.544461 0.729137 0.601736 -0.081902
C24   C     C_R   0.818118 0.566658 0.426546 -0.120556
C25   C     C_R   0.852050 0.500891 0.410384 -0.178006
C26   C     C_R   0.146938 0.498955 0.579176 -0.177701
C27   C     C_R   0.707622 0.501475 0.445919 -0.326667
C28   C     C_R   0.291976 0.498461 0.551327 -0.325985
C29   C     C_R   0.975416 0.526910 0.352158 -0.186628
C30   C     C_R   0.023641 0.472508 0.636503 -0.186859
C31   C     C_R   0.047042 0.529275 0.398249 -0.185035
C32   C     C_R   0.952029 0.470220 0.590500 -0.184504
C33   C     C_R   0.071037 0.502066 0.540259 0.192329
C34   C     C_R   0.455570 0.270821 0.398273 -0.081681
C35   C     C_R   0.928000 0.497496 0.448566 0.192283
C36   C     C_R   0.845487 0.369098 0.344111 0.203802
C37   C     C_R   0.839644 0.306950 0.432160 -0.076829
C38   C     C_R   0.869680 0.242810 0.388805 -0.109691
C39   C     C_R   0.905477 0.240215 0.257221 -0.103350
C40   C     C_R   0.912028 0.301971 0.169677 -0.146296
C41   C     C_R   0.882308 0.366277 0.212960 -0.156237
C42   C     C_R   0.152772 0.630647 0.646711 0.203595
C43   C     C_R   0.114886 0.633177 0.776384 -0.154378
C44   C     C_R   0.084738 0.697363 0.819041 -0.146307
C45   C     C_R   0.454912 0.726007 0.397815 -0.087163
C46   C     C_R   0.091980 0.759310 0.732418 -0.103830
C47   C     C_R   0.128861 0.757015 0.602313 -0.109619
C48   C     C_R   0.159294 0.692986 0.559561 -0.077488
C49   C     C_R   0.141246 0.364465 0.546935 0.226586
C50   C     C_R   0.116275 0.340041 0.402014 -0.140859
C51   C     C_R   0.079245 0.274559 0.384725 -0.122772
C52   C     C_R   0.066076 0.233759 0.512034 -0.081185
C53   C     C_R   0.090563 0.258119 0.656813 -0.129342
C54   C     C_R   0.128425 0.323199 0.674413 -0.125216
C55   C     C_R   0.858161 0.635386 0.442329 0.228740
C56   C     C_R   0.545157 0.274027 0.602109 -0.087115
C57   C     C_R   0.872387 0.674935 0.313381 -0.130717
C58   C     C_R   0.910308 0.740046 0.328994 -0.128718
C59   C     C_R   0.933436 0.766167 0.473204 -0.080172
C60   C     C_R   0.918861 0.727087 0.601939 -0.122525
C61   C     C_R   0.881781 0.661568 0.586689 -0.134379
C62   C     C_R   0.593059 0.695477 0.718388 0.209343
C63   C     C_R   0.666254 0.699388 0.706140 0.032897
C64   C     C_R   0.713350 0.674194 0.822976 -0.161752
C65   C     C_R   0.687859 0.648056 0.956160 -0.117238
C66   C     C_R   0.615509 0.649226 0.974074 -0.137171
C67   C     C_R   0.544540 0.805111 0.600921 0.524215
C68   C     C_R   0.568544 0.674510 0.856904 -0.088595
C69   C     C_R   0.407037 0.304422 0.281421 0.208849
C70   C     C_R   0.333824 0.300387 0.293359 0.033736
C71   C     C_R   0.286783 0.325566 0.176418 -0.161542
C72   C     C_R   0.312354 0.351745 0.043350 -0.118255
C73   C     C_R   0.384733 0.350652 0.025685 -0.137200
C74   C     C_R   0.431650 0.325429 0.143011 -0.088573
C75   C     C_R   0.405629 0.688151 0.285674 0.238240
C76   C     C_R   0.334237 0.679151 0.312473 -0.030401
C77   C     C_R   0.286288 0.647433 0.202362 -0.198381
C78   C     C_R   0.455493 0.194846 0.399227 0.524046
C79   C     C_R   0.308734 0.627609 0.061964 -0.082691
C80   C     C_R   0.378748 0.640773 0.030836 -0.120359
C81   C     C_R   0.426701 0.672082 0.141569 -0.093679
C82   C     C_R   0.594650 0.311921 0.713773 0.238491
C83   C     C_R   0.573853 0.328136 0.858040 -0.093998
C84   C     C_R   0.622016 0.359473 0.968316 -0.120051
C85   C     C_R   0.691977 0.372497 0.936587 -0.082844
C86   C     C_R   0.714154 0.352525 0.796025 -0.198271
C87   C     C_R   0.665985 0.320819 0.686343 -0.029962
C88   C     C_R   0.454285 0.802047 0.395717 0.531800
F1    F     F_    0.699894 0.377436 0.369353 -0.681145
F2    F     F_    0.623410 0.075232 0.459043 -0.555728
F3    F     F_    0.622587 0.928775 0.454381 -0.555568
F4    F     F_    0.377457 0.071220 0.545915 -0.555655
F5    F     F_    0.298891 0.622452 0.628065 -0.680961
F6    F     F_    0.287070 0.369600 0.553794 -0.681018
F7    F     F_    0.712709 0.630354 0.444528 -0.680743
F8    F     F_    0.587376 0.842618 0.705063 -0.604235
F9    F     F_    0.412680 0.157297 0.295114 -0.604323
F10   F     F_    0.410418 0.836459 0.291759 -0.599035
F11   F     F_    0.589698 0.163617 0.708281 -0.599001
F12   F     F_    0.376632 0.924763 0.541233 -0.555652
H1    H     H_    0.956848 0.548285 0.242751 0.123988
H2    H     H_    0.109552 0.585738 0.845396 0.115869
H3    H     H_    0.055860 0.699121 0.919391 0.125723
H4    H     H_    0.068563 0.808967 0.765500 0.135681
H5    H     H_    0.133940 0.804887 0.534678 0.154725
H6    H     H_    0.187563 0.691922 0.458442 0.123237
H7    H     H_    0.125532 0.371704 0.302931 0.108405
H8    H     H_    0.060766 0.255496 0.272618 0.129936
H9    H     H_    0.036975 0.183270 0.498462 0.133504
H10   H     H_    0.080384 0.226485 0.755296 0.138861
H11   H     H_    0.147425 0.341598 0.786882 0.111799
H12   H     H_    0.042220 0.451053 0.745844 0.124098
H13   H     H_    0.854410 0.655193 0.201327 0.109916
H14   H     H_    0.921574 0.770344 0.229399 0.137723
H15   H     H_    0.962588 0.816678 0.485226 0.133389
H16   H     H_    0.936329 0.747492 0.713572 0.129537
H17   H     H_    0.871523 0.631185 0.686888 0.106844
H18   H     H_    0.686789 0.724501 0.608513 0.208188
H19   H     H_    0.769626 0.676611 0.811857 0.136447
H20   H     H_    0.724255 0.628893 0.047042 0.146777
H21   H     H_    0.596069 0.631365 0.079373 0.162368
H22   H     H_    0.512882 0.677523 0.872811 0.134660
H23   H     H_    0.084005 0.551257 0.322804 0.124312
H24   H     H_    0.313238 0.275205 0.390859 0.208241
H25   H     H_    0.230492 0.323113 0.187393 0.137971
H26   H     H_    0.276000 0.370879 0.952361 0.146672
H27   H     H_    0.404236 0.368534 0.920463 0.162354
H28   H     H_    0.487346 0.322501 0.127283 0.135177
H29   H     H_    0.315730 0.698138 0.417240 0.197491
H30   H     H_    0.231554 0.639250 0.224827 0.125935
H31   H     H_    0.271607 0.603447 0.976335 0.155068
H32   H     H_    0.395641 0.627023 0.920770 0.176270
H33   H     H_    0.480497 0.683357 0.116669 0.127234
H34   H     H_    0.915084 0.448278 0.666037 0.124057
H35   H     H_    0.520109 0.316954 0.883446 0.127164
H36   H     H_    0.605310 0.373337 0.078488 0.177329
H37   H     H_    0.729265 0.396679 0.021867 0.154230
H38   H     H_    0.768842 0.360589 0.773054 0.125881
H39   H     H_    0.684287 0.301791 0.581394 0.197037
H40   H     H_    0.812228 0.308268 0.534466 0.123324
H41   H     H_    0.865142 0.195087 0.457132 0.154620
H42   H     H_    0.928602 0.190478 0.223694 0.136020
H43   H     H_    0.940065 0.299981 0.068171 0.126038
H44   H     H_    0.887136 0.413581 0.143319 0.115628
N1    N     N_R   0.500000 0.689440 0.500000 -0.154440
N2    N     N_R   0.500000 0.310560 0.500000 -0.154265
O1    O     O_R   0.398180 0.560840 0.499960 -0.573109
O2    O     O_R   0.601820 0.439160 0.500040 -0.572807
O3    O     O_R   0.601820 0.560840 0.500040 -0.564867
O4    O     O_R   0.398180 0.439160 0.499960 -0.564816
O5    O     O_R   0.500000 0.560800 0.285330 -0.630342
O6    O     O_R   0.500000 0.439200 0.714670 -0.630398
O7    O     O_R   0.500000 0.560800 0.714670 -0.624109
O8    O     O_R   0.500000 0.439200 0.285330 -0.623759
Zn1   Zn    Zn3+2 0.500000 0.581210 0.500000 0.984338
Zn2   Zn    Zn3+2 0.500000 0.418790 0.500000 0.984601

loop_
_geom_bond_atom_site_label_1
_geom_bond_atom_site_label_2
_ccdc_geom_bond_type
C53   H10   S    
C81   H33   S    
C7    C10   A    
C66   C68   A    
C21   C26   A    
C80   H32   S    
C73   C74   A    
C43   C44   A    
C6    C9    A    
C85   C86   A    
C24   C55   S    
C23   N1    A    
C62   C63   A    
C64   H19   S    
C45   N1    A    
C36   C37   A    
C38   C39   A    
C11   C14   S    
C20   C25   A    
C82   C87   A    
C23   C67   A    
C11   O8    A    
C23   C62   S    
C74   H28   S    
O6    Zn2   S    
C8    C9    A    
C47   H5    S    
C37   H40   S    
C1    C28   S    
C31   C33   A    
C24   C25   A    
C70   C71   A    
C8    F4    S    
O5    Zn1   S    
O7    Zn1   S    
O1    Zn1   S    
C83   H35   S    
C72   C73   A    
C16   C27   A    
C79   H31   S    
C59   C60   A    
O4    Zn2   S    
C36   C41   A    
C32   H34   S    
C19   C27   A    
C44   H3    S    
C44   C46   A    
C77   C79   A    
C48   H6    S    
C12   C27   S    
C61   H17   S    
C51   C52   A    
C32   C35   A    
C1    O4    A    
C45   C88   A    
C18   C28   A    
C76   C77   A    
C41   H44   S    
C68   H22   S    
C39   C40   A    
C63   H18   S    
C86   C87   A    
C75   C81   A    
C57   H13   S    
C58   C59   A    
C73   H27   S    
C46   H4    S    
C82   C83   A    
C17   C21   A    
C79   C80   A    
C30   H12   S    
C60   C61   A    
N1    Zn1   S    
C2    C4    A    
C75   C76   A    
C4    C78   A    
C37   C38   A    
C76   H29   S    
C26   C33   S    
C83   C84   A    
C5    F12   S    
C16   C20   A    
C7    F3    S    
C78   F9    S    
C50   C51   A    
C66   H21   S    
C29   H1    S    
C69   C74   A    
C42   C48   A    
C84   C85   A    
C56   C82   S    
C34   C69   S    
C13   O7    A    
C25   C35   S    
C22   C49   S    
C11   O5    A    
C40   C41   A    
C2    F11   S    
C51   H8    S    
C55   C57   A    
C50   H7    S    
C18   F6    S    
C38   H41   S    
C60   H16   S    
C17   F5    S    
C42   C43   A    
C85   H37   S    
C19   F7    S    
C52   C53   A    
C46   C47   A    
C84   H36   S    
C30   C33   A    
C3    C88   A    
C18   C22   A    
C17   C28   A    
O8    Zn2   S    
C12   O3    A    
C3    C67   A    
C13   O6    A    
C87   H39   S    
C80   C81   A    
C47   C48   A    
C5    C8    A    
C53   C54   A    
C6    C7    A    
C29   C35   A    
C62   C68   A    
C45   C75   S    
C64   C65   A    
C12   O2    A    
C13   C15   S    
C19   C24   A    
O3    Zn1   S    
C43   H2    S    
C31   H23   S    
C5    C10   A    
C29   C31   A    
C3    C10   S    
C6    F2    S    
C34   C78   A    
C30   C32   A    
C34   N2    A    
C57   C58   A    
C67   F8    S    
C52   H9    S    
C55   C61   A    
C63   C64   A    
C65   H20   S    
C54   H11   S    
C39   H42   S    
C77   H30   S    
C65   C66   A    
C56   N2    A    
C69   C70   A    
C1    O1    A    
C86   H38   S    
C21   C42   S    
C20   C36   S    
C70   H24   S    
C16   F1    S    
N2    Zn2   S    
C59   H15   S    
C49   C50   A    
C22   C26   A    
C40   H43   S    
C72   H26   S    
C58   H14   S    
C14   C15   T    
C71   H25   S    
C2    C56   A    
O2    Zn2   S    
C71   C72   A    
C4    C9    S    
C88   F10   S    
C49   C54   A    
