data_mof_unit_41096.cif
_audit_creation_date              2012-12-10T17:32:39-0500
_audit_creation_method            fapswitch 2.2
_symmetry_space_group_name_H-M    P1
_symmetry_Int_Tables_number       1
_space_group_crystal_system       triclinic
_cell_length_a                    12.118776
_cell_length_b                    12.916198
_cell_length_c                    14.114152
_cell_angle_alpha                 91.731678
_cell_angle_beta                  86.18747
_cell_angle_gamma                 94.57504
_cell_volume                      2196.66466413

loop_
_atom_site_label
_atom_site_type_symbol
_atom_type_description
_atom_site_fract_x
_atom_site_fract_y
_atom_site_fract_z
_atom_type_partial_charge
C1    C     C_R   0.522570 0.700189 0.492000 0.866810
C2    C     C_R   0.141047 0.471387 0.450720 0.578259
C3    C     C_R   0.975003 0.522233 0.544408 -0.216329
C4    C     C_R   0.022752 0.467185 0.465276 -0.230517
C5    C     C_R   0.499896 0.499420 0.670533 0.861921
C6    C     C_R   0.500177 0.500025 0.329439 0.884606
C7    C     C_1   0.500332 0.498039 0.771982 -0.208056
C8    C     C_1   0.500322 0.500057 0.227912 -0.228825
C9    C     C_1   0.500721 0.497625 0.857285 -0.040137
C10   C     C_1   0.500460 0.499556 0.142553 -0.041340
C11   C     C_1   0.500825 0.497954 0.957213 -0.012611
C12   C     C_R   0.476823 0.300115 0.505475 0.910021
C13   C     C_1   0.500701 0.498638 0.042583 -0.009182
C14   C     C_R   0.459848 0.188492 0.511287 -0.240650
C15   C     C_R   0.536504 0.812627 0.481880 -0.226868
C16   C     C_R   0.638641 0.972333 0.526188 -0.283347
C17   C     C_R   0.358070 0.031288 0.462516 -0.295157
C18   C     C_R   0.637091 0.867580 0.503020 0.506374
C19   C     C_R   0.362134 0.136914 0.479840 0.507887
C20   C     C_R   0.445275 0.867603 0.460060 -0.100410
C21   C     C_R   0.546221 0.132570 0.540140 -0.090782
C22   C     C_R   0.628544 0.183254 0.604318 0.154199
C23   C     C_R   0.449369 0.975009 0.478482 0.038347
C24   C     C_R   0.738328 0.212006 0.571097 -0.104972
C25   C     C_R   0.811735 0.265099 0.631607 -0.156638
C26   C     C_R   0.776044 0.290071 0.725058 -0.056552
C27   C     C_R   0.666843 0.262585 0.758235 -0.123160
C28   C     C_R   0.593214 0.209635 0.698121 -0.184791
C29   C     C_R   0.347438 0.816184 0.414005 0.168734
C30   C     C_R   0.349398 0.807389 0.314593 -0.171901
C31   C     C_R   0.251574 0.779385 0.269617 -0.166623
C32   C     C_R   0.151619 0.758894 0.323635 -0.160023
C33   C     C_R   0.149652 0.764613 0.422723 -0.194854
C34   C     C_R   0.544922 0.026611 0.516593 0.041100
C35   C     C_R   0.246966 0.793881 0.467901 -0.091961
C36   C     C_3   0.200270 0.190806 0.545011 -0.270599
C37   C     C_3   0.792845 0.825941 0.418233 -0.349859
C38   C     C_3   0.195296 0.506609 0.298216 -0.258887
C39   C     C_3   0.785211 0.660624 0.641426 -0.147912
C40   C     C_3   0.233425 0.586783 0.744915 -0.256922
C41   C     C_3   0.772517 0.387379 0.262959 -0.279047
C42   C     C_R   0.990674 0.317334 0.346929 0.276098
C43   C     C_R   0.997019 0.222065 0.390827 -0.115407
C44   C     C_R   0.035100 0.136703 0.338854 -0.090694
C45   C     C_R   0.951176 0.407358 0.404450 -0.206534
C46   C     C_R   0.066417 0.145446 0.242249 -0.094365
C47   C     C_R   0.058689 0.239294 0.197377 -0.151425
C48   C     C_R   0.020532 0.324751 0.249224 -0.116929
C49   C     C_R   0.007795 0.627690 0.698082 0.217408
C50   C     C_R   0.963570 0.571746 0.777689 -0.099540
C51   C     C_R   0.933876 0.624277 0.862490 -0.175187
C52   C     C_R   0.949860 0.732607 0.868956 -0.139700
C53   C     C_R   0.995829 0.788651 0.790731 -0.171129
C54   C     C_R   0.025362 0.736554 0.705642 -0.161789
C55   C     C_R   0.047836 0.571616 0.611104 -0.193922
C56   C     C_R   0.835837 0.420229 0.412429 0.519145
C57   C     C_R   0.164408 0.568389 0.595066 0.511687
C58   C     C_R   0.856471 0.525216 0.553257 0.554036
H1    H     H_    0.715151 0.010242 0.549586 0.161630
H2    H     H_    0.075955 0.737467 0.288731 0.120429
H3    H     H_    0.072326 0.748357 0.464389 0.125595
H4    H     H_    0.243673 0.803212 0.544482 0.154852
H5    H     H_    0.245452 0.210451 0.610319 0.131449
H6    H     H_    0.151147 0.114731 0.552651 0.138552
H7    H     H_    0.142132 0.251982 0.539421 0.180805
H8    H     H_    0.819205 0.908239 0.401385 0.163948
H9    H     H_    0.743632 0.788577 0.360796 0.167371
H10   H     H_    0.868941 0.783971 0.420639 0.172950
H11   H     H_    0.230384 0.473250 0.230494 0.182902
H12   H     H_    0.282773 0.995367 0.434929 0.175357
H13   H     H_    0.249896 0.575839 0.317352 0.199057
H14   H     H_    0.112000 0.531951 0.285760 0.116880
H15   H     H_    0.697654 0.671439 0.632390 0.214581
H16   H     H_    0.842419 0.707754 0.591678 0.166996
H17   H     H_    0.797113 0.692091 0.714109 0.166237
H18   H     H_    0.208723 0.501858 0.748218 0.126745
H19   H     H_    0.180081 0.631532 0.794811 0.169872
H20   H     H_    0.316683 0.601085 0.772404 0.186596
H21   H     H_    0.816034 0.465597 0.249924 0.115683
H22   H     H_    0.688352 0.387570 0.237069 0.197123
H23   H     H_    0.765971 0.194640 0.498257 0.144823
H24   H     H_    0.812986 0.327074 0.218935 0.159875
H25   H     H_    0.972600 0.213701 0.465334 0.082685
H26   H     H_    0.040407 0.063807 0.373552 0.122607
H27   H     H_    0.095998 0.079351 0.202068 0.120708
H28   H     H_    0.081887 0.245768 0.122286 0.121845
H29   H     H_    0.013244 0.396132 0.212814 0.091340
H30   H     H_    0.953526 0.487785 0.774031 0.118279
H31   H     H_    0.899332 0.580961 0.923405 0.130730
H32   H     H_    0.927149 0.773095 0.934752 0.129722
H33   H     H_    0.008864 0.872436 0.796106 0.135629
H34   H     H_    0.896025 0.287956 0.606166 0.110397
H35   H     H_    0.061823 0.780656 0.645859 0.125025
H36   H     H_    0.832856 0.330927 0.771775 0.109384
H37   H     H_    0.639067 0.282771 0.830417 0.131545
H38   H     H_    0.508340 0.189816 0.724328 0.117803
H39   H     H_    0.425576 0.826508 0.272032 0.126491
H40   H     H_    0.253053 0.774303 0.192878 0.133888
N1    N     N_R   0.207800 0.519340 0.515940 -0.175942
N2    N     N_R   0.792200 0.480660 0.484060 -0.165390
O1    O     O_R   0.421690 0.658830 0.504250 -0.579238
O2    O     O_3   0.733406 0.818687 0.507445 -0.632998
O3    O     O_3   0.190554 0.430620 0.368658 -0.553350
O4    O     O_3   0.803628 0.554068 0.638833 -0.609694
O5    O     O_3   0.237139 0.626248 0.652062 -0.584437
O6    O     O_3   0.762978 0.358403 0.359168 -0.577388
O7    O     O_R   0.578310 0.341170 0.495750 -0.564204
O8    O     O_R   0.609320 0.646410 0.494030 -0.598441
O9    O     O_R   0.390680 0.353590 0.505970 -0.560812
O10   O     O_R   0.406170 0.506210 0.631400 -0.584144
O11   O     O_R   0.593830 0.493790 0.368600 -0.585647
O12   O     O_R   0.593790 0.493790 0.621170 -0.550701
O13   O     O_R   0.406210 0.506210 0.378830 -0.568378
O14   O     O_3   0.271492 0.189951 0.461649 -0.557584
Zn1   Zn    Zn3+2 0.374720 0.508290 0.506830 1.011869
Zn2   Zn    Zn3+2 0.625280 0.491710 0.493170 1.006995

loop_
_geom_bond_atom_site_label_1
_geom_bond_atom_site_label_2
_ccdc_geom_bond_type
C26   H36   S    
C15   C18   A    
C57   O5    S    
C43   H25   S    
C6    O11   A    
C27   H37   S    
N2    Zn2   S    
C43   C44   A    
C36   O14   S    
C41   H22   S    
C39   O4    S    
C53   C54   A    
C30   H39   S    
C26   C27   A    
C38   O3    S    
C14   C21   A    
N1    Zn1   S    
C30   C31   A    
C39   H16   S    
C5    O10   A    
C49   C54   A    
C57   N1    A    
C37   H10   S    
C18   O2    S    
C31   H40   S    
C54   H35   S    
C16   C34   A    
C46   C47   A    
C52   H32   S    
C47   C48   A    
C45   C56   A    
C53   H33   S    
O11   Zn2   S    
C1    C15   S    
C39   H17   S    
C36   H5    S    
C50   H30   S    
C20   C29   S    
C46   H27   S    
C38   H11   S    
C17   H12   S    
C22   C28   A    
C21   C22   S    
C3    C55   A    
C12   O9    A    
C44   C46   A    
C4    C45   A    
C15   C20   A    
C38   H14   S    
C41   O6    S    
C51   C52   A    
C47   H28   S    
C58   N2    A    
C24   C25   A    
C5    C7    S    
C36   H7    S    
C17   C19   A    
C42   C48   A    
C21   C34   A    
C19   O14   S    
C25   C26   A    
C49   C55   S    
C40   H18   S    
C16   H1    S    
C2    C4    A    
C24   H23   S    
C6    O13   A    
C29   C30   A    
C31   C32   A    
C20   C23   A    
C23   C34   A    
C37   H8    S    
C50   C51   A    
C48   H29   S    
C16   C18   A    
C17   C23   A    
C9    C11   S    
C56   O6    S    
C33   H3    S    
C12   C14   S    
C2    N1    A    
C55   C57   A    
O1    Zn1   S    
C40   H20   S    
C58   O4    S    
C42   C43   A    
C32   H2    S    
C3    C4    A    
C1    O1    A    
O12   Zn2   S    
C52   C53   A    
C7    C9    T    
C38   H13   S    
C25   H34   S    
C14   C19   A    
C44   H26   S    
C10   C13   S    
C41   H21   S    
C12   O7    A    
C6    C8    S    
C5    O12   A    
C29   C35   A    
C28   H38   S    
C32   C33   A    
O8    Zn2   S    
C51   H31   S    
C11   C13   T    
C37   O2    S    
C2    O3    S    
C41   H24   S    
C37   H9    S    
C33   C35   A    
C35   H4    S    
C22   C24   A    
C39   H15   S    
O7    Zn2   S    
O9    Zn1   S    
C1    O8    A    
C3    C58   A    
C8    C10   T    
C49   C50   A    
C27   C28   A    
C56   N2    A    
C40   H19   S    
C36   H6    S    
O10   Zn1   S    
C42   C45   S    
C40   O5    S    
O13   Zn1   S    
