data_mof_unit_31061.cif
_audit_creation_date              2013-03-05T15:57:41-0500
_audit_creation_method            fapswitch 2.2
_symmetry_space_group_name_H-M    P1
_symmetry_Int_Tables_number       1
_space_group_crystal_system       triclinic
_cell_length_a                    19.335212
_cell_length_b                    18.213356
_cell_length_c                    12.637546
_cell_angle_alpha                 90.17616
_cell_angle_beta                  97.396865
_cell_angle_gamma                 91.000782
_cell_volume                      4412.65446744

loop_
_atom_site_label
_atom_site_type_symbol
_atom_site_description
_atom_site_fract_x
_atom_site_fract_y
_atom_site_fract_z
_atom_type_partial_charge
O1    O     O_R   0.448200 0.076800 0.373930 -0.615586
O2    O     O_R   0.448200 0.923200 0.373930 -0.616736
O3    O     O_R   0.948200 0.576800 0.373930 -0.619035
O4    O     O_R   0.948200 0.423200 0.373930 -0.615907
O5    O     O_R   0.414750 0.076790 0.542400 -0.620686
O6    O     O_R   0.414750 0.923210 0.542400 -0.615505
O7    O     O_R   0.914750 0.576790 0.542400 -0.638882
O8    O     O_R   0.914750 0.423210 0.542400 -0.609503
C1    C     C_R   0.407328 0.098264 0.442873 0.838888
C2    C     C_R   0.407100 0.901524 0.442328 0.853410
C3    C     C_R   0.912202 0.603061 0.446445 0.842439
C4    C     C_R   0.905717 0.403211 0.441662 0.858812
Zn1   Zn    Zn3+2 0.522330 1.000000 0.387520 0.926479
Zn2   Zn    Zn3+2 0.022330 0.500000 0.387520 0.922876
Zn3   Zn    Zn3+2 0.477660 0.000000 0.612480 0.933246
Zn4   Zn    Zn3+2 0.977660 0.500000 0.612480 0.922502
O9    O     O_R   0.585240 0.923200 0.457600 -0.613403
O10   O     O_R   0.585240 0.076800 0.457600 -0.618099
O11   O     O_R   0.085240 0.423200 0.457600 -0.617029
O12   O     O_R   0.085240 0.576800 0.457600 -0.619800
O13   O     O_R   0.551780 0.923190 0.626070 -0.639399
O14   O     O_R   0.551780 0.076810 0.626070 -0.638200
O15   O     O_R   0.051780 0.423190 0.626070 -0.637586
O16   O     O_R   0.051780 0.576810 0.626070 -0.648061
C5    C     C_R   0.591276 0.900391 0.556845 0.895795
C6    C     C_R   0.586321 0.105028 0.552967 0.893914
C7    C     C_R   0.086905 0.396310 0.553403 0.899928
C8    C     C_R   0.085780 0.605169 0.552584 0.885861
C9    C     C_R   0.674296 0.270104 0.697237 0.212615
C10   C     C_R   0.704035 0.768078 0.729437 0.209395
C11   C     C_R   0.166538 0.775757 0.690296 0.212357
C12   C     C_R   0.177944 0.239717 0.702786 0.209051
H1    H     H_    0.232245 0.910151 0.680975 0.150514
H2    H     H_    0.243081 0.107667 0.702670 0.155417
H3    H     H_    0.739885 0.404973 0.696099 0.157593
H4    H     H_    0.830682 0.701175 0.769448 0.167242
C13   C     C_R   0.623882 0.174946 0.574124 -0.114664
C14   C     C_R   0.644668 0.846557 0.591963 -0.124100
C15   C     C_R   0.122328 0.675290 0.572325 -0.121116
C16   C     C_R   0.128128 0.330889 0.576945 -0.119531
C17   C     C_R   0.358747 0.801730 0.320569 -0.190490
C18   C     C_R   0.359749 0.195756 0.320364 -0.196821
C19   C     C_R   0.846446 0.315448 0.308605 -0.193509
C20   C     C_R   0.835506 0.668726 0.310018 -0.196253
C21   C     C_R   0.312444 0.743233 0.296004 -0.158331
C22   C     C_R   0.316670 0.255297 0.297227 -0.154932
C23   C     C_R   0.794348 0.263809 0.276481 -0.156079
C24   C     C_R   0.774502 0.706614 0.280903 -0.158620
C25   C     C_R   0.258338 0.731043 0.356709 -0.182633
C26   C     C_R   0.266205 0.271534 0.362312 -0.182621
C27   C     C_R   0.741682 0.250397 0.339464 -0.186505
C28   C     C_R   0.738956 0.736092 0.359220 -0.181984
C29   C     C_R   0.246473 0.780678 0.438529 0.101562
C30   C     C_R   0.254522 0.225293 0.448091 0.099671
C31   C     C_R   0.737569 0.291758 0.433250 0.101182
C32   C     C_R   0.766812 0.732695 0.468183 0.097725
C33   C     C_R   0.291051 0.842155 0.459234 0.089273
C34   C     C_R   0.296723 0.163573 0.469694 0.094219
C35   C     C_R   0.786500 0.349393 0.459446 0.089717
C36   C     C_R   0.828573 0.695050 0.498833 0.085810
C37   C     C_R   0.691622 0.272631 0.508376 0.014954
C38   C     C_R   0.733617 0.766325 0.547802 0.024911
C39   C     C_R   0.196214 0.766781 0.508233 0.014587
C40   C     C_R   0.206014 0.242423 0.519156 0.014391
C41   C     C_R   0.701517 0.305363 0.611430 0.117826
C42   C     C_R   0.748817 0.745810 0.655665 0.115745
C43   C     C_R   0.199512 0.805660 0.606067 0.122140
C44   C     C_R   0.210449 0.207944 0.620141 0.120596
C45   C     C_R   0.235266 0.873056 0.614751 -0.227808
C46   C     C_R   0.245365 0.141679 0.633078 -0.229977
C47   C     C_R   0.738667 0.372034 0.624455 -0.228604
C48   C     C_R   0.811730 0.710575 0.686329 -0.246672
C49   C     C_R   0.276264 0.893038 0.536760 -0.214227
C50   C     C_R   0.282783 0.117353 0.553841 -0.209874
C51   C     C_R   0.776790 0.396089 0.544987 -0.207956
C52   C     C_R   0.854442 0.693277 0.609467 -0.205612
C53   C     C_R   0.639976 0.217959 0.487926 0.116209
C54   C     C_R   0.693913 0.828052 0.524835 0.123327
C55   C     C_R   0.144534 0.713232 0.485826 0.110356
C56   C     C_R   0.152987 0.292508 0.493065 0.110861
C57   C     C_R   0.640336 0.201770 0.678603 -0.254508
C58   C     C_R   0.648708 0.814556 0.693809 -0.251185
C59   C     C_R   0.132792 0.707064 0.674597 -0.260675
C60   C     C_R   0.141258 0.304681 0.681722 -0.255139
C61   C     C_R   0.350327 0.849594 0.405091 -0.114641
C62   C     C_R   0.352322 0.151170 0.408785 -0.112182
C63   C     C_R   0.844643 0.356828 0.402067 -0.117728
C64   C     C_R   0.861086 0.659685 0.418293 -0.111864
H5    H     H_    0.403252 0.807178 0.276958 0.160217
H6    H     H_    0.401369 0.187047 0.272183 0.163648
H7    H     H_    0.889426 0.321212 0.261912 0.161477
H8    H     H_    0.859943 0.642227 0.247891 0.158646
H9    H     H_    0.706540 0.205629 0.315127 0.149501
H10   H     H_    0.689168 0.761052 0.334282 0.152888
H11   H     H_    0.228655 0.680634 0.342129 0.149880
H12   H     H_    0.238951 0.322271 0.347430 0.147758
H13   H     H_    0.298766 0.946985 0.539864 0.146719
H14   H     H_    0.301950 0.063076 0.561188 0.153103
H15   H     H_    0.800672 0.449907 0.552927 0.166795
H16   H     H_    0.907119 0.678157 0.639013 0.186757
C65   C     C_R   0.641283 0.027684 0.123699 0.138054
C66   C     C_R   0.144595 0.495375 0.124925 0.132185
H17   H     H_    0.667720 0.014440 0.920473 0.172881
H18   H     H_    0.167759 0.494716 0.918477 0.171462
N1    N     N_R   0.552340 0.000000 0.237260 -0.121303
N2    N     N_R   0.052340 0.500000 0.237260 -0.122161
C67   C     C_R   0.378458 0.995645 0.766735 0.028770
C68   C     C_R   0.878790 0.507193 0.766329 0.011698
C69   C     C_R   0.352392 0.991939 0.863947 -0.262923
C70   C     C_R   0.852746 0.508444 0.863696 -0.264872
C71   C     C_R   0.398407 0.992555 0.957858 -0.188825
C72   C     C_R   0.898542 0.504013 0.957696 -0.193822
C73   C     C_R   0.471005 0.996725 0.954235 0.047723
C74   C     C_R   0.971122 0.499652 0.954305 0.050136
C75   C     C_R   0.494549 0.000004 0.852253 0.236166
C76   C     C_R   0.994506 0.498154 0.852290 0.235761
C77   C     C_R   0.520966 0.999902 0.047038 -0.059236
C78   C     C_R   0.021350 0.498393 0.047188 -0.058899
C79   C     C_R   0.592254 0.012393 0.034716 0.120392
C80   C     C_R   0.093522 0.496138 0.035081 0.122031
C81   C     C_R   0.613488 0.010463 0.933014 -0.276875
C82   C     C_R   0.113833 0.495496 0.932591 -0.276107
C83   C     C_R   0.565407 0.003286 0.843920 -0.225312
C84   C     C_R   0.065254 0.496953 0.843730 -0.228846
C85   C     C_R   0.502955 0.992973 0.151452 -0.123368
C86   C     C_R   0.002752 0.499793 0.151463 -0.124655
C87   C     C_R   0.620608 0.018308 0.225422 0.301107
C88   C     C_R   0.122596 0.498173 0.226848 0.303539
N3    N     N_R   0.448170 0.000000 0.762060 -0.129590
N4    N     N_R   0.948170 0.500000 0.762060 -0.132686
H19   H     H_    0.450293 0.982130 0.166988 0.147435
H20   H     H_    0.949394 0.500606 0.167264 0.146032
H21   H     H_    0.375749 0.990931 0.031406 0.139929
H22   H     H_    0.875761 0.505637 0.031078 0.136668
H23   H     H_    0.624478 0.170840 0.744832 0.174249
H24   H     H_    0.612023 0.829667 0.747766 0.180517
H25   H     H_    0.112282 0.680016 0.740505 0.175405
H26   H     H_    0.120065 0.332710 0.745814 0.178108
C89   C     C_3   0.714077 0.056435 0.108735 -0.956069
H27   H     H_    0.709987 0.101075 0.048671 0.241810
H28   H     H_    0.743687 0.081643 0.180880 0.250105
H29   H     H_    0.745308 0.011118 0.081588 0.246830
C90   C     C_3   0.221767 0.491774 0.110203 -0.957232
H30   H     H_    0.258981 0.489785 0.184058 0.250337
H31   H     H_    0.230849 0.441393 0.064592 0.242776
H32   H     H_    0.236787 0.541043 0.066271 0.242489
H33   H     H_    0.342825 0.994170 0.694816 0.109829
H34   H     H_    0.843650 0.513744 0.693909 0.130260
H35   H     H_    0.296647 0.988662 0.866366 0.144596
H36   H     H_    0.797300 0.513712 0.866289 0.147828
H37   H     H_    0.585262 0.002166 0.769022 0.214666
H38   H     H_    0.084890 0.498705 0.768713 0.217983
C91   C     C_3   0.685516 0.300994 0.809086 -0.930480
H39   H     H_    0.742241 0.307538 0.836253 0.245578
H40   H     H_    0.660237 0.355166 0.810847 0.239491
H41   H     H_    0.662764 0.264468 0.866337 0.243386
C92   C     C_3   0.713750 0.742891 0.843763 -0.941714
H42   H     H_    0.713551 0.681951 0.846424 0.241226
H43   H     H_    0.764047 0.764731 0.885188 0.239965
H44   H     H_    0.671417 0.762461 0.887861 0.244218
C93   C     C_3   0.170963 0.812906 0.797748 -0.935032
H45   H     H_    0.226459 0.820697 0.831953 0.245141
H46   H     H_    0.145543 0.867121 0.789108 0.238291
H47   H     H_    0.144354 0.779915 0.854845 0.244624
C94   C     C_3   0.184737 0.207954 0.813624 -0.928538
H48   H     H_    0.240756 0.203691 0.845849 0.244713
H49   H     H_    0.159298 0.242792 0.869266 0.244394
H50   H     H_    0.159537 0.152590 0.811203 0.238819
C95   C     C_3   0.589490 0.220751 0.385324 -0.861116
H51   H     H_    0.534962 0.219964 0.404352 0.240182
H52   H     H_    0.596494 0.272407 0.341086 0.229723
H53   H     H_    0.595788 0.174001 0.331399 0.256669
C96   C     C_3   0.721494 0.884655 0.453480 -0.904472
H54   H     H_    0.726173 0.938194 0.496033 0.235057
H55   H     H_    0.775406 0.873436 0.437078 0.244377
H56   H     H_    0.687633 0.885628 0.375870 0.262490
C97   C     C_3   0.101669 0.711935 0.375889 -0.837491
H57   H     H_    0.045145 0.710906 0.384164 0.239758
H58   H     H_    0.111548 0.762221 0.330169 0.227684
H59   H     H_    0.113404 0.663809 0.327770 0.255082
C98   C     C_3   0.111513 0.289150 0.382111 -0.841423
H60   H     H_    0.054717 0.287332 0.388420 0.241907
H61   H     H_    0.123235 0.336963 0.332945 0.254470
H62   H     H_    0.122603 0.238417 0.338746 0.229319
H63   H     H_    0.320806 0.704805 0.233553 0.145038
H64   H     H_    0.324679 0.291189 0.231586 0.145428
H65   H     H_    0.796792 0.231216 0.205292 0.145856
H66   H     H_    0.753216 0.710619 0.197632 0.145828
C99   C     C_3   0.675554 0.028085 0.319392 -0.885712
H67   H     H_    0.659211 0.004963 0.390392 0.298084
H68   H     H_    0.723569 0.998609 0.306492 0.227814
H69   H     H_    0.688427 0.086737 0.334203 0.226904
C100  C     C_3   0.178631 0.499252 0.322064 -0.851168
H70   H     H_    0.161452 0.502486 0.399699 0.293823
H71   H     H_    0.209160 0.448240 0.323162 0.206931
H72   H     H_    0.213605 0.547786 0.317513 0.207373

loop_
_geom_bond_atom_site_label_1
_geom_bond_atom_site_label_2
_geom_bond_distance
_ccdc_geom_bond_type
C10   C92   1.506773 S    
C17   H5    1.083304 S    
C11   C93   1.507149 S    
C2    C61   1.465950 S    
C94   H48   1.111135 S    
C31   C35   1.410350 A    
C90   H32   1.110536 S    
C95   H52   1.110997 S    
C95   H51   1.111033 S    
C16   C60   1.402562 A    
O10   C6    1.306381 A    
C67   N3    1.357717 A    
C21   H63   1.082728 S    
C72   C74   1.413106 A    
C93   H45   1.110513 S    
C36   C64   1.421588 A    
C50   H14   1.061943 S    
C39   C55   1.386113 A    
C98   H60   1.111171 S    
O7    C3    1.300341 A    
C92   H42   1.110493 S    
Zn1   O10   1.968781 S    
C40   C44   1.417396 A    
C24   H66   1.082656 S    
C24   C28   1.387430 A    
C66   C88   1.408560 A    
C69   C71   1.388492 A    
C30   C34   1.407319 A    
C1    C62   1.471607 S    
C89   H29   1.110227 S    
C96   H56   1.107301 S    
H18   C82   1.080547 S    
H4    C48   1.082207 S    
C90   H30   1.103802 S    
N2    C88   1.382499 A    
C11   C59   1.402519 A    
C27   C31   1.414030 A    
C18   C22   1.387834 A    
C33   C49   1.405801 A    
C99   H68   1.110203 S    
O2    Zn1   1.976262 S    
O6    Zn3   1.968656 S    
Zn3   O14   1.976250 S    
C42   C48   1.396114 A    
C37   C53   1.397408 A    
C97   H58   1.111181 S    
Zn4   O16   1.976250 S    
C46   C50   1.384719 A    
C54   C96   1.506881 S    
C16   C56   1.407752 A    
C45   C49   1.387645 A    
C18   C62   1.404109 A    
O15   C7    1.309092 A    
O4    C4    1.308617 A    
O11   C7    1.304176 A    
H2    C46   1.082396 S    
C68   N4    1.358065 A    
C20   H8    1.083409 S    
H1    C45   1.082033 S    
C12   C44   1.413762 A    
C100  H72   1.109706 S    
C98   H61   1.108369 S    
C84   H38   1.066008 S    
C60   H26   1.083876 S    
O8    Zn4   1.968656 S    
C12   C94   1.508041 S    
C14   C58   1.408089 A    
C58   H24   1.083526 S    
C40   C56   1.392681 A    
H3    C47   1.082087 S    
C13   C57   1.402030 A    
C34   C62   1.421158 A    
C68   H34   1.075581 S    
C93   H46   1.110103 S    
C80   C82   1.401075 A    
C22   C26   1.389717 A    
C57   H23   1.083902 S    
C70   C72   1.390677 A    
C79   C81   1.399210 A    
C65   C89   1.527884 S    
C12   C60   1.398804 A    
C83   H37   1.066503 S    
C75   C83   1.387813 A    
N1    C87   1.382635 A    
C89   H28   1.106198 S    
C65   C79   1.398263 A    
Zn2   O12   1.968781 S    
O1    C1    1.312428 A    
C88   C100  1.511813 S    
C35   C63   1.418864 A    
Zn1   N1    2.055794 S    
C38   C42   1.409937 A    
C71   H21   1.077621 S    
C23   C27   1.389726 A    
C14   C54   1.399042 A    
C8    C15   1.453896 S    
C100  H71   1.108602 S    
C55   C97   1.523271 S    
C96   H54   1.108793 S    
C13   C53   1.407554 A    
C36   C52   1.423669 A    
C19   H7    1.083250 S    
C32   C36   1.399027 A    
C43   C45   1.395243 A    
C15   C55   1.404260 A    
C10   C58   1.404867 A    
C99   H69   1.102544 S    
C69   H35   1.082816 S    
C39   C43   1.416636 A    
O5    C1    1.309228 A    
C37   C41   1.419578 A    
C5    C14   1.464290 S    
C67   H33   1.067446 S    
C85   H19   1.076575 S    
C74   C76   1.420407 A    
Zn3   N3    2.043521 S    
C21   C25   1.389904 A    
C3    C64   1.454070 S    
O8    C4    1.312087 A    
C97   H59   1.108510 S    
C51   H15   1.075072 S    
C48   C52   1.392311 A    
C71   C73   1.411050 A    
C26   C30   1.413326 A    
C56   C98   1.523534 S    
C25   H11   1.076848 S    
C91   H41   1.110975 S    
C28   H10   1.082021 S    
O3    Zn2   2.012123 S    
C74   C78   1.424413 A    
C96   H55   1.110914 S    
C27   H9    1.070700 S    
C9    C41   1.415900 A    
C10   C42   1.414652 A    
O5    Zn3   2.002421 S    
C53   C95   1.520848 S    
O7    Zn4   2.002421 S    
C9    C57   1.401940 A    
C49   H13   1.066153 S    
Zn4   O15   2.012112 S    
C95   H53   1.107104 S    
C73   C77   1.420535 A    
C91   H40   1.110142 S    
C66   C90   1.529769 S    
C23   H65   1.082885 S    
O2    C2    1.304810 A    
O12   C8    1.304121 A    
C35   C51   1.406914 A    
C59   H25   1.083733 S    
C93   H47   1.110810 S    
C66   C80   1.405839 A    
C34   C50   1.408379 A    
C9    C91   1.507801 S    
C75   N3    1.356535 A    
C98   H62   1.110938 S    
C90   H31   1.110644 S    
O13   C5    1.304526 A    
C29   C33   1.404117 A    
C76   C84   1.386549 A    
C7    C16   1.455283 S    
Zn2   O11   2.002550 S    
C38   C54   1.382856 A    
O16   C8    1.307552 A    
C72   H22   1.077213 S    
C19   C23   1.386844 A    
C70   H36   1.082700 S    
O6    C2    1.313001 A    
C92   H43   1.110034 S    
C89   H27   1.110871 S    
C6    C13   1.461566 S    
C94   H50   1.110836 S    
N1    C85   1.353645 A    
C92   H44   1.110862 S    
C52   H16   1.079422 S    
C17   C61   1.404077 A    
N2    C86   1.351707 A    
Zn1   O9    2.002550 S    
O9    C5    1.313950 A    
C97   H57   1.111059 S    
C77   C79   1.421418 A    
C19   C63   1.403696 A    
C4    C63   1.472732 S    
C41   C47   1.398373 A    
C47   C51   1.387762 A    
C29   C39   1.413348 A    
C26   H12   1.076836 S    
C67   C69   1.388023 A    
C30   C40   1.417372 A    
C25   C29   1.414788 A    
C31   C37   1.421402 A    
C65   C87   1.404575 A    
C68   C70   1.388512 A    
C32   C38   1.405621 A    
O4    Zn2   1.976262 S    
C99   H67   1.073761 S    
C78   C80   1.424551 A    
C81   C83   1.369088 A    
O3    C3    1.313850 A    
C86   H20   1.076115 S    
C11   C43   1.415047 A    
C15   C59   1.403672 A    
C20   C24   1.386045 A    
O1    Zn1   2.012123 S    
Zn3   O13   2.012112 S    
C76   N4    1.357313 A    
C22   H64   1.082742 S    
C94   H49   1.111850 S    
C100  H70   1.077330 S    
O14   C6    1.308988 A    
Zn2   N2    2.055794 S    
C87   C99   1.495963 S    
C44   C46   1.392983 A    
C17   C21   1.387847 A    
Zn4   N4    2.043521 S    
C78   C86   1.410194 A    
C18   H6    1.083295 S    
C91   H39   1.110513 S    
C20   C64   1.404998 A    
C77   C85   1.412867 A    
C82   C84   1.368770 A    
C33   C61   1.413221 A    
C28   C32   1.414508 A    
C73   C75   1.422108 A    
H17   C81   1.081710 S    
