data_mof_unit_27075.cif
_audit_creation_date              2012-12-10T17:47:50-0500
_audit_creation_method            fapswitch 2.2
_symmetry_space_group_name_H-M    P1
_symmetry_Int_Tables_number       1
_space_group_crystal_system       triclinic
_cell_length_a                    14.713947
_cell_length_b                    14.618932
_cell_length_c                    14.348498
_cell_angle_alpha                 77.827177
_cell_angle_beta                  102.592568
_cell_angle_gamma                 114.914233
_cell_volume                      2707.02769058

loop_
_atom_site_label
_atom_site_type_symbol
_atom_type_description
_atom_site_fract_x
_atom_site_fract_y
_atom_site_fract_z
_atom_type_partial_charge
C1    C     C_R   0.880020 0.311996 0.512201 0.780733
C2    C     C_R   0.119918 0.688083 0.483121 0.781526
C3    C     C_R   0.638860 0.077101 0.520431 0.083932
C4    C     C_R   0.360946 0.923431 0.495297 0.083380
C5    C     C_R   0.676967 0.001945 0.566176 0.125787
C6    C     C_R   0.323614 0.997960 0.496513 0.126464
C7    C     C_R   0.533626 0.051994 0.512465 0.057864
C8    C     C_R   0.466473 0.948498 0.519600 0.056657
C9    C     C_R   0.506018 0.873985 0.560575 -0.204454
C10   C     C_R   0.494716 0.126195 0.508053 -0.204584
C11   C     C_R   0.609962 0.900996 0.586445 -0.220686
C12   C     C_R   0.391139 0.098772 0.503742 -0.220054
C13   C     C_R   0.719870 0.672761 0.347469 0.384473
C14   C     C_R   0.278277 0.324815 0.650548 0.385466
C15   C     C_R   0.800349 0.641534 0.373403 -0.016852
C16   C     C_R   0.200405 0.359847 0.628137 -0.013853
C17   C     C_R   0.712719 0.506799 0.487007 -0.024792
C18   C     C_R   0.284067 0.488024 0.508049 -0.018931
C19   C     C_R   0.626942 0.532457 0.462943 -0.084848
C20   C     C_R   0.367806 0.459251 0.529101 -0.083087
C21   C     C_R   0.631723 0.616779 0.390826 0.046911
C22   C     C_R   0.363564 0.375982 0.602320 0.045664
C23   C     C_R   0.000128 0.499968 0.668883 0.820675
C24   C     C_R   0.999877 0.500038 0.331117 0.800376
C25   C     C_R   0.537891 0.478502 0.508318 0.116936
C26   C     C_R   0.455067 0.510338 0.480879 0.113829
C27   C     C_R   0.462452 0.592482 0.406531 -0.255662
C28   C     C_R   0.529047 0.394102 0.580364 -0.258287
C29   C     C_R   0.548971 0.644688 0.363156 -0.157176
C30   C     C_R   0.443821 0.344163 0.626007 -0.170541
C31   C     C_1   0.000295 0.499898 0.771289 -0.198106
C32   C     C_1   0.999729 0.500128 0.228723 -0.197952
C33   C     C_1   0.000254 0.499916 0.856698 -0.002494
C34   C     C_1   0.999787 0.500124 0.143319 -0.003389
C35   C     C_1   0.000103 0.499989 0.957324 0.008488
C36   C     C_1   0.999949 0.500060 0.042697 0.007821
C37   C     C_R   0.811453 0.203477 0.521107 -0.099930
C38   C     C_R   0.188196 0.796817 0.476298 -0.098543
C39   C     C_R   0.781454 0.029190 0.592214 -0.207812
C40   C     C_R   0.219433 0.970180 0.491481 -0.206604
C41   C     C_R   0.847693 0.130434 0.574655 -0.221414
C42   C     C_R   0.152928 0.869050 0.486906 -0.222155
C43   C     C_R   0.707510 0.173062 0.482302 0.075326
C44   C     C_R   0.291219 0.828111 0.467019 0.098677
Cu1   Cu    Cu3+1 0.081740 0.475690 0.523180 0.928853
Cu2   Cu    Cu3+1 0.918260 0.524310 0.476820 0.924408
H1    H     H_    0.637946 0.842713 0.621744 0.149176
H2    H     H_    0.363823 0.156687 0.504973 0.148395
H3    H     H_    0.402351 0.618770 0.379334 0.137362
H4    H     H_    0.586882 0.364090 0.603778 0.132025
H5    H     H_    0.073775 0.847459 0.491209 0.159303
H6    H     H_    0.927401 0.151446 0.602504 0.156093
H7    H     H_    0.811476 0.973137 0.630095 0.140453
H8    H     H_    0.189959 0.025628 0.495365 0.131664
H9    H     H_    0.456823 0.796028 0.581134 0.152344
H10   H     H_    0.544502 0.204098 0.516645 0.143701
H11   H     H_    0.550660 0.707947 0.307328 0.188754
H12   H     H_    0.441440 0.280016 0.680921 0.191320
H13   H     H_    0.279045 0.548024 0.452141 0.131913
H14   H     H_    0.716615 0.444952 0.541268 0.141948
H15   H     H_    0.135197 0.322401 0.665770 0.145414
H16   H     H_    0.867571 0.682239 0.338934 0.149929
N1    N     N_R   0.795420 0.560790 0.441960 -0.200516
N2    N     N_R   0.204580 0.439210 0.558040 -0.198208
O1    O     O_R   0.977910 0.338120 0.530560 -0.578564
O2    O     O_R   0.022090 0.661880 0.469440 -0.580101
O3    O     O_R   0.839850 0.379180 0.491410 -0.586269
O4    O     O_R   0.160150 0.620820 0.508590 -0.578480
O5    O     O_R   0.069040 0.479460 0.643530 -0.552832
O6    O     O_R   0.930960 0.520540 0.356470 -0.557839
O7    O     O_R   0.930990 0.520530 0.604380 -0.554608
O8    O     O_R   0.069010 0.479470 0.395620 -0.560369
C45   C     C_3   0.320642 0.771054 0.408415 -0.394837
C46   C     C_3   0.375375 0.840346 0.324526 -0.833576
H17   H     H_    0.331814 0.885072 0.281056 0.258933
H18   H     H_    0.452892 0.893040 0.350480 0.259443
H19   H     H_    0.382417 0.793167 0.277291 0.236869
H20   H     H_    0.366789 0.730809 0.454202 0.194690
H21   H     H_    0.252212 0.711914 0.374297 0.204230
C47   C     C_3   0.675598 0.231692 0.388099 -0.368660
C48   C     C_3   0.615952 0.163423 0.309403 -0.829293
H22   H     H_    0.656375 0.116687 0.301803 0.251376
H23   H     H_    0.538608 0.112628 0.325283 0.259817
H24   H     H_    0.608183 0.211470 0.239478 0.245709
H25   H     H_    0.632608 0.273953 0.399352 0.203495
H26   H     H_    0.743189 0.289636 0.356907 0.215293
O9    O     O_3   0.725548 0.754417 0.276351 -0.580100
C49   C     C_3   0.781243 0.844954 0.318121 -0.341655
H27   H     H_    0.861185 0.854257 0.344684 0.155790
H28   H     H_    0.745151 0.847854 0.377509 0.162630
H29   H     H_    0.782449 0.910457 0.262114 0.201773
O10   O     O_3   0.273353 0.244498 0.723073 -0.577652
C50   C     C_3   0.211307 0.152889 0.684871 -0.344719
H30   H     H_    0.241543 0.145470 0.623393 0.151156
H31   H     H_    0.131746 0.146480 0.662405 0.150940
H32   H     H_    0.210554 0.088234 0.741804 0.204295

loop_
_geom_bond_atom_site_label_1
_geom_bond_atom_site_label_2
_ccdc_geom_bond_type
C7    C10   A    
O9    C49   S    
C50   H30   S    
C27   C29   A    
C45   C46   S    
C23   O5    A    
C11   H1    S    
C35   C36   T    
C4    C8    A    
C48   H22   S    
C24   O6    A    
C7    C8    A    
C39   C41   A    
Cu1   Cu2   S    
C25   C28   A    
C3    C43   A    
C26   C27   A    
C46   H18   S    
C12   H2    S    
C19   C21   A    
C5    C11   A    
C3    C7    A    
C6    C12   A    
C18   C20   A    
C47   H26   S    
C1    O3    A    
C28   H4    S    
C8    C9    A    
C46   H19   S    
C1    O1    A    
C45   H20   S    
C31   C33   T    
C9    H9    S    
C10   H10   S    
C41   H6    S    
C34   C36   S    
C1    C37   S    
C42   H5    S    
C40   C42   A    
C50   H31   S    
Cu1   O8    S    
C48   H23   S    
C46   H17   S    
Cu1   O5    S    
C23   O7    A    
C4    C6    A    
C17   C19   A    
C4    C44   A    
C2    O2    A    
C43   C47   S    
C21   C29   A    
C23   C31   S    
C37   C43   A    
C24   C32   S    
C38   C44   A    
C47   H25   S    
C2    C38   S    
C49   H29   S    
C13   O9    S    
Cu1   O4    S    
C45   H21   S    
C13   C21   A    
C9    C11   A    
C14   O10   S    
Cu2   O7    S    
C10   C12   A    
C29   H11   S    
C50   H32   S    
C40   H8    S    
C13   C15   A    
Cu1   O1    S    
C14   C16   A    
C16   H15   S    
C48   H24   S    
C24   O8    A    
C49   H28   S    
C22   C30   A    
C20   C22   A    
C47   C48   S    
C3    C5    A    
Cu2   O2    S    
Cu1   N2    S    
C2    O4    A    
Cu2   N1    S    
C14   C22   A    
C5    C39   A    
C25   C26   A    
Cu2   O3    S    
C17   N1    A    
C18   N2    A    
C39   H7    S    
C20   C26   A    
C30   H12   S    
C28   C30   A    
O10   C50   S    
C33   C35   S    
C15   H16   S    
C6    C40   A    
C37   C41   A    
C44   C45   S    
C19   C25   A    
Cu2   O6    S    
C17   H14   S    
C38   C42   A    
C18   H13   S    
C49   H27   S    
C15   N1    A    
C16   N2    A    
C27   H3    S    
C32   C34   T    
