data_mof_unit_67496.cif
_audit_creation_date              2013-03-05T15:41:00-0500
_audit_creation_method            fapswitch 2.2
_symmetry_space_group_name_H-M    P1
_symmetry_Int_Tables_number       1
_space_group_crystal_system       triclinic
_cell_length_a                    11.092912
_cell_length_b                    8.842994
_cell_length_c                    7.743751
_cell_angle_alpha                 102.36904
_cell_angle_beta                  97.224777
_cell_angle_gamma                 93.580417
_cell_volume                      732.958079664

loop_
_atom_site_label
_atom_site_type_symbol
_atom_site_description
_atom_site_fract_x
_atom_site_fract_y
_atom_site_fract_z
_atom_type_partial_charge
O1    O     O_R   0.509140 0.286130 0.619770 -0.581016
O2    O     O_R   0.485380 0.256770 0.308360 -0.510992
C1    C     C_R   0.494314 0.201790 0.454928 0.855702
O3    O     O_R   0.329570 0.514650 0.655700 -0.551035
O4    O     O_R   0.305810 0.485300 0.344290 -0.504223
C2    C     C_R   0.261102 0.493699 0.499457 0.964593
Cu1   Cu    Cu3+1 0.514070 0.517380 0.684380 1.266937
Cu2   Cu    Cu3+1 0.485930 0.482620 0.315620 1.275876
O5    O     O_R   0.514620 0.743230 0.691640 -0.504626
O6    O     O_R   0.490860 0.713870 0.380230 -0.550382
O7    O     O_R   0.694190 0.514700 0.655710 -0.512734
O8    O     O_R   0.670430 0.485350 0.344300 -0.529752
C3    C     C_R   0.504164 0.798218 0.543691 0.841555
C4    C     C_R   0.739962 0.503951 0.503584 0.966468
C5    C     C_3   0.088269 0.450083 0.689402 0.381263
C6    C     C_3   0.946957 0.486027 0.705437 0.362650
C7    C     C_3   0.089816 0.669201 0.507901 0.453763
C8    C     C_3   0.045239 0.374732 0.333841 0.361421
C9    C     C_3   0.123713 0.494355 0.506355 -0.484596
C10   C     C_3   0.880432 0.507935 0.511970 -0.540446
C11   C     C_3   0.941464 0.677367 0.490110 0.296207
C12   C     C_3   0.905308 0.357575 0.359920 0.269184
C13   C     C_2   0.475040 0.035360 0.432855 0.194437
C14   C     C_2   0.525557 0.963763 0.558694 0.181100
N1    N     N_2   0.464720 0.456420 0.038520 0.047980
N2    N     N_2   0.535280 0.543580 0.961480 0.108041
Cl1   Cl    Cl    0.189946 0.550597 0.891533 -0.291190
N3    N     N_R   0.828027 0.337133 0.183095 0.203599
O9    O     O_R   0.795644 0.197864 0.085190 -0.114885
O10   O     O_R   0.799660 0.452797 0.113317 -0.219839
Cl2   Cl    Cl    0.165676 0.753352 0.353892 -0.290602
N4    N     N_R   0.886538 0.717563 0.322881 0.210731
O11   O     O_R   0.770574 0.732464 0.306740 -0.245203
O12   O     O_R   0.946335 0.808430 0.245970 -0.102991
Cl3   Cl    Cl    0.372613 0.941943 0.240812 -0.274642
Cl4   Cl    Cl    0.649423 0.054065 0.718350 -0.272746
N5    N     N_R   0.450750 0.301252 0.953399 0.255908
O13   O     O_R   0.538633 0.217388 0.987101 -0.214787
O14   O     O_R   0.341312 0.232071 0.905975 -0.194643
Cl5   Cl    Cl    0.565191 0.736534 0.064014 -0.207189
N6    N     N_R   0.110344 0.285857 0.690473 0.194832
O15   O     O_R   0.089617 0.229668 0.827161 -0.095900
O16   O     O_R   0.190450 0.218295 0.599783 -0.281611
Cl6   Cl    Cl    0.867102 0.328326 0.772491 -0.273968
N7    N     N_R   0.934971 0.623381 0.853574 0.209521
O17   O     O_R   0.018528 0.738105 0.916323 -0.138804
O18   O     O_R   0.833514 0.639406 0.919801 -0.151763
Cl7   Cl    Cl    0.178764 0.804002 0.696279 -0.304169
N8    N     N_R   0.909837 0.805488 0.630255 0.188904
O19   O     O_R   0.799876 0.803921 0.670960 -0.268655
O20   O     O_R   0.971096 0.940874 0.666629 -0.099076
Cl8   Cl    Cl    0.052359 0.453779 0.146588 -0.345392
N9    N     N_R   0.092688 0.221329 0.271543 0.228286
O21   O     O_R   0.022954 0.115817 0.150729 -0.102176
O22   O     O_R   0.208984 0.209506 0.274873 -0.246189
N10   N     N_R   0.869748 0.213463 0.417836 0.162766
O23   O     O_R   0.754341 0.172136 0.412153 -0.293657
O24   O     O_R   0.945387 0.113077 0.446999 -0.181847

loop_
_geom_bond_atom_site_label_1
_geom_bond_atom_site_label_2
_geom_bond_distance
_ccdc_geom_bond_type
C6    N7    1.506822 S    
O1    C1    1.317856 A    
O4    Cu2   2.038950 S    
C5    C9    1.635787 S    
C13   C14   1.354900 D    
N5    O13   1.295265 A    
C2    C9    1.532008 S    
C4    C10   1.549260 S    
N10   O24   1.293949 A    
N6    O15   1.300919 A    
C6    Cl6   1.808505 S    
C1    C13   1.443840 S    
C7    Cl7   1.807923 S    
C6    C10   1.640337 S    
Cu2   O8    2.028756 S    
N4    O11   1.294422 A    
N3    O10   1.292804 A    
O2    C1    1.322317 A    
C8    Cl8   1.747454 S    
Cu1   Cu2   2.781017 S    
N5    O14   1.296816 A    
C12   N3    1.490597 S    
N9    O21   1.303100 A    
C10   C11   1.656098 S    
Cu1   O7    2.038950 S    
Cu2   N1    2.089661 S    
N6    O16   1.297416 A    
N2    Cl5   1.713061 S    
C14   Cl4   1.751252 S    
Cu1   N2    2.089661 S    
O3    Cu1   2.028757 S    
C11   N8    1.484296 S    
N3    O9    1.302613 A    
C7    C9    1.611816 S    
O8    C4    1.342140 A    
C8    C9    1.627415 S    
C13   Cl3   1.765337 S    
N9    O22   1.298260 A    
O4    C2    1.345918 A    
C7    Cl2   1.799615 S    
C11   N4    1.483352 S    
C7    C11   1.641481 S    
C5    C6    1.633396 S    
N7    O17   1.297120 A    
N10   O23   1.301889 A    
C5    N6    1.489339 S    
O3    C2    1.315415 A    
N8    O19   1.297654 A    
N7    O18   1.297571 A    
O7    C4    1.327815 A    
Cu1   O5    1.985511 S    
O5    C3    1.332207 A    
O1    Cu1   1.993973 S    
C12   N10   1.485715 S    
C8    N9    1.490864 S    
N1    N5    1.378972 S    
N1    N2    1.342277 D    
C8    C12   1.592430 S    
C5    Cl1   1.829455 S    
Cu2   O6    1.993973 S    
O2    Cu2   1.985512 S    
C3    C14   1.445563 S    
C10   C12   1.639288 S    
N8    O20   1.296229 A    
O6    C3    1.309642 A    
N4    O12   1.295464 A    
