data_mof_unit_63162.cif
_audit_creation_date              2012-12-10T21:05:38-0500
_audit_creation_method            fapswitch 2.2
_symmetry_space_group_name_H-M    P1
_symmetry_Int_Tables_number       1
_space_group_crystal_system       triclinic
_cell_length_a                    15.853286
_cell_length_b                    15.051093
_cell_length_c                    17.636577
_cell_angle_alpha                 90.031816
_cell_angle_beta                  90.823211
_cell_angle_gamma                 89.978365
_cell_volume                      4207.81568623

loop_
_atom_site_label
_atom_site_type_symbol
_atom_type_description
_atom_site_fract_x
_atom_site_fract_y
_atom_site_fract_z
_atom_type_partial_charge
C1    C     C_R   0.338831 0.500015 0.499991 0.890900
C2    C     C_R   0.443553 0.046913 0.453182 0.528574
C3    C     C_R   0.500001 0.905055 0.499998 -0.431201
C4    C     C_R   0.500001 0.094944 0.499999 -0.431016
C5    C     C_1   0.500001 0.807181 0.499999 0.422062
C6    C     C_1   0.500000 0.192819 0.499999 0.422140
C7    C     C_R   0.501395 0.500028 0.352831 0.959734
C8    C     C_R   0.498847 0.500031 0.647156 0.961116
C9    C     C_R   0.476556 0.582464 0.847825 -0.156546
C10   C     C_R   0.520566 0.418807 0.151673 -0.158681
C11   C     C_R   0.525312 0.582125 0.151962 -0.155061
C12   C     C_R   0.661169 0.499985 0.500011 0.891235
C13   C     C_R   0.473258 0.419528 0.847946 -0.157587
C14   C     C_R   0.487366 0.581380 0.769551 0.486641
C15   C     C_R   0.512067 0.418897 0.230268 0.489754
C16   C     C_R   0.516967 0.581440 0.230640 0.490233
C17   C     C_R   0.482569 0.419604 0.769473 0.487786
C18   C     C_R   0.491231 0.500235 0.729923 -0.294109
C19   C     C_R   0.508747 0.500211 0.270012 -0.299640
C20   C     C_R   0.474896 0.501074 0.887240 -0.078175
C21   C     C_R   0.522279 0.500560 0.112577 -0.079794
C22   C     C_1   0.490506 0.500907 0.966890 0.197707
C23   C     C_1   0.824390 0.499954 0.499974 -0.036735
C24   C     C_1   0.506189 0.500816 0.032960 0.193012
C25   C     C_R   0.956226 0.580855 0.500599 -0.148842
C26   C     C_R   0.043774 0.419144 0.499430 -0.148986
C27   C     C_R   0.043695 0.580879 0.500631 -0.149786
C28   C     C_R   0.956305 0.419120 0.499398 -0.149527
C29   C     C_R   0.913153 0.499975 0.499981 0.146268
C30   C     C_R   0.086847 0.500024 0.500047 0.146317
C31   C     C_2   0.467031 0.669730 0.886755 0.568679
C32   C     C_2   0.528013 0.332083 0.111979 0.573535
C33   C     C_2   0.536657 0.669265 0.112996 0.574357
C34   C     C_1   0.175611 0.500045 0.500045 -0.037086
C35   C     C_2   0.462098 0.333140 0.887335 0.571337
C36   C     C_1   0.250443 0.500043 0.500028 -0.118585
C37   C     C_1   0.749557 0.499956 0.499982 -0.117898
C38   C     C_R   0.443553 0.953071 0.453182 0.527469
C39   C     C_R   0.556449 0.046928 0.546816 0.527485
C40   C     C_R   0.556449 0.953086 0.546816 0.528539
F1    F     F_    0.493289 0.660021 0.732042 -0.632787
F2    F     F_    0.508608 0.339613 0.267630 -0.630688
F3    F     F_    0.518015 0.660563 0.268189 -0.633332
F4    F     F_    0.481898 0.340710 0.731725 -0.632719
F5    F     F_    0.388243 0.090933 0.407297 -0.570491
F6    F     F_    0.611759 0.909066 0.592700 -0.570112
F7    F     F_    0.611760 0.090963 0.592700 -0.571294
F8    F     F_    0.388242 0.909036 0.407297 -0.571461
H1    H     H_    0.077555 0.643421 0.501106 0.166106
H2    H     H_    0.922445 0.356578 0.498922 0.166231
H3    H     H_    0.922304 0.643378 0.501052 0.166490
H4    H     H_    0.077696 0.356621 0.498976 0.166427
H5    H     H_    0.491127 0.729699 0.860569 0.137459
H6    H     H_    0.500406 0.272809 0.136043 0.134504
H7    H     H_    0.512849 0.729844 0.138858 0.134581
H8    H     H_    0.486393 0.272569 0.862563 0.134650
N1    N     N_1   0.500000 0.270550 0.500000 -0.070065
N2    N     N_1   0.500000 0.729450 0.500000 -0.069999
O1    O     O_R   0.378020 0.573650 0.500020 -0.611474
O2    O     O_2   0.568600 0.325079 0.053884 -0.550927
O3    O     O_2   0.575671 0.674948 0.054055 -0.549329
O4    O     O_2   0.422492 0.328091 0.946134 -0.553141
O5    O     O_R   0.621980 0.426350 0.499980 -0.611153
O6    O     O_R   0.621980 0.573650 0.499980 -0.608475
O7    O     O_R   0.378020 0.426350 0.500020 -0.608645
O8    O     O_R   0.500000 0.573690 0.389120 -0.557923
O9    O     O_R   0.500000 0.426310 0.610880 -0.557403
O10   O     O_R   0.500000 0.573690 0.610880 -0.557105
O11   O     O_R   0.500000 0.426310 0.389120 -0.557059
O12   O     O_2   0.428961 0.676343 0.946212 -0.552306
Zn1   Zn    Zn3+2 0.500000 0.598370 0.500000 1.092806
Zn2   Zn    Zn3+2 0.500000 0.401630 0.500000 1.093012

loop_
_geom_bond_atom_site_label_1
_geom_bond_atom_site_label_2
_ccdc_geom_bond_type
C31   O12   D    
C7    O11   A    
O11   Zn2   S    
C1    O7    A    
C9    C14   A    
C25   H3    S    
C33   H7    S    
C26   H4    S    
C25   C27   A    
O7    Zn2   S    
C11   C16   A    
C14   C18   A    
C9    C20   A    
C38   F8    S    
O8    Zn1   S    
C6    N1    T    
C4    C39   A    
C13   C17   A    
C2    C38   A    
C28   H2    S    
C1    O1    A    
C17   C18   A    
C17   F4    S    
N1    Zn2   S    
C31   H5    S    
C27   C30   A    
C15   C19   A    
C16   F3    S    
C2    C4    A    
C5    N2    T    
C16   C19   A    
C40   F6    S    
C23   C29   S    
C32   H6    S    
C28   C29   A    
C20   C22   S    
C3    C40   A    
C8    O10   A    
C35   O4    D    
C34   C36   T    
C10   C15   A    
C14   F1    S    
C10   C21   A    
C25   C29   A    
C12   O6    A    
O10   Zn1   S    
C22   C24   T    
N2    Zn1   S    
O6    Zn1   S    
C4    C6    S    
C2    F5    S    
C30   C34   S    
C10   C32   S    
C11   C33   S    
O5    Zn2   S    
C15   F2    S    
C8    O9    A    
C33   O3    D    
O9    Zn2   S    
C12   C37   S    
C21   C24   S    
C39   C40   A    
C12   O5    A    
C32   O2    D    
C7    C19   S    
C1    C36   S    
C13   C20   A    
C35   H8    S    
C23   C37   T    
C39   F7    S    
C26   C28   A    
C11   C21   A    
C13   C35   S    
C8    C18   S    
C27   H1    S    
C3    C38   A    
O1    Zn1   S    
C9    C31   S    
C3    C5    S    
C26   C30   A    
C7    O8    A    
