data_mof_unit_5697.cif
_audit_creation_date              2012-12-10T19:05:50-0500
_audit_creation_method            fapswitch 2.2
_symmetry_space_group_name_H-M    P1
_symmetry_Int_Tables_number       1
_space_group_crystal_system       triclinic
_cell_length_a                    19.295547
_cell_length_b                    10.831772
_cell_length_c                    9.57862
_cell_angle_alpha                 90.218871
_cell_angle_beta                  89.417328
_cell_angle_gamma                 90.766604
_cell_volume                      2001.68285347

loop_
_atom_site_label
_atom_site_type_symbol
_atom_type_description
_atom_site_fract_x
_atom_site_fract_y
_atom_site_fract_z
_atom_type_partial_charge
C1    C     C_R   0.499027 0.262453 0.499494 0.788550
C2    C     C_R   0.291275 0.494698 0.502185 -0.138196
C3    C     C_R   0.929703 0.532019 0.495900 0.420915
C4    C     C_R   0.069859 0.521871 0.498449 0.431534
C5    C     C_R   0.820057 0.456126 0.597890 -0.180678
C6    C     C_R   0.748281 0.439646 0.597914 0.393522
C7    C     C_R   0.708568 0.503361 0.498363 -0.166985
C8    C     C_R   0.742137 0.579085 0.399705 -0.270807
C9    C     C_R   0.814413 0.592570 0.396651 0.178312
C10   C     C_R   0.853703 0.529297 0.496972 -0.040157
C11   C     C_R   0.476922 0.065078 0.619445 0.082720
C12   C     C_R   0.367498 0.496933 0.500632 0.779334
C13   C     C_R   0.491248 0.129485 0.497251 -0.086311
C14   C     C_R   0.491951 0.063510 0.370796 -0.211199
C15   C     C_R   0.489685 0.934774 0.372341 -0.211702
C16   C     C_R   0.486166 0.870576 0.500111 -0.122265
C17   C     C_R   0.470548 0.938469 0.621724 0.123464
C18   C     C_3   0.495013 0.935076 0.770807 -0.050213
C19   C     C_3   0.506804 0.074600 0.761396 -0.517530
C20   C     C_R   0.560626 0.513395 0.070772 0.178293
C21   C     C_R   0.442377 0.467624 0.076355 -0.082434
C22   C     C_R   0.442906 0.461921 0.928504 0.436700
C23   C     C_R   0.496372 0.737580 0.500568 0.792685
C24   C     C_R   0.560325 0.512385 0.924604 0.158541
C25   C     C_3   0.614734 0.609182 0.910259 -0.436049
C26   C     C_3   0.616814 0.612237 0.069808 -0.103538
C27   C     C_R   0.632447 0.499021 0.499505 0.786061
C28   C     C_R   0.256248 0.557162 0.609858 -0.194635
C29   C     C_R   0.184269 0.565563 0.609366 -0.153872
C30   C     C_R   0.145956 0.512920 0.500148 -0.037625
C31   C     C_R   0.180685 0.448908 0.393374 -0.133897
C32   C     C_R   0.252509 0.435964 0.395139 0.402608
Cu1   Cu    Cu3+1 0.500000 0.499980 0.640670 0.939249
Cu2   Cu    Cu3+1 0.500000 0.500020 0.359330 0.935169
H1    H     H_    0.284737 0.602050 0.693165 0.178876
H2    H     H_    0.494559 0.886511 0.273999 0.162884
H3    H     H_    0.543563 0.882801 0.785221 0.159124
H4    H     H_    0.474301 0.131414 0.832796 0.200414
H5    H     H_    0.562636 0.101460 0.758485 0.193990
H6    H     H_    0.395834 0.440778 0.132490 0.203853
H7    H     H_    0.663076 0.572753 0.862492 0.211134
H8    H     H_    0.594549 0.693146 0.859551 0.196535
H9    H     H_    0.666491 0.576492 0.109962 0.162015
H10   H     H_    0.158771 0.615260 0.693218 0.169411
H11   H     H_    0.151828 0.404712 0.310146 0.178876
H12   H     H_    0.850208 0.406521 0.673789 0.177198
H13   H     H_    0.711506 0.631331 0.327387 0.151702
H14   H     H_    0.498221 0.110242 0.271600 0.166715
N1    N     N_R   0.034277 0.494827 0.380458 -0.237195
N2    N     N_R   0.965479 0.499593 0.379279 -0.232928
N3    N     N_R   0.965005 0.558266 0.614345 -0.232309
N4    N     N_R   0.033901 0.553993 0.615361 -0.231311
N5    N     N_R   0.500440 0.500930 0.147930 -0.227854
N6    N     N_R   0.500440 0.500890 0.852020 -0.240594
O1    O     O_R   0.500000 0.319640 0.618810 -0.597198
O2    O     O_R   0.500010 0.319680 0.381230 -0.582645
O3    O     O_R   0.400140 0.499970 0.618830 -0.555428
O4    O     O_R   0.400150 0.500010 0.381250 -0.578127
O5    O     O_R   0.499990 0.680320 0.618770 -0.580572
O6    O     O_R   0.500000 0.680360 0.381190 -0.591848
O7    O     O_R   0.599850 0.499990 0.618750 -0.568065
O8    O     O_R   0.599860 0.500030 0.381170 -0.578919
C33   C     C_3   0.436654 0.905555 0.877488 -0.398046
C34   C     C_3   0.417920 0.769266 0.882202 -0.754834
H15   H     H_    0.397271 0.737592 0.780290 0.268694
H16   H     H_    0.464591 0.717247 0.909477 0.247852
H17   H     H_    0.377697 0.752540 0.963914 0.233766
H18   H     H_    0.454286 0.934387 0.983030 0.204939
H19   H     H_    0.389139 0.958236 0.853321 0.223137
O9    O     O_3   0.385869 0.410200 0.866145 -0.714138
H20   H     H_    0.403805 0.350904 0.796199 0.349221
C35   C     C_3   0.597096 0.737340 0.133306 -0.331696
C36   C     C_3   0.648000 0.840329 0.091591 -0.869956
H21   H     H_    0.701736 0.814703 0.118673 0.253787
H22   H     H_    0.645412 0.859580 0.978109 0.255354
H23   H     H_    0.634598 0.926214 0.148921 0.247268
H24   H     H_    0.543931 0.762758 0.101988 0.208722
H25   H     H_    0.599646 0.729460 0.248062 0.234730
O10   O     O_3   0.282023 0.363003 0.292876 -0.726737
H26   H     H_    0.324755 0.326452 0.330166 0.319675
O11   O     O_3   0.719884 0.358509 0.694192 -0.736004
H27   H     H_    0.674951 0.326839 0.659198 0.324225
C37   C     C_3   0.847100 0.678595 0.289473 -0.400006
C38   C     C_3   0.873938 0.797528 0.357175 -0.787205
H28   H     H_    0.831074 0.844882 0.413106 0.251315
H29   H     H_    0.915956 0.778119 0.431869 0.259469
H30   H     H_    0.894959 0.860271 0.275223 0.246895
H31   H     H_    0.889532 0.632231 0.231739 0.229623
H32   H     H_    0.808592 0.704241 0.209418 0.192656

loop_
_geom_bond_atom_site_label_1
_geom_bond_atom_site_label_2
_ccdc_geom_bond_type
Cu1   O1    S    
Cu2   O2    S    
C26   C35   S    
C36   H21   S    
C38   H30   S    
C2    C12   S    
O11   H27   S    
C7    C8    A    
C22   N6    A    
C23   O5    A    
C11   C19   S    
C29   C30   A    
C4    N4    A    
C28   C29   A    
C19   H4    S    
C18   H3    S    
C38   H29   S    
C30   C31   A    
C18   C33   S    
C24   N6    A    
C15   C16   A    
Cu2   O8    S    
C7    C27   S    
C2    C32   A    
C18   C19   S    
C35   H25   S    
C27   O7    A    
C20   C24   A    
C28   H1    S    
C16   C17   A    
O9    H20   S    
C9    C10   A    
C12   O4    A    
C37   H31   S    
Cu1   O5    S    
C6    O11   S    
C13   C14   A    
Cu2   O6    S    
C36   H22   S    
C3    N2    A    
C26   H9    S    
Cu1   Cu2   S    
C23   O6    A    
C37   H32   S    
N3    N4    A    
C34   H17   S    
C33   H19   S    
C38   H28   S    
C25   H7    S    
C3    N3    A    
C35   C36   S    
C14   H14   S    
C25   C26   S    
O10   H26   S    
C34   H16   S    
C35   H24   S    
C27   O8    A    
C37   C38   S    
C17   C18   S    
C8    C9    A    
C24   C25   S    
C19   H5    S    
C9    C37   S    
C12   O3    A    
C16   C23   S    
C29   H10   S    
C36   H23   S    
C1    C13   S    
C15   H2    S    
Cu1   N6    S    
C33   H18   S    
C11   C17   A    
Cu1   O3    S    
C1    O2    A    
C31   C32   A    
C20   N5    A    
C25   H8    S    
C6    C7    A    
C5    H12   S    
C4    N1    A    
C34   H15   S    
C1    O1    A    
C8    H13   S    
C5    C10   A    
C3    C10   S    
C32   O10   S    
C21   N5    A    
C11   C13   A    
C5    C6    A    
C21   H6    S    
C20   C26   S    
C33   C34   S    
Cu2   N5    S    
Cu1   O7    S    
N1    N2    A    
C31   H11   S    
Cu2   O4    S    
C14   C15   A    
C2    C28   A    
C21   C22   A    
C22   O9    S    
C4    C30   S    
