data_mof_unit_64506.cif
_audit_creation_date              2012-12-10T16:56:03-0500
_audit_creation_method            fapswitch 2.2
_symmetry_space_group_name_H-M    P1
_symmetry_Int_Tables_number       1
_space_group_crystal_system       triclinic
_cell_length_a                    18.647355
_cell_length_b                    18.956229
_cell_length_c                    18.903809
_cell_angle_alpha                 110.162944
_cell_angle_beta                  109.515347
_cell_angle_gamma                 109.285989
_cell_volume                      5108.45337565

loop_
_atom_site_label
_atom_site_type_symbol
_atom_type_description
_atom_site_fract_x
_atom_site_fract_y
_atom_site_fract_z
_atom_type_partial_charge
C1    C     C_R   0.378250 0.380835 0.497291 0.843374
C2    C     C_3   0.807309 0.499347 0.809965 -0.105443
C3    C     C_3   0.843723 0.588874 0.813494 -0.051997
C4    C     C_3   0.723307 0.480396 0.819572 0.013474
C5    C     C_R   0.202098 0.366565 0.460260 0.148289
C6    C     C_R   0.139808 0.383986 0.476718 0.271761
C7    C     C_R   0.098841 0.342676 0.512375 0.237508
C8    C     C_R   0.114500 0.279266 0.523767 -0.259968
C9    C     C_R   0.177651 0.262546 0.508102 0.023998
C10   C     C_R   0.231163 0.316477 0.489154 -0.000139
C11   C     C_R   0.307403 0.312969 0.493492 -0.056699
C12   C     C_R   0.618407 0.499032 0.619247 0.828877
C13   C     C_R   0.320719 0.247431 0.502683 -0.170075
C14   C     C_R   0.259998 0.186061 0.507842 -0.151766
C15   C     C_R   0.187860 0.192448 0.509343 -0.046756
C16   C     C_R   0.384534 0.476762 0.213978 -0.179356
C17   C     C_R   0.375206 0.450320 0.131272 0.317293
C18   C     C_R   0.301757 0.436362 0.063742 -0.147242
C19   C     C_R   0.238928 0.451718 0.079288 -0.211173
C20   C     C_R   0.247848 0.480274 0.163040 0.058553
C21   C     C_R   0.319485 0.488679 0.230382 0.045934
C22   C     C_R   0.325042 0.511382 0.312648 -0.139918
C23   C     C_R   0.624212 0.619539 0.505066 0.797248
C24   C     C_R   0.266611 0.535624 0.329643 -0.131057
C25   C     C_R   0.197744 0.529474 0.264797 0.256789
C26   C     C_R   0.186996 0.500580 0.181072 -0.145269
C27   C     C_R   0.718591 0.810252 0.641863 -0.170570
C28   C     C_R   0.737080 0.895748 0.684984 -0.165851
C29   C     C_R   0.773114 0.953677 0.660862 0.327074
C30   C     C_R   0.798975 0.928498 0.599645 -0.225989
C31   C     C_R   0.781212 0.842079 0.555962 0.036775
C32   C     C_R   0.731283 0.779181 0.569736 0.085375
C33   C     C_R   0.698350 0.688857 0.512356 -0.158554
C34   C     C_R   0.387115 0.506082 0.380575 0.847200
C35   C     C_R   0.732941 0.666752 0.456816 0.184767
C36   C     C_R   0.791453 0.731472 0.453397 -0.197889
C37   C     C_R   0.813585 0.817379 0.500177 -0.097168
C38   C     C_R   0.000274 0.381424 0.881540 0.771098
C39   C     C_R   0.877179 0.500984 0.879437 0.832672
C40   C     C_R   0.994869 0.618464 0.114456 0.828573
C41   C     C_R   0.117292 0.499831 0.115732 0.789377
C42   C     C_R   0.996751 0.115811 0.618509 0.740311
C43   C     C_R   0.119470 0.121067 0.503179 0.779375
C44   C     C_R   0.008664 0.889758 0.381743 0.833444
C45   C     C_3   0.704849 0.423255 0.646556 0.114848
C46   C     C_R   0.880945 0.881687 0.499383 0.785976
C47   C     C_R   0.028198 0.248691 0.911186 -0.144969
C48   C     C_R   0.031412 0.180038 0.920882 -0.084981
C49   C     C_R   0.018544 0.108947 0.852241 -0.108431
C50   C     C_R   0.005283 0.107383 0.774528 -0.144430
C51   C     C_R   0.005120 0.177877 0.764119 0.121773
C52   C     C_R   0.012495 0.247542 0.832101 0.105006
C53   C     C_R   0.004604 0.314452 0.819262 -0.105839
C54   C     C_R   0.995485 0.315164 0.743273 -0.124622
C55   C     C_R   0.990242 0.248363 0.677641 -0.153714
C56   C     C_3   0.778840 0.426602 0.718733 0.005579
C57   C     C_R   0.995237 0.179981 0.687085 -0.101139
C58   C     C_R   0.841549 0.650934 0.094124 0.137947
C59   C     C_R   0.791619 0.687078 0.066288 -0.175482
C60   C     C_R   0.827881 0.776966 0.108792 -0.156025
C61   C     C_R   0.908215 0.830216 0.187406 0.213908
C62   C     C_R   0.952097 0.791858 0.222985 -0.009874
C63   C     C_R   0.928665 0.706564 0.166272 0.016502
C64   C     C_R   0.995328 0.684331 0.183731 -0.100641
C65   C     C_R   0.072571 0.737235 0.265447 -0.163647
C66   C     C_R   0.081433 0.807736 0.331627 0.279315
C67   C     C_3   0.773129 0.587458 0.740287 -0.112008
C68   C     C_R   0.017594 0.833248 0.311961 -0.178186
C69   C     C_3   0.656359 0.487337 0.751549 -0.429178
C70   C     C_3   0.686607 0.498410 0.687192 -0.071465
Cu1   Cu    Cu3+1 0.500370 0.438230 0.438530 1.092011
Cu2   Cu    Cu3+1 0.499630 0.561770 0.561470 1.003649
Cu3   Cu    Cu3+1 0.935490 0.438240 0.997340 1.108609
Cu4   Cu    Cu3+1 0.059110 0.561770 0.997270 1.052520
Cu5   Cu    Cu3+1 0.062130 0.000010 0.562160 1.053702
Cu6   Cu    Cu3+1 0.937870 0.000010 0.437860 1.042993
H1    H     H_    0.725223 0.431044 0.599582 0.213252
H2    H     H_    0.743161 0.529552 0.885843 0.158543
H3    H     H_    0.759491 0.639690 0.769805 0.187081
H4    H     H_    0.378217 0.243549 0.505481 0.191377
H5    H     H_    0.078051 0.244311 0.546234 0.169608
H6    H     H_    0.268963 0.133047 0.510016 0.183358
H7    H     H_    0.272099 0.556312 0.393188 0.220897
H8    H     H_    0.444436 0.490275 0.265046 0.177204
H9    H     H_    0.293984 0.415031 0.999303 0.172363
H10   H     H_    0.183626 0.441107 0.025095 0.139181
H11   H     H_    0.697932 0.771269 0.668930 0.184792
H12   H     H_    0.722887 0.916753 0.737090 0.178225
H13   H     H_    0.831598 0.976335 0.585657 0.149743
H14   H     H_    0.755089 0.363224 0.715975 0.211481
H15   H     H_    0.819804 0.714583 0.413055 0.168989
H16   H     H_    0.991092 0.367156 0.734087 0.215969
H17   H     H_    0.038914 0.302662 0.966497 0.137006
H18   H     H_    0.042904 0.181570 0.981575 0.161180
H19   H     H_    0.018744 0.054638 0.859148 0.157080
H20   H     H_    0.992784 0.049240 0.722599 0.155707
H21   H     H_    0.983573 0.250777 0.619519 0.193107
H22   H     H_    0.125066 0.722108 0.278482 0.192441
H23   H     H_    0.725150 0.645558 0.010934 0.171408
H24   H     H_    0.792761 0.805076 0.081604 0.174410
H25   H     H_    0.901711 0.601641 0.804685 0.238815
H26   H     H_    0.650501 0.544105 0.786347 0.180413
H27   H     H_    0.589380 0.429578 0.714957 0.220073
O1    O     O_R   0.410120 0.357660 0.448080 -0.551039
O2    O     O_R   0.049970 0.461970 0.907590 -0.579309
O3    O     O_R   0.854450 0.447860 0.906670 -0.554884
O4    O     O_R   0.958850 0.552170 0.906610 -0.550273
O5    O     O_R   0.944630 0.538040 0.087020 -0.539116
O6    O     O_R   0.049030 0.642360 0.086960 -0.568407
O7    O     O_R   0.035750 0.447840 0.088000 -0.551263
O8    O     O_R   0.140150 0.552150 0.087940 -0.587296
O9    O     O_R   0.051920 0.090140 0.642160 -0.592824
O10   O     O_R   0.946980 0.090140 0.537200 -0.572467
O11   O     O_R   0.142650 0.090190 0.552500 -0.574362
O12   O     O_R   0.409500 0.461990 0.551900 -0.576316
O13   O     O_R   0.037720 0.090180 0.447540 -0.558179
O14   O     O_R   0.053020 0.909880 0.462820 -0.531243
O15   O     O_R   0.948080 0.909870 0.357860 -0.576412
O16   O     O_R   0.962280 0.909830 0.552480 -0.572836
O17   O     O_R   0.857350 0.909830 0.447520 -0.573333
O18   O     O_R   0.590960 0.447820 0.538760 -0.546569
O19   O     O_R   0.590340 0.552160 0.642570 -0.605649
O20   O     O_R   0.590500 0.538010 0.448100 -0.557504
O21   O     O_R   0.589880 0.642340 0.551920 -0.607128
O22   O     O_R   0.409660 0.447840 0.357430 -0.570289
O23   O     O_R   0.409040 0.552180 0.461240 -0.569297
O24   O     O_R   0.945580 0.357650 0.907650 -0.559574
I1    I     I_    0.895577 0.700308 0.938589 -0.366694
Br1   Br    Br    0.213796 0.374663 0.366390 -0.461654
Br2   Br    Br    0.107450 0.460186 0.446087 -0.278763
Br3   Br    Br    0.014355 0.364246 0.537883 -0.368869
Br4   Br    Br    0.599471 0.307257 0.577192 -0.441002
Br5   Br    Br    0.463744 0.433957 0.110899 -0.427439
Br6   Br    Br    0.120375 0.562708 0.294639 -0.393962
I2    I     I_    0.709178 0.540239 0.377767 -0.147212
Br7   Br    Br    0.787847 0.067312 0.712767 -0.459363
I3    I     I_    0.767644 0.517713 0.051631 -0.208061
Br8   Br    Br    0.876084 0.439559 0.695916 -0.449809
I4    I     I_    0.971416 0.965492 0.231242 -0.253832
Br9   Br    Br    0.186376 0.870530 0.443822 -0.400536
I5    I     I_    0.822290 0.621654 0.661187 -0.279748
I6    I     I_    0.654246 0.354438 0.806168 -0.197159

loop_
_geom_bond_atom_site_label_1
_geom_bond_atom_site_label_2
_ccdc_geom_bond_type
C39   O3    A    
C66   C68   A    
Cu1   O1    S    
C16   C21   A    
C59   H23   S    
Cu3   Cu4   S    
C2    C4    S    
C19   C20   A    
Cu5   O14   S    
C6    Br2   S    
C19   H10   S    
Cu4   O6    S    
C38   O24   A    
C7    C8    A    
C53   C54   A    
C4    H2    S    
Cu2   O12   S    
Cu5   O9    S    
C62   C63   A    
C48   H18   S    
Cu1   O20   S    
C28   C29   A    
C24   H7    S    
C65   H22   S    
C43   O11   A    
C4    I6    S    
C5    C6    A    
C16   H8    S    
C18   C19   A    
C8    H5    S    
C42   O9    A    
Cu6   O13   S    
Cu4   O4    S    
C2    C39   S    
C12   O18   A    
C35   C36   A    
C45   C56   S    
C8    C9    A    
C23   C33   S    
C1    C11   S    
C28   H12   S    
C51   C57   A    
C9    C10   A    
C7    Br3   S    
C40   O5    A    
C3    H25   S    
C56   H14   S    
C45   C70   S    
C13   H4    S    
C59   C60   A    
C21   C22   A    
Cu2   O21   S    
C61   C62   A    
C30   H13   S    
C42   C57   S    
C4    C69   S    
C50   C51   A    
C69   H27   S    
C22   C34   S    
C18   H9    S    
C51   C52   A    
Cu3   O7    S    
Cu5   O16   S    
C24   C25   A    
C35   I2    S    
Cu4   O8    S    
C3    I1    S    
C16   C17   A    
Cu3   O5    S    
C23   O20   A    
C25   C26   A    
C69   H26   S    
Cu6   O15   S    
C31   C37   A    
Cu2   O23   S    
C60   C61   A    
C47   C52   A    
C39   O4    A    
Cu5   Cu6   S    
C54   H16   S    
C29   C30   A    
C43   O13   A    
C56   Br8   S    
C42   O10   A    
C47   C48   A    
C44   O15   A    
C34   O23   A    
C55   H21   S    
C17   C18   A    
C47   H17   S    
C46   O17   A    
Cu5   O11   S    
Cu6   O17   S    
C49   H19   S    
C27   H11   S    
C25   Br6   S    
C1    O1    A    
C40   O6    A    
C36   H15   S    
C48   C49   A    
C66   Br9   S    
C49   C50   A    
C41   O7    A    
C55   C57   A    
C17   Br5   S    
C22   C24   A    
C44   C68   S    
C14   H6    S    
C67   I5    S    
C52   C53   A    
C58   I3    S    
C58   C63   A    
C12   C70   S    
C54   C55   A    
C36   C37   A    
Cu2   O19   S    
C27   C32   A    
Cu1   O18   S    
C31   C32   A    
C3    C67   S    
C60   H24   S    
C45   H1    S    
C6    C7    A    
C40   C64   S    
C62   C68   A    
C67   C70   S    
C32   C33   A    
C38   O2    A    
Cu6   O10   S    
C2    C3    S    
C58   C59   A    
C15   C43   S    
Cu1   Cu2   S    
Cu3   O24   S    
C64   C65   A    
Cu4   O2    S    
C11   C13   A    
C50   H20   S    
Cu3   O3    S    
C30   C31   A    
C38   C53   S    
C20   C26   A    
C44   O14   A    
C34   O22   A    
C5    Br1   S    
C33   C35   A    
C46   O16   A    
C9    C15   A    
C69   C70   S    
C61   I4    S    
C10   C11   A    
C63   C64   A    
C5    C10   A    
C29   Br7   S    
C12   O19   A    
C20   C21   A    
C45   Br4   S    
C65   C66   A    
C41   O8    A    
C27   C28   A    
C14   C15   A    
Cu1   O22   S    
C2    C56   S    
C1    O12   A    
C37   C46   S    
C13   C14   A    
C23   O21   A    
C67   H3    S    
C26   C41   S    
