data_mof_unit_37193.cif
_audit_creation_date              2012-10-26T21:05:39-0400
_audit_creation_method            fapswitch 2.2
_symmetry_space_group_name_H-M    P1
_symmetry_Int_Tables_number       1
_space_group_crystal_system       triclinic
_cell_length_a                    13.081858
_cell_length_b                    9.095892
_cell_length_c                    7.778107
_cell_angle_alpha                 90.018401
_cell_angle_beta                  95.065161
_cell_angle_gamma                 89.996277
_cell_volume                      921.911744596

loop_
_atom_site_label
_atom_site_type_symbol
_atom_type_description
_atom_site_fract_x
_atom_site_fract_y
_atom_site_fract_z
_atom_type_partial_charge
C1    C     C_R   0.499938 0.220000 0.499978 0.543847
C2    C     C_R   0.863238 0.406973 0.693765 0.206801
C3    C     C_R   0.135493 0.436271 0.579436 0.069117
C4    C     C_R   0.867713 0.502185 0.401087 0.072086
C5    C     C_R   0.027565 0.450079 0.575356 -0.008667
C6    C     C_R   0.974789 0.518605 0.429268 -0.013575
C7    C     C_1   0.499918 0.065364 0.499971 -0.036515
C8    C     C_1   0.499919 0.934636 0.500009 -0.036007
C9    C     C_R   0.499961 0.779996 0.500008 0.546072
C10   C     C_R   0.300617 0.502624 0.470078 0.560896
C11   C     C_R   0.699506 0.488449 0.529579 0.549717
C12   C     C_R   0.811479 0.465928 0.542217 -0.008255
C13   C     C_R   0.188997 0.512582 0.457789 0.016230
C14   C     C_R   0.029614 0.605275 0.317422 0.125120
C15   C     C_R   0.970350 0.396139 0.709016 0.136016
C16   C     C_R   0.136545 0.604782 0.333940 0.200960
Cu1   Cu    Cu3+1 0.500010 0.500000 0.669080 1.061215
Cu2   Cu    Cu3+1 0.499990 0.500000 0.330920 1.057412
H1    H     H_    0.778369 0.406581 0.207851 0.249001
H2    H     H_    0.992403 0.228652 0.880435 0.261791
H3    H     H_    0.870067 0.499422 0.135955 0.265961
H4    H     H_    0.197296 0.380513 0.821392 0.287741
H5    H     H_    0.158254 0.233453 0.690314 0.253725
H6    H     H_    0.751209 0.295471 0.774171 0.336301
H7    H     H_    0.252725 0.728493 0.289835 0.334448
H8    H     H_    0.000727 0.814457 0.236816 0.263520
H9    H     H_    0.997998 0.688076 0.076494 0.261722
H10   H     H_    0.001081 0.399235 0.969207 0.257487
N1    N     N_1   0.499980 0.500000 0.076820 -0.067023
N2    N     N_1   0.500020 0.500000 0.923180 -0.067040
N3    N     N_3   0.817133 0.506519 0.228101 -0.523769
N4    N     N_3   0.192348 0.337496 0.696381 -0.587407
N5    N     N_3   0.976802 0.708251 0.200909 -0.582563
N6    N     N_3   0.019909 0.335337 0.864875 -0.631493
O1    O     O_R   0.500000 0.288400 0.642760 -0.502109
O2    O     O_3   0.186627 0.697814 0.228592 -0.695420
O3    O     O_R   0.500000 0.711600 0.357240 -0.497016
O4    O     O_R   0.500000 0.288400 0.357240 -0.503005
O5    O     O_R   0.500000 0.711600 0.642760 -0.496260
O6    O     O_R   0.349000 0.500000 0.619590 -0.480015
O7    O     O_R   0.651000 0.500000 0.380410 -0.486208
O8    O     O_R   0.348990 0.500000 0.334020 -0.499164
O9    O     O_R   0.651010 0.500000 0.665980 -0.485664
O10   O     O_3   0.811469 0.350746 0.826236 -0.710008

loop_
_geom_bond_atom_site_label_1
_geom_bond_atom_site_label_2
_ccdc_geom_bond_type
C11   C12   S    
Cu1   O9    S    
C11   O9    A    
N1    N2    T    
C2    C15   A    
C10   O8    A    
C4    C12   A    
C15   N6    S    
C3    C13   A    
H1    N3    S    
H5    N4    S    
C14   N5    S    
C9    O3    A    
Cu1   Cu2   S    
Cu2   O4    S    
H2    N6    S    
C7    C8    T    
Cu2   N1    S    
H9    N5    S    
Cu1   N2    S    
H3    N3    S    
C5    C6    A    
H4    N4    S    
C1    O4    A    
C10   O6    A    
Cu2   O3    S    
C11   O7    A    
Cu2   O8    S    
C3    N4    S    
H6    O10   S    
C14   C16   A    
C5    C15   A    
C4    N3    S    
C6    C14   A    
H7    O2    S    
H10   N6    S    
C9    O5    A    
C1    O1    A    
C4    C6    A    
C2    C12   A    
Cu1   O5    S    
C13   C16   A    
Cu1   O1    S    
C1    C7    S    
C10   C13   S    
C16   O2    S    
Cu2   O7    S    
H8    N5    S    
C2    O10   S    
C8    C9    S    
C3    C5    A    
Cu1   O6    S    
