data_mof_unit_29474.cif
_audit_creation_date              2012-12-11T16:57:17-0500
_audit_creation_method            fapswitch 2.2
_symmetry_space_group_name_H-M    P1
_symmetry_Int_Tables_number       1
_space_group_crystal_system       triclinic
_cell_length_a                    14.535514
_cell_length_b                    16.403525
_cell_length_c                    6.962541
_cell_angle_alpha                 89.508986
_cell_angle_beta                  98.835071
_cell_angle_gamma                 89.821261
_cell_volume                      1640.32954014

loop_
_atom_site_label
_atom_site_type_symbol
_atom_type_description
_atom_site_fract_x
_atom_site_fract_y
_atom_site_fract_z
_atom_type_partial_charge
O1    O     O_R   0.584990 0.413650 0.534420 -0.537519
O2    O     O_R   0.584990 0.586350 0.534420 -0.516586
O3    O     O_R   0.596190 0.585230 0.208380 -0.569291
O4    O     O_R   0.596190 0.414770 0.208380 -0.554112
O5    O     O_R   0.415010 0.586420 0.976930 -0.506638
O6    O     O_R   0.415010 0.413580 0.976930 -0.514271
C1    C     C_R   0.617862 0.615042 0.383149 0.738087
C2    C     C_R   0.615456 0.383275 0.383673 0.744810
O7    O     O_3   0.440560 0.500000 0.319140 -0.350512
V1    V     V_3+5 0.511030 0.500000 0.068070 1.454782
O8    O     O_R   0.403810 0.414840 0.643540 -0.548234
O9    O     O_R   0.403810 0.585160 0.643540 -0.536702
C3    C     C_R   0.383981 0.385217 0.806991 0.784433
C4    C     C_R   0.380942 0.613125 0.806104 0.798356
V2    V     V_3+5 0.488970 0.500000 0.560620 1.500298
O10   O     O_3   0.559440 0.500000 0.859420 -0.407261
C5    C     C_2   0.313961 0.681959 0.801063 -0.354751
C6    C     C_2   0.313410 0.320585 0.799746 -0.303302
C7    C     C_2   0.266268 0.698214 0.950693 0.402698
C8    C     C_2   0.309882 0.266942 0.948114 0.304467
C9    C     C_2   0.194767 0.816398 0.104288 0.118416
C10   C     C_2   0.196998 0.179974 0.104935 0.113789
C11   C     C_2   0.201867 0.770778 0.941044 0.165398
C12   C     C_2   0.229633 0.208342 0.939750 0.103197
H1    H     H_    0.305629 0.721466 0.673637 0.136342
H2    H     H_    0.261726 0.319464 0.670302 0.109702
C13   C     C_R   0.752920 0.688498 0.582004 -0.018289
C14   C     C_R   0.735889 0.298054 0.597200 -0.047556
C15   C     C_R   0.687250 0.683632 0.413096 -0.164603
C16   C     C_R   0.680595 0.311407 0.417107 -0.138743
C17   C     C_R   0.681802 0.751399 0.286602 -0.139733
C18   C     C_R   0.676608 0.246708 0.285861 -0.102772
H3    H     H_    0.625556 0.755074 0.165964 0.165203
H4    H     H_    0.621768 0.246397 0.162431 0.145976
C19   C     C_R   0.741161 0.819831 0.324576 0.414039
C20   C     C_R   0.737314 0.178527 0.320160 0.383195
C21   C     C_R   0.813573 0.820479 0.488735 -0.215968
C22   C     C_R   0.810652 0.177157 0.482855 -0.176404
C23   C     C_R   0.815025 0.754810 0.622281 -0.123736
C24   C     C_R   0.804189 0.235251 0.628166 -0.099927
C25   C     C_3   0.792878 0.757568 0.829384 0.565599
C26   C     C_3   0.778712 0.213274 0.824236 0.589785
C27   C     C_3   0.732319 0.683026 0.783981 0.570006
C28   C     C_3   0.697238 0.272710 0.776328 0.520466
O11   O     O_R   0.921430 0.915960 0.371040 -0.544207
O12   O     O_R   0.921430 0.084040 0.371040 -0.537088
O13   O     O_R   0.910450 0.087500 0.697310 -0.545149
O14   O     O_R   0.910450 0.912500 0.697310 -0.550046
O15   O     O_R   0.091710 0.087460 0.928430 -0.535970
O16   O     O_R   0.091710 0.912540 0.928430 -0.527876
C29   C     C_R   0.884120 0.111315 0.518012 0.678365
C30   C     C_R   0.886123 0.886929 0.520385 0.685247
O17   O     O_3   0.065970 0.000000 0.586140 -0.353941
V3    V     V_3+5 0.995640 0.000000 0.837400 1.427131
O18   O     O_R   0.103020 0.915700 0.261710 -0.547803
O19   O     O_R   0.103020 0.084300 0.261710 -0.519427
C31   C     C_R   0.127063 0.886858 0.099553 0.651942
C32   C     C_R   0.126422 0.113165 0.098690 0.767122
V4    V     V_3+5 0.017940 0.000000 0.344880 1.427153
O20   O     O_3   0.947330 0.000000 0.046180 -0.392168
N1    N     N_2   0.149021 0.792159 0.756660 -0.523065
H5    H     H_    0.181016 0.833973 0.677828 0.267186
C33   C     C_3   0.100744 0.727521 0.641889 -0.583817
H6    H     H_    0.040966 0.754015 0.542277 0.201064
H7    H     H_    0.073622 0.681452 0.736712 0.195104
H8    H     H_    0.147481 0.697411 0.552075 0.204611
N2    N     N_2   0.189218 0.180905 0.751346 -0.490316
H9    H     H_    0.236780 0.166911 0.660829 0.295595
C34   C     C_3   0.109755 0.227620 0.656672 -0.487556
H10   H     H_    0.050602 0.186132 0.614238 0.211541
H11   H     H_    0.125661 0.257622 0.522577 0.195673
H12   H     H_    0.089008 0.276006 0.752217 0.156190
N3    N     N_2   0.769124 0.608562 0.886196 -0.556662
H13   H     H_    0.719438 0.568481 0.917657 0.265705
C35   C     C_3   0.852902 0.570560 0.835559 -0.606777
H14   H     H_    0.835849 0.535842 0.698615 0.181663
H15   H     H_    0.883790 0.529065 0.954925 0.207556
H16   H     H_    0.906791 0.616002 0.814603 0.231564
N4    N     N_2   0.690472 0.337622 0.914037 -0.562146
H17   H     H_    0.622486 0.355565 0.912104 0.300362
C36   C     C_3   0.751759 0.406622 0.917003 -0.582183
H18   H     H_    0.749522 0.441649 0.051715 0.211869
H19   H     H_    0.728695 0.444942 0.787008 0.216400
H20   H     H_    0.824545 0.387987 0.915294 0.199663
O21   O     O_3   0.272853 0.644298 0.106306 -0.618375
H21   H     H_    0.219882 0.654384 0.177278 0.298976
O22   O     O_3   0.383870 0.263788 0.099132 -0.637675
H22   H     H_    0.382153 0.210639 0.167066 0.316598
O23   O     O_3   0.252516 0.796841 0.275627 -0.650929
H23   H     H_    0.244355 0.838207 0.374338 0.292044
O24   O     O_3   0.228561 0.211362 0.286548 -0.671580
H24   H     H_    0.245692 0.269249 0.271965 0.299751
O25   O     O_3   0.720376 0.886987 0.205766 -0.605352
H25   H     H_    0.752798 0.934718 0.268053 0.283439
O26   O     O_3   0.717362 0.113145 0.198946 -0.619248
H26   H     H_    0.757000 0.066674 0.249442 0.288123
O27   O     O_3   0.740637 0.826713 0.863074 -0.597409
H27   H     H_    0.783558 0.873716 0.875441 0.328134
O28   O     O_3   0.748360 0.132084 0.834152 -0.610669
H28   H     H_    0.798771 0.100111 0.912701 0.345499
N5    N     N_2   0.867787 0.739562 0.988308 -0.555820
H29   H     H_    0.846127 0.727704 0.119779 0.273732
C37   C     C_3   0.951554 0.785893 0.005127 -0.520569
H30   H     H_    0.004167 0.757614 0.118834 0.169182
H31   H     H_    0.937402 0.848705 0.047848 0.236729
H32   H     H_    0.979063 0.785371 0.866165 0.232431
N6    N     N_2   0.847953 0.235671 0.992013 -0.540096
H33   H     H_    0.825707 0.267223 0.103127 0.275592
C38   C     C_3   0.943341 0.251561 0.969006 -0.609711
H34   H     H_    0.986238 0.259364 0.113995 0.192271
H35   H     H_    0.948034 0.307719 0.881372 0.179381
H36   H     H_    0.971670 0.199748 0.897932 0.234615
O29   O     O_3   0.637669 0.698340 0.794244 -0.621982
H37   H     H_    0.622796 0.673442 0.915332 0.286403
O30   O     O_3   0.611078 0.232897 0.725569 -0.628372
H38   H     H_    0.594986 0.207657 0.845829 0.320246

loop_
_geom_bond_atom_site_label_1
_geom_bond_atom_site_label_2
_ccdc_geom_bond_type
C27   N3    S    
C22   C24   A    
O22   H22   S    
C33   H7    S    
O25   H25   S    
C1    C15   S    
O18   V4    S    
O12   V4    S    
C13   C15   A    
O1    C2    A    
C25   C27   S    
N3    H13   S    
O2    C1    A    
C6    H2    S    
O4    C2    A    
O27   H27   S    
O17   V4    S    
C23   C25   S    
V3    O20   S    
O21   H21   S    
O14   V3    S    
O16   V3    S    
C3    C6    S    
C18   C20   A    
C10   C12   D    
C19   C21   A    
O3    C1    A    
C38   H35   S    
C14   C24   A    
O15   V3    S    
C8    O22   S    
N1    C33   S    
C34   H11   S    
C12   N2    S    
O8    V2    S    
C8    C12   S    
C28   O30   S    
C13   C23   A    
C10   O24   S    
C17   H3    S    
O1    V2    S    
O19   C32   A    
C26   N6    S    
C24   C26   S    
C33   H8    S    
V4    O20   S    
N5    C37   S    
N6    C38   S    
C4    C5    S    
C34   H10   S    
C26   C28   S    
C36   H19   S    
C36   H18   S    
C19   O25   S    
N2    H9    S    
N5    H29   S    
C38   H36   S    
O24   H24   S    
N4    C36   S    
C21   C30   S    
O13   C29   A    
C22   C29   S    
O11   C30   A    
O17   V3    S    
O12   C29   A    
C14   C28   S    
O15   C32   A    
N4    H17   S    
N2    C34   S    
C18   H4    S    
C34   H12   S    
C7    C11   S    
C35   H14   S    
C9    C31   S    
O28   H28   S    
O9    V2    S    
O14   C30   A    
N6    H33   S    
C37   H31   S    
O2    V2    S    
C35   H15   S    
O5    C4    A    
O13   V3    S    
O9    C4    A    
C9    C11   D    
C25   O27   S    
N3    C35   S    
O4    V1    S    
C20   C22   A    
C36   H20   S    
O29   H37   S    
O7    V1    S    
O11   V4    S    
O16   C31   A    
C28   N4    S    
C9    O23   S    
C7    O21   S    
C10   C32   S    
O19   V4    S    
C2    C16   S    
O18   C31   A    
O7    V2    S    
C5    H1    S    
O5    V1    S    
C21   C23   A    
O3    V1    S    
V1    O10   S    
C38   H34   S    
C27   O29   S    
O6    C3    A    
C16   C18   A    
O8    C3    A    
C20   O26   S    
O30   H38   S    
C17   C19   A    
C14   C16   A    
C5    C7    D    
C25   N5    S    
C37   H32   S    
C6    C8    D    
N1    H5    S    
C35   H16   S    
O6    V1    S    
C33   H6    S    
C13   C27   S    
C11   N1    S    
C15   C17   A    
C37   H30   S    
O23   H23   S    
C26   O28   S    
O26   H26   S    
V2    O10   S    
