data_mof_unit_66482.cif
_audit_creation_date              2012-12-10T17:54:43-0500
_audit_creation_method            fapswitch 2.2
_symmetry_space_group_name_H-M    P1
_symmetry_Int_Tables_number       1
_space_group_crystal_system       triclinic
_cell_length_a                    18.914106
_cell_length_b                    18.761398
_cell_length_c                    18.959721
_cell_angle_alpha                 109.556535
_cell_angle_beta                  110.017823
_cell_angle_gamma                 109.377251
_cell_volume                      5144.38078151

loop_
_atom_site_label
_atom_site_type_symbol
_atom_type_description
_atom_site_fract_x
_atom_site_fract_y
_atom_site_fract_z
_atom_type_partial_charge
C1    C     C_R   0.119091 0.000613 0.618855 0.802201
C2    C     C_R   0.266647 0.190835 0.526123 0.043316
C3    C     C_R   0.186288 0.187760 0.504052 -0.159649
C4    C     C_R   0.169476 0.246411 0.480518 -0.090089
C5    C     C_R   0.234286 0.309787 0.480410 0.251547
C6    C     C_R   0.311927 0.307596 0.493097 -0.145548
C7    C     C_R   0.169821 0.927582 0.693487 0.075943
C8    C     C_R   0.185325 0.002288 0.687128 -0.114307
C9    C     C_R   0.259868 0.082401 0.756016 -0.166788
C10   C     C_R   0.324554 0.084338 0.822402 0.260050
C11   C     C_R   0.313257 0.005016 0.820369 -0.125879
C12   C     C_R   0.117620 0.119159 0.499897 0.799177
C13   C     C_R   0.232081 0.929009 0.759307 0.032530
C14   C     C_3   0.208173 0.837637 0.701456 -0.413910
C15   C     C_3   0.140193 0.836900 0.628492 0.110977
C16   C     C_R   0.756312 0.731767 0.428608 0.126548
C17   C     C_R   0.816793 0.814270 0.501580 -0.061178
C18   C     C_R   0.811445 0.831586 0.577607 -0.159383
C19   C     C_R   0.746819 0.766740 0.577676 -0.187999
C20   C     C_R   0.685485 0.684826 0.501156 -0.056291
C21   C     C_R   0.692765 0.670587 0.428049 0.081011
C22   C     C_3   0.654807 0.604723 0.335464 -0.252606
C23   C     C_R   0.880938 0.999669 0.381245 0.810836
C24   C     C_3   0.726430 0.675206 0.335544 -0.468395
C25   C     C_R   0.804212 0.976233 0.233312 0.087715
C26   C     C_R   0.813564 0.999195 0.315044 -0.058696
C27   C     C_R   0.755344 0.023619 0.331705 -0.170136
C28   C     C_R   0.690208 0.023174 0.266674 -0.120753
C29   C     C_R   0.684787 0.001457 0.185651 -0.018714
C30   C     C_R   0.744466 0.980249 0.172636 -0.020999
C31   C     C_3   0.769861 0.950238 0.106711 -0.360928
C32   C     C_3   0.838521 0.945025 0.176132 0.111456
C33   C     C_R   0.499241 0.617663 0.618752 0.825699
C34   C     C_R   0.881697 0.880899 0.500097 0.804851
C35   C     C_R   0.380596 0.378120 0.497029 0.928207
C36   C     C_R   0.503908 0.385344 0.381546 0.886119
C37   C     C_R   0.618672 0.618110 0.499749 0.783502
C38   C     C_R   0.501320 0.119090 0.119286 0.840370
C39   C     C_R   0.381026 0.001389 0.882638 0.842590
C40   C     C_R   0.501722 0.880591 0.883483 0.799170
C41   C     C_R   0.618572 1.000000 0.118357 0.779633
C42   C     C_R   0.536855 0.767343 0.706684 0.005650
C43   C     C_R   0.498181 0.681000 0.686945 -0.093158
C44   C     C_R   0.476938 0.661811 0.745811 -0.067673
C45   C     C_R   0.288611 0.141249 0.562547 -0.185736
C46   C     C_R   0.480694 0.728016 0.814227 -0.216870
C47   C     C_R   0.507009 0.812609 0.822914 -0.150479
C48   C     C_R   0.540581 0.831155 0.772155 0.127555
C49   C     C_3   0.531698 0.880201 0.724490 0.111847
C50   C     C_3   0.527300 0.808439 0.651614 -0.467095
C51   C     C_R   0.434362 0.258910 0.236099 0.100833
C52   C     C_R   0.508961 0.322812 0.315959 -0.172750
C53   C     C_R   0.587191 0.319756 0.332235 -0.095516
C54   C     C_R   0.585196 0.251045 0.267837 0.181790
C55   C     C_R   0.505977 0.186963 0.188274 -0.109585
C56   C     C_R   0.364028 0.136690 0.575859 -0.039894
C57   C     C_R   0.432787 0.193763 0.176155 0.021342
C58   C     C_3   0.339489 0.154350 0.111249 -0.468217
C59   C     C_3   0.340745 0.228549 0.179957 0.144466
C60   C     C_R   0.414117 0.176729 0.546432 -0.170226
C61   C     C_R   0.393067 0.225588 0.510019 0.269102
C62   C     C_R   0.325201 0.242801 0.509852 0.005840
Cu1   Cu    Cu3+1 0.000020 0.938200 0.438210 1.062430
Cu2   Cu    Cu3+1 0.999980 0.061800 0.561790 1.036579
Cu3   Cu    Cu3+1 0.438170 0.500030 0.438220 1.092324
Cu4   Cu    Cu3+1 0.561770 0.500000 0.561810 1.070587
Cu5   Cu    Cu3+1 0.561810 0.061820 0.000030 1.099515
Cu6   Cu    Cu3+1 0.438190 0.938280 0.000080 1.058917
H1    H     H_    0.180177 0.792030 0.722224 0.240444
H2    H     H_    0.154032 0.833917 0.575414 0.176391
H3    H     H_    0.857256 0.894524 0.636814 0.171419
H4    H     H_    0.743974 0.780926 0.636607 0.153441
H5    H     H_    0.662694 0.546983 0.328451 0.192329
H6    H     H_    0.775207 0.657679 0.328354 0.222583
H7    H     H_    0.702494 0.702175 0.294628 0.228153
H8    H     H_    0.759170 0.041587 0.394008 0.172500
H9    H     H_    0.247507 0.106519 0.581543 0.152487
H10   H     H_    0.645131 0.040634 0.279895 0.167488
H11   H     H_    0.717005 0.885388 0.048650 0.129298
H12   H     H_    0.591363 0.944955 0.758021 0.150689
H13   H     H_    0.463234 0.767138 0.589935 0.250698
H14   H     H_    0.584831 0.831964 0.643825 0.177849
H15   H     H_    0.331150 0.159870 0.052694 0.195631
H16   H     H_    0.298686 0.087731 0.097835 0.243194
H17   H     H_    0.331900 0.276132 0.160622 0.158162
H18   H     H_    0.467142 0.165981 0.547124 0.212861
H19   H     H_    0.269441 0.142761 0.756299 0.174521
H20   H     H_    0.261288 0.834511 0.690503 0.224651
O1    O     O_R   0.090180 0.947810 0.537990 -0.572035
O2    O     O_R   0.552150 0.590170 0.642370 -0.589857
O3    O     O_R   0.357600 0.409850 0.447820 -0.530966
O4    O     O_R   0.461980 0.409830 0.552180 -0.567412
O5    O     O_R   0.447790 0.409860 0.357660 -0.573972
O6    O     O_R   0.552170 0.409840 0.462020 -0.552478
O7    O     O_R   0.537960 0.590200 0.447840 -0.586827
O8    O     O_R   0.642340 0.590180 0.552210 -0.571761
O9    O     O_R   0.552220 0.142430 0.090190 -0.539426
O10   O     O_R   0.447830 0.038100 0.090230 -0.585610
O11   O     O_R   0.462030 0.052220 0.909860 -0.529357
O12   O     O_R   0.090150 0.052180 0.642350 -0.584413
O13   O     O_R   0.357640 0.947890 0.909900 -0.587888
O14   O     O_R   0.552170 0.962000 0.909870 -0.570470
O15   O     O_R   0.447780 0.857670 0.909910 -0.571002
O16   O     O_R   0.642360 0.052210 0.090200 -0.557060
O17   O     O_R   0.537970 0.947880 0.090240 -0.567297
O18   O     O_R   0.090190 0.037990 0.447830 -0.560052
O19   O     O_R   0.090170 0.142360 0.552190 -0.546889
O20   O     O_R   0.909850 0.947820 0.357650 -0.553608
O21   O     O_R   0.909820 0.052190 0.462010 -0.585381
O22   O     O_R   0.909830 0.857640 0.447810 -0.566267
O23   O     O_R   0.909810 0.962010 0.552170 -0.593960
O24   O     O_R   0.447770 0.590190 0.538000 -0.561070
C63   C     C_2   0.084064 0.242219 0.455926 0.916895
O25   O     O_2   0.038329 0.226655 0.382838 -0.490621
O26   O     O_R   0.057313 0.258708 0.516884 -0.710012
H21   H     H_    0.998062 0.253851 0.492137 0.350710
Br1   Br    Br    0.020998 0.756463 0.589871 -0.453403
C64   C     C_2   0.563588 0.582167 0.277955 0.928668
O27   O     O_2   0.506597 0.505320 0.227792 -0.576044
O28   O     O_R   0.543954 0.648590 0.282319 -0.737579
H22   H     H_    0.480339 0.624764 0.240642 0.347792
C65   C     C_2   0.804096 0.018053 0.082983 0.999602
O29   O     O_2   0.849734 0.096017 0.138124 -0.492098
O30   O     O_R   0.781292 0.990816 0.996352 -0.757789
H23   H     H_    0.806855 0.041575 0.987421 0.339634
C66   C     C_2   0.819502 0.852261 0.148495 0.886351
O31   O     O_2   0.837975 0.817377 0.096010 -0.530525
O32   O     O_R   0.779890 0.805769 0.181302 -0.751966
H24   H     H_    0.770612 0.744297 0.157289 0.345184
Br2   Br    Br    0.961557 0.026551 0.226298 -0.341671
C67   C     C_2   0.450366 0.573329 0.735781 0.899741
O33   O     O_2   0.396417 0.507871 0.664371 -0.588743
O34   O     O_R   0.487214 0.565096 0.808243 -0.726845
H25   H     H_    0.463893 0.501717 0.793140 0.352186
C68   C     C_2   0.453219 0.706753 0.872902 0.993830
O35   O     O_2   0.381320 0.644841 0.841836 -0.498424
O36   O     O_R   0.508247 0.756235 0.963246 -0.690766
H26   H     H_    0.566729 0.804715 0.982073 0.269178
Br3   Br    Br    0.423778 0.882981 0.688667 -0.514241
C69   C     C_2   0.387356 0.085182 0.614626 0.906503
O37   O     O_2   0.339010 0.043095 0.632763 -0.586322
O38   O     O_R   0.465033 0.084673 0.630635 -0.740456
H27   H     H_    0.473841 0.047531 0.657439 0.370570
C70   C     C_2   0.671104 0.390048 0.413106 0.951045
O39   O     O_2   0.717192 0.371540 0.457963 -0.509876
O40   O     O_R   0.696793 0.477739 0.438397 -0.788023
H28   H     H_    0.754808 0.519839 0.494808 0.355662
Br4   Br    Br    0.689803 0.245024 0.287404 -0.401602
Br5   Br    Br    0.269574 0.187275 0.226493 -0.374659
Br6   Br    Br    0.438784 0.237231 0.436619 -0.456398
Br7   Br    Br    0.216337 0.403243 0.470903 -0.317720
Br8   Br    Br    0.425162 0.196490 0.913239 -0.450271

loop_
_geom_bond_atom_site_label_1
_geom_bond_atom_site_label_2
_ccdc_geom_bond_type
C40   C47   S    
C16   C21   A    
C1    C8    S    
C19   C20   A    
Cu6   O15   S    
C38   O10   A    
O32   H24   S    
C32   Br2   S    
C57   C58   S    
C68   O35   D    
Cu4   O2    S    
C53   C54   A    
C52   C53   A    
C44   C67   S    
C26   C27   A    
C66   O31   D    
C41   O17   A    
C54   Br4   S    
C28   C29   A    
C69   O38   S    
C63   O25   D    
C5    C6    A    
C56   C69   S    
O26   H21   S    
C18   H3    S    
C6    C35   S    
C37   O7    A    
C22   C64   S    
C18   C19   A    
C23   C26   S    
C32   C66   S    
C42   C43   A    
C64   O27   D    
C3    C12   S    
C10   Br8   S    
C46   C68   S    
C54   C55   A    
C36   O5    A    
C38   C55   S    
C31   C32   S    
C45   C56   A    
C8    C9    A    
C66   O32   S    
C51   C57   A    
C13   C14   S    
C28   H10   S    
C61   Br6   S    
C36   C52   S    
Cu5   O11   S    
Cu4   O6    S    
C7    C13   A    
C35   O4    A    
C25   C32   S    
C7    C15   S    
C16   C24   S    
Cu3   O3    S    
C21   C22   S    
C27   H8    S    
C34   O23   A    
C19   H4    S    
C38   O9    A    
C1    O12   A    
C44   C46   A    
Cu5   O16   S    
C39   O13   A    
C64   O28   S    
C59   Br5   S    
C2    C45   A    
C23   O21   A    
Cu5   Cu6   S    
C33   C43   S    
C4    C63   S    
C7    C8    A    
Cu6   O13   S    
C70   O40   S    
C60   H18   S    
C16   C17   A    
Cu2   O23   S    
Cu4   O4    S    
C25   C26   A    
C56   C60   A    
C37   O8    A    
C60   C61   A    
C43   C44   A    
C59   H17   S    
Cu3   O24   S    
C29   C30   A    
C58   H16   S    
C39   O11   A    
C47   C48   A    
Cu2   O12   S    
Cu1   O1    S    
C17   C18   A    
C33   O24   A    
C42   C48   A    
C69   O37   D    
Cu1   O18   S    
C11   C39   S    
C42   C50   S    
C48   C49   S    
Cu3   Cu4   S    
C49   Br3   S    
O34   H25   S    
C34   O22   A    
C14   H1    S    
C22   C24   S    
C51   C59   S    
C17   C34   S    
C65   O30   S    
C3    C4    A    
O28   H22   S    
C50   H14   S    
Cu2   O19   S    
Cu4   O8    S    
O40   H28   S    
C9    C10   A    
C25   C30   A    
C68   O36   S    
C15   H2    S    
C46   C47   A    
C1    O1    A    
C29   C41   S    
C14   C15   S    
C31   C65   S    
C4    C5    A    
C67   O34   S    
C12   O19   A    
C41   O16   A    
C24   H7    S    
C31   H11   S    
O36   H26   S    
C5    Br7   S    
C49   H12   S    
C70   O39   D    
C53   C70   S    
C15   Br1   S    
C6    C62   A    
Cu1   O22   S    
C55   C57   A    
C2    C3    A    
C58   C59   S    
C14   H20   S    
C51   C52   A    
C33   O2    A    
C9    H19   S    
C40   O15   A    
C12   O18   A    
C20   C37   S    
C11   C13   A    
C24   H6    S    
Cu2   O21   S    
C30   C31   S    
C23   O20   A    
Cu3   O5    S    
C61   C62   A    
Cu6   O10   S    
C10   C11   A    
Cu5   O9    S    
C40   O14   A    
Cu1   Cu2   S    
C36   O6    A    
Cu3   O7    S    
C20   C21   A    
Cu5   O14   S    
C49   C50   S    
Cu6   O17   S    
C27   C28   A    
C65   O29   D    
O38   H27   S    
C45   H9    S    
C22   H5    S    
Cu1   O20   S    
C58   H15   S    
C2    C62   A    
C67   O33   D    
C50   H13   S    
O30   H23   S    
C63   O26   S    
C35   O3    A    
