data_mof_unit_65183.cif
_audit_creation_date              2012-10-26T18:37:14-0400
_audit_creation_method            fapswitch 2.2
_symmetry_space_group_name_H-M    P1
_symmetry_Int_Tables_number       1
_space_group_crystal_system       triclinic
_cell_length_a                    12.74281
_cell_length_b                    13.901989
_cell_length_c                    19.379987
_cell_angle_alpha                 90.222949
_cell_angle_beta                  93.052873
_cell_angle_gamma                 97.983364
_cell_volume                      3394.85345079

loop_
_atom_site_label
_atom_site_type_symbol
_atom_type_description
_atom_site_fract_x
_atom_site_fract_y
_atom_site_fract_z
_atom_type_partial_charge
C1    C     C_R   0.483542 0.315799 0.499284 0.548745
C2    C     C_2   0.971807 0.526385 0.519762 -0.159921
C3    C     C_1   0.854652 0.519126 0.514120 0.149334
C4    C     C_1   0.145348 0.480872 0.485888 0.149538
C5    C     C_R   0.500446 0.501062 0.367322 0.594838
C6    C     C_R   0.499541 0.499053 0.632745 0.596565
C7    C     C_R   0.430776 0.558229 0.254285 0.100531
C8    C     C_R   0.572068 0.446433 0.746731 0.062869
C9    C     C_R   0.428245 0.559548 0.181681 0.096497
C10   C     C_R   0.572629 0.445080 0.819634 0.098950
C11   C     C_R   0.496730 0.507207 0.145974 0.005635
C12   C     C_R   0.516458 0.684201 0.500705 0.548425
C13   C     C_R   0.499807 0.493192 0.854103 0.034844
C14   C     C_R   0.567782 0.456367 0.183756 -0.139271
C15   C     C_R   0.426180 0.540205 0.815647 -0.152841
C16   C     C_R   0.570243 0.454512 0.255848 0.046340
C17   C     C_R   0.425278 0.542259 0.743630 0.047064
C18   C     C_R   0.500887 0.504733 0.291484 0.066253
C19   C     C_R   0.498812 0.495936 0.708714 0.074546
C20   C     C_R   0.499053 0.495763 0.930153 0.370155
C21   C     C_R   0.497337 0.504823 0.069885 0.335235
C22   C     C_1   0.525903 0.787548 0.501040 -0.003135
C23   C     C_1   0.474096 0.212452 0.498923 -0.003405
C24   C     C_2   0.543580 0.978441 0.501662 -0.117875
C25   C     C_2   0.456419 0.021558 0.498262 -0.117636
C26   C     C_1   0.465551 0.125386 0.498601 -0.043308
C27   C     C_1   0.534448 0.874613 0.501340 -0.043062
C28   C     C_2   0.028192 0.473608 0.480254 -0.159328
Cu1   Cu    Cu3+1 0.395330 0.493960 0.495610 1.027091
Cu2   Cu    Cu3+1 0.604670 0.506040 0.504390 1.028074
H1    H     H_    0.620641 0.415945 0.157166 0.144480
H2    H     H_    0.629704 0.321882 0.723133 0.226606
H3    H     H_    0.298694 0.571474 0.118215 0.262767
H4    H     H_    0.401310 0.663939 0.112299 0.251459
H5    H     H_    0.722399 0.421143 0.848037 0.237068
H6    H     H_    0.630621 0.319723 0.843565 0.231266
H7    H     H_    0.718579 0.425169 0.279931 0.238214
H8    H     H_    0.624083 0.326800 0.275398 0.230067
H9    H     H_    0.274773 0.564422 0.718213 0.237264
H10   H     H_    0.364217 0.666448 0.723537 0.229056
H11   H     H_    0.370117 0.577652 0.841638 0.140323
H12   H     H_    0.377905 0.979194 0.495220 0.140453
H13   H     H_    0.622093 0.020805 0.504706 0.140016
H14   H     H_    0.014084 0.577014 0.557851 0.129750
H15   H     H_    0.985914 0.422979 0.442166 0.130548
H16   H     H_    0.284714 0.589184 0.274563 0.255412
H17   H     H_    0.381358 0.686375 0.277369 0.249944
H18   H     H_    0.721550 0.423301 0.726924 0.235362
N1    N     N_R   0.588605 0.497445 0.038483 -0.227827
N2    N     N_3   0.644706 0.392808 0.858692 -0.598229
N3    N     N_3   0.641194 0.398906 0.292673 -0.606760
N4    N     N_3   0.351445 0.594244 0.706179 -0.605501
N5    N     N_R   0.407772 0.502917 0.961552 -0.240292
N6    N     N_R   0.589506 0.493372 0.969954 -0.172089
N7    N     N_R   0.406908 0.506875 0.030070 -0.237478
N8    N     N_1   0.238030 0.484880 0.489000 -0.180189
N9    N     N_1   0.761970 0.515120 0.511000 -0.180148
N10   N     N_3   0.363600 0.613351 0.290724 -0.596714
N11   N     N_3   0.643654 0.395487 0.710783 -0.611284
N12   N     N_3   0.358116 0.617345 0.146053 -0.634073
O1    O     O_R   0.399110 0.356330 0.495750 -0.499403
O2    O     O_R   0.600890 0.643670 0.504250 -0.499780
O3    O     O_R   0.575900 0.366540 0.503170 -0.483557
O4    O     O_R   0.424100 0.633460 0.496830 -0.483511
O5    O     O_R   0.411580 0.494880 0.396430 -0.477618
O6    O     O_R   0.588420 0.505120 0.603570 -0.474033
O7    O     O_R   0.588360 0.505090 0.403850 -0.471491
O8    O     O_R   0.411640 0.494910 0.596150 -0.471827

loop_
_geom_bond_atom_site_label_1
_geom_bond_atom_site_label_2
_ccdc_geom_bond_type
C25   H12   S    
C24   C27   S    
C15   C17   A    
Cu1   Cu2   S    
H8    N3    S    
Cu1   N8    S    
Cu1   O8    S    
C12   O2    A    
C7    N10   S    
Cu2   O7    S    
C13   C20   S    
C16   N3    S    
C14   H1    S    
C5    O7    A    
C7    C18   A    
C7    C9    A    
C9    N12   S    
H5    N2    S    
C6    O8    A    
C2    C3    S    
Cu1   O4    S    
C8    N11   S    
C16   C18   A    
Cu2   O3    S    
C4    N8    T    
H17   N10   S    
H4    N12   S    
C6    C19   S    
C9    C11   A    
Cu2   O6    S    
Cu1   O5    S    
C21   N1    A    
C1    O3    A    
C17   N4    S    
C20   N6    A    
H7    N3    S    
C17   C19   A    
C1    C23   S    
H3    N12   S    
Cu1   O1    S    
C22   C27   T    
Cu2   O2    S    
C13   C15   A    
C12   O4    A    
C11   C14   A    
C14   C16   A    
C28   H15   S    
C8    C19   A    
N5    N7    A    
N1    N6    A    
C10   N2    S    
Cu2   N9    S    
C12   C22   S    
C6    O6    A    
H6    N2    S    
C24   C25   D    
C15   H11   S    
H18   N11   S    
C5    O5    A    
C23   C26   T    
C2    H14   S    
C21   N7    A    
C24   H13   S    
C2    C28   D    
C5    C18   S    
H2    N11   S    
C4    C28   S    
C25   C26   S    
H10   N4    S    
C11   C21   S    
C8    C10   A    
H16   N10   S    
H9    N4    S    
C20   N5    A    
C3    N9    T    
C10   C13   A    
C1    O1    A    
