data_mof_unit_46292.cif
_audit_creation_date              2012-10-26T18:27:29-0400
_audit_creation_method            fapswitch 2.2
_symmetry_space_group_name_H-M    P1
_symmetry_Int_Tables_number       1
_space_group_crystal_system       triclinic
_cell_length_a                    10.767674
_cell_length_b                    11.031235
_cell_length_c                    9.839297
_cell_angle_alpha                 111.451966
_cell_angle_beta                  98.036951
_cell_angle_gamma                 91.087769
_cell_volume                      1073.94974664

loop_
_atom_site_label
_atom_site_type_symbol
_atom_type_description
_atom_site_fract_x
_atom_site_fract_y
_atom_site_fract_z
_atom_type_partial_charge
C1    C     C_R   0.489012 0.253916 0.440155 0.540977
C2    C     C_2   0.483325 0.932094 0.487237 -0.141027
C3    C     C_2   0.511004 0.510310 0.081281 -0.007747
C4    C     C_R   0.262509 0.496332 0.500424 0.537910
C5    C     C_2   0.489025 0.489596 0.918676 -0.002525
C6    C     C_R   0.509051 0.746645 0.560262 0.523361
C7    C     C_R   0.736958 0.494784 0.497468 0.540994
C8    C     C_R   0.138835 0.314773 0.603750 -0.110722
C9    C     C_R   0.078177 0.228926 0.652148 -0.129652
C10   C     C_R   0.948521 0.226729 0.648459 -0.109671
C11   C     C_R   0.878733 0.310408 0.596394 -0.093115
C12   C     C_R   0.070255 0.402130 0.552780 0.027699
C13   C     C_R   0.938448 0.399891 0.548964 0.023818
C14   C     C_2   0.557358 0.975104 0.754544 0.205799
C15   C     C_R   0.128574 0.488673 0.500297 0.004433
C16   C     C_R   0.057588 0.566366 0.439476 -0.146509
C17   C     C_R   0.929092 0.564201 0.435779 -0.146672
C18   C     C_R   0.869797 0.484386 0.493004 0.005299
C19   C     C_2   0.482718 0.114123 0.406069 -0.141635
C20   C     C_2   0.474425 0.070058 0.513744 -0.130386
C21   C     C_2   0.514866 0.887977 0.597101 -0.007905
Cu1   Cu    Cu3+1 0.521920 0.521810 0.644910 0.937520
Cu2   Cu    Cu3+1 0.478080 0.478190 0.355090 0.950088
H1    H     H_    0.102429 0.630912 0.397007 0.128251
H2    H     H_    0.777840 0.302072 0.591046 0.153935
H3    H     H_    0.875991 0.627860 0.391801 0.122880
H4    H     H_    0.460549 0.864056 0.373150 0.137497
H5    H     H_    0.462854 0.137218 0.623018 0.194238
H6    H     H_    0.540338 0.942864 0.842579 0.126028
H7    H     H_    0.489175 0.047659 0.294491 0.107077
H8    H     H_    0.415160 0.417641 0.845771 0.142156
H9    H     H_    0.584688 0.582471 0.154248 0.143173
H10   H     H_    0.625029 0.621518 0.934281 0.203735
H11   H     H_    0.375720 0.377627 0.065493 0.207101
H12   H     H_    0.239024 0.309841 0.604341 0.123663
H13   H     H_    0.131844 0.162635 0.690870 0.112178
H14   H     H_    0.901536 0.158696 0.684270 0.149613
N1    N     N_2   0.445130 0.445430 0.137370 -0.344090
N2    N     N_2   0.554930 0.554500 0.862630 -0.348855
O1    O     O_R   0.511700 0.332330 0.577400 -0.502614
O2    O     O_R   0.474680 0.295500 0.332650 -0.481975
O3    O     O_R   0.338160 0.518420 0.622400 -0.504468
O4    O     O_R   0.301140 0.481590 0.377650 -0.490851
O5    O     O_R   0.525320 0.704500 0.667350 -0.501612
O6    O     O_R   0.488300 0.667670 0.422600 -0.503712
O7    O     O_R   0.698860 0.518410 0.622350 -0.492623
O8    O     O_R   0.661840 0.481580 0.377600 -0.490245
O9    O     O_2   0.617519 0.079509 0.787451 -0.520813

loop_
_geom_bond_atom_site_label_1
_geom_bond_atom_site_label_2
_ccdc_geom_bond_type
Cu1   O3    S    
C9    H13   S    
C2    H4    S    
Cu2   O6    S    
C4    O4    A    
Cu2   N1    S    
C9    C10   A    
C19   C20   D    
Cu2   O2    S    
C12   C15   A    
C8    C12   A    
C7    C18   S    
Cu1   O1    S    
C2    C21   D    
C17   C18   A    
C19   H7    S    
C16   H1    S    
C6    O5    A    
C11   C13   A    
H10   N2    S    
C4    O3    A    
C13   C18   A    
C4    C15   S    
C10   H14   S    
C17   H3    S    
C14   C21   S    
C1    O2    A    
C6    O6    A    
C5    N2    D    
C3    H9    S    
C1    C19   S    
Cu2   O8    S    
C10   C11   A    
C11   H2    S    
C14   H6    S    
C2    C20   S    
C15   C16   A    
C7    O7    A    
C3    C5    S    
Cu2   O4    S    
C12   C13   A    
Cu1   Cu2   S    
C8    C9    A    
C14   O9    D    
C20   H5    S    
C1    O1    A    
Cu1   O7    S    
H11   N1    S    
C6    C21   S    
Cu1   N2    S    
Cu1   O5    S    
C3    N1    D    
C16   C17   A    
C5    H8    S    
C8    H12   S    
C7    O8    A    
