data_mof_unit_55366.cif
_audit_creation_date              2012-12-10T17:33:54-0500
_audit_creation_method            fapswitch 2.2
_symmetry_space_group_name_H-M    P1
_symmetry_Int_Tables_number       1
_space_group_crystal_system       triclinic
_cell_length_a                    15.417601
_cell_length_b                    15.487867
_cell_length_c                    16.035517
_cell_angle_alpha                 77.699399
_cell_angle_beta                  97.493346
_cell_angle_gamma                 111.377217
_cell_volume                      3477.90104309

loop_
_atom_site_label
_atom_site_type_symbol
_atom_type_description
_atom_site_fract_x
_atom_site_fract_y
_atom_site_fract_z
_atom_type_partial_charge
C1    C     C_R   0.747432 0.542857 0.533734 0.586494
C2    C     C_R   0.018091 0.493737 0.456002 -0.036117
C3    C     C_R   0.116294 0.519135 0.457517 -0.087309
C4    C     C_R   0.252955 0.462426 0.463395 0.571045
C5    C     C_R   0.980738 0.542701 0.498997 -0.002315
C6    C     C_R   0.039080 0.631552 0.519035 -0.121506
C7    C     C_R   0.133351 0.665964 0.501541 -0.062158
C8    C     C_R   0.172015 0.610762 0.471981 0.396682
C9    C     C_R   0.887606 0.505298 0.524258 0.230004
C10   C     C_R   0.904675 0.655847 0.559089 0.347227
C11   C     C_R   0.153997 0.454919 0.438456 -0.046815
C12   C     C_1   0.523961 0.527400 0.110060 -0.014089
C13   C     C_R   0.413461 0.007843 0.665567 0.377311
C14   C     C_R   0.436981 0.146479 0.554099 0.015710
C15   C     C_R   0.629144 0.916704 0.396393 0.359928
C16   C     C_R   0.454790 0.248251 0.533610 0.548255
C17   C     C_R   0.652709 0.013660 0.387967 0.441682
C18   C     C_R   0.611727 0.050220 0.437602 0.333319
C19   C     C_R   0.544716 0.989337 0.495381 -0.055741
C20   C     C_R   0.541072 0.894758 0.519806 -0.152791
C21   C     C_R   0.491646 0.022785 0.537907 -0.037322
C22   C     C_R   0.457162 0.970744 0.618119 -0.070282
C23   C     C_1   0.471859 0.475076 0.887755 -0.020654
C24   C     C_R   0.469988 0.884281 0.650631 0.423452
C25   C     C_R   0.513431 0.847277 0.603370 0.307524
C26   C     C_R   0.467444 0.103403 0.500319 0.255235
C27   C     C_R   0.412674 0.099612 0.637943 0.221950
C28   C     C_R   0.547846 0.752150 0.469782 0.585371
C29   C     C_R   0.573522 0.855348 0.462887 -0.045598
C30   C     C_R   0.485453 0.485114 0.723899 0.482862
C31   C     C_R   0.514509 0.515079 0.275506 0.499896
C32   C     C_1   0.479123 0.479018 0.813176 -0.021534
C33   C     C_2   0.461383 0.470949 0.977480 0.280128
C34   C     C_1   0.519719 0.522199 0.185566 -0.019971
C35   C     C_2   0.529096 0.532786 0.019237 0.290600
C36   C     C_3   0.624973 0.689012 0.985016 -0.013396
C37   C     C_3   0.553603 0.728353 0.930230 -0.264089
C38   C     C_3   0.581408 0.833970 0.927795 -0.442047
C39   C     C_3   0.444865 0.163224 0.759666 0.040854
C40   C     C_3   0.409159 0.210038 0.815726 -0.253830
C41   C     C_3   0.478771 0.238300 0.890665 -0.483106
C42   C     C_3   0.492665 0.186330 0.360646 0.059200
C43   C     C_3   0.433930 0.225310 0.289124 -0.277446
C44   C     C_3   0.493084 0.288503 0.215332 -0.483821
C45   C     C_R   0.000973 0.686535 0.552293 0.281137
C46   C     C_3   0.630928 0.801564 0.676468 -0.005973
C47   C     C_3   0.661757 0.716535 0.709620 -0.229226
C48   C     C_3   0.762378 0.746231 0.746767 -0.447503
C49   C     C_3   0.307538 0.362001 0.968564 -0.007036
C50   C     C_3   0.252193 0.427590 0.931577 -0.264257
C51   C     C_3   0.166761 0.379433 0.876629 -0.476800
C52   C     C_3   0.101798 0.769254 0.649354 0.020068
C53   C     C_3   0.043453 0.775264 0.716882 -0.250925
C54   C     C_3   0.097495 0.779963 0.803557 -0.466849
C55   C     C_3   0.831824 0.358479 0.606842 0.019587
C56   C     C_R   0.848145 0.565478 0.545446 -0.012166
C57   C     C_3   0.910805 0.317966 0.622755 -0.270826
C58   C     C_3   0.904370 0.251779 0.708903 -0.475233
C59   C     C_3   0.154131 0.346795 0.289368 0.059114
C60   C     C_3   0.199571 0.281031 0.270504 -0.245449
C61   C     C_3   0.238765 0.314100 0.182184 -0.479172
C62   C     C_3   0.806354 0.358603 0.346837 0.116757
C63   C     C_3   0.792897 0.368901 0.249161 -0.255633
C64   C     C_3   0.737685 0.275076 0.220978 -0.403113
C65   C     C_R   0.094793 0.381693 0.395584 0.231314
C66   C     C_R   0.001283 0.372419 0.374216 0.343628
C67   C     C_R   0.961203 0.428643 0.403617 0.285349
F1    F     F_    0.260290 0.653617 0.445742 -0.612474
F2    F     F_    0.443146 0.835954 0.729711 -0.584971
F3    F     F_    0.375170 0.957422 0.740386 -0.592129
F4    F     F_    0.664613 0.883644 0.341902 -0.553234
F5    F     F_    0.647841 0.144062 0.438777 -0.678087
F6    F     F_    0.716300 0.072457 0.331713 -0.579244
F7    F     F_    0.865955 0.714708 0.578260 -0.628377
F8    F     F_    0.952066 0.308842 0.323584 -0.647582
H1    H     H_    0.177967 0.736292 0.510332 0.183470
H2    H     H_    0.454270 0.098919 0.799947 0.185621
H3    H     H_    0.397259 0.273670 0.776834 0.177583
H4    H     H_    0.341574 0.160168 0.840918 0.178108
H5    H     H_    0.492707 0.175763 0.929659 0.155047
H6    H     H_    0.449876 0.268759 0.932224 0.156700
H7    H     H_    0.545350 0.291883 0.866880 0.165257
H8    H     H_    0.534462 0.158728 0.329439 0.196727
H9    H     H_    0.540048 0.244438 0.393527 0.153063
H10   H     H_    0.377526 0.166247 0.264302 0.186788
H11   H     H_    0.401249 0.266279 0.314706 0.200115
H12   H     H_    0.695367 0.731831 0.961596 0.161517
H13   H     H_    0.553240 0.345377 0.238871 0.146642
H14   H     H_    0.449736 0.320539 0.167441 0.198830
H15   H     H_    0.519347 0.246517 0.183572 0.150083
H16   H     H_    0.637314 0.839334 0.730084 0.143989
H17   H     H_    0.678416 0.849541 0.626024 0.126966
H18   H     H_    0.615626 0.667659 0.760128 0.179924
H19   H     H_    0.655570 0.678534 0.656363 0.176261
H20   H     H_    0.810301 0.794746 0.697303 0.201461
H21   H     H_    0.782709 0.682957 0.769405 0.167066
H22   H     H_    0.769425 0.781951 0.801745 0.133118
H23   H     H_    0.628062 0.697067 0.052792 0.148768
H24   H     H_    0.261055 0.298455 0.008615 0.152966
H25   H     H_    0.327123 0.334969 0.917632 0.124401
H26   H     H_    0.229216 0.448278 0.984825 0.168602
H27   H     H_    0.296997 0.492610 0.891712 0.174899
H28   H     H_    0.188401 0.359624 0.822122 0.154204
H29   H     H_    0.128141 0.428446 0.850884 0.150291
H30   H     H_    0.119450 0.315217 0.915420 0.147729
H31   H     H_    0.168497 0.830098 0.646660 0.197497
H32   H     H_    0.121015 0.704563 0.668757 0.109361
H33   H     H_    0.023653 0.839140 0.696257 0.209876
H34   H     H_    0.548403 0.715403 0.863963 0.207418
H35   H     H_    0.978644 0.712299 0.723777 0.177600
H36   H     H_    0.116940 0.716087 0.825922 0.158907
H37   H     H_    0.053289 0.783738 0.851110 0.148111
H38   H     H_    0.161731 0.843614 0.799037 0.208650
H39   H     H_    0.764070 0.299010 0.611575 0.177014
H40   H     H_    0.834974 0.398719 0.657949 0.114270
H41   H     H_    0.907056 0.278668 0.571118 0.196237
H42   H     H_    0.979273 0.376251 0.622061 0.149758
H43   H     H_    0.909364 0.290102 0.761552 0.143949
H44   H     H_    0.962705 0.224098 0.718645 0.159155
H45   H     H_    0.483778 0.691919 0.956901 0.166061
H46   H     H_    0.837372 0.191404 0.710875 0.155531
H47   H     H_    0.205255 0.420324 0.279193 0.126801
H48   H     H_    0.092410 0.343340 0.243895 0.181339
H49   H     H_    0.256867 0.278508 0.319553 0.201677
H50   H     H_    0.147118 0.208722 0.274224 0.195789
H51   H     H_    0.182501 0.318038 0.132260 0.146274
H52   H     H_    0.268981 0.263302 0.169926 0.157999
H53   H     H_    0.294523 0.384519 0.178460 0.189764
H54   H     H_    0.740316 0.354664 0.370822 0.167265
H55   H     H_    0.816180 0.291486 0.379241 0.242996
H56   H     H_    0.587136 0.848669 0.993523 0.160417
H57   H     H_    0.755390 0.419240 0.224414 0.144862
H58   H     H_    0.861658 0.398458 0.220095 0.216404
H59   H     H_    0.780589 0.229161 0.234051 0.271426
H60   H     H_    0.719490 0.287215 0.151205 0.130625
H61   H     H_    0.672493 0.239380 0.255247 0.174870
H62   H     H_    0.527622 0.859876 0.889363 0.228195
H63   H     H_    0.649289 0.872537 0.897974 0.136317
H64   H     H_    0.513974 0.212553 0.737010 0.142619
O1    O     O_3   0.500000 0.500000 0.500000 -0.465661
O2    O     O_R   0.531650 0.442400 0.698530 -0.557195
O3    O     O_R   0.575100 0.575080 0.315570 -0.515415
O4    O     O_R   0.444210 0.533510 0.670310 -0.509562
O5    O     O_R   0.449040 0.449000 0.315590 -0.572580
O6    O     O_3   0.607451 0.594880 0.976568 -0.595514
O7    O     O_3   0.379868 0.141018 0.689588 -0.536183
O8    O     O_3   0.433057 0.110009 0.415512 -0.552130
O9    O     O_3   0.537109 0.769960 0.643986 -0.508835
O10   O     O_3   0.384936 0.405820 0.022045 -0.621744
O11   O     O_3   0.055069 0.775848 0.567404 -0.515949
O12   O     O_R   0.412970 0.287310 0.471540 -0.538294
O13   O     O_3   0.833164 0.411890 0.523260 -0.542605
O14   O     O_3   0.127384 0.317231 0.374787 -0.497667
O15   O     O_3   0.877373 0.440367 0.368360 -0.536636
O16   O     O_R   0.593360 0.719010 0.431760 -0.471344
O17   O     O_R   0.690770 0.475890 0.582290 -0.552651
O18   O     O_R   0.302900 0.517790 0.514410 -0.475320
O19   O     O_R   0.716410 0.590800 0.471470 -0.495256
O20   O     O_R   0.289920 0.415510 0.431830 -0.521623
O21   O     O_R   0.513390 0.298480 0.582330 -0.552387
O22   O     O_R   0.480280 0.695210 0.514370 -0.457301
Zn1   Zn    Zn3+2 0.414470 0.414440 0.430940 0.932652
Zn2   Zn    Zn3+2 0.557950 0.430400 0.589240 0.922999
Zn3   Zn    Zn3+2 0.433010 0.560580 0.548920 1.030052
Zn4   Zn    Zn3+2 0.594570 0.594580 0.430900 1.031432

loop_
_geom_bond_atom_site_label_1
_geom_bond_atom_site_label_2
_ccdc_geom_bond_type
C53   H35   S    
C21   C26   A    
C64   H61   S    
C9    O13   S    
C6    C45   A    
C16   O21   A    
C62   H55   S    
C19   C20   A    
C41   H5    S    
C59   O14   S    
C7    C8    A    
C53   C54   S    
O1    Zn2   S    
C48   H22   S    
C28   C29   S    
C62   C63   S    
C30   O2    A    
C67   O15   S    
C63   H58   S    
C60   H50   S    
C19   C21   A    
C1    C56   S    
O16   Zn4   S    
C18   C19   A    
C5    C6    A    
C4    O20   A    
C46   H17   S    
C13   F3    S    
C66   F8    S    
O1    Zn1   S    
C54   H38   S    
C58   H43   S    
C45   O11   S    
C35   O6    S    
C31   O5    A    
C60   H49   S    
C65   O14   S    
C54   H36   S    
C47   H19   S    
C46   O9    S    
C4    O18   A    
C52   H32   S    
C23   C33   S    
C18   F5    S    
C28   O22   A    
C28   O16   A    
C61   H51   S    
C14   C27   A    
C61   H53   S    
C10   C56   A    
C37   H34   S    
C59   H47   S    
C66   C67   A    
C64   H60   S    
C52   H31   S    
C59   C60   S    
C21   C22   A    
C17   F6    S    
C62   H54   S    
C42   O8    S    
C24   F2    S    
C15   C29   A    
C57   H41   S    
C64   H59   S    
C20   C29   A    
C36   H12   S    
C59   H48   S    
C39   H64   S    
C31   C34   S    
C43   H10   S    
O21   Zn2   S    
C55   O13   S    
C42   H9    S    
C24   C25   A    
O17   Zn2   S    
C3    C8    A    
C48   H20   S    
C39   C40   S    
C46   H16   S    
C50   C51   S    
C51   H29   S    
C30   O4    A    
C62   O15   S    
C60   C61   S    
C4    C11   S    
C1    O17   A    
C43   C44   S    
C5    C9    A    
C37   C38   S    
C49   H24   S    
C47   C48   S    
C51   H30   S    
O12   Zn1   S    
C41   H6    S    
C10   C45   A    
C17   C18   A    
C38   H63   S    
O20   Zn1   S    
C54   H37   S    
C61   H52   S    
C9    C56   A    
C63   H57   S    
C14   C26   A    
C12   C35   S    
O18   Zn3   S    
C7    H1    S    
C40   H3    S    
C40   C41   S    
O2    Zn2   S    
C55   C57   S    
C22   C24   A    
C2    C5    A    
C42   C43   S    
C12   C34   T    
C39   H2    S    
O4    Zn3   S    
O22   Zn3   S    
C44   H15   S    
C52   C53   S    
C40   H4    S    
C57   H42   S    
O1    Zn4   S    
C15   C17   A    
C46   C47   S    
C36   C37   S    
C58   H46   S    
C48   H21   S    
O5    Zn1   S    
C43   H11   S    
C42   H8    S    
C50   H27   S    
C6    C7    A    
C55   H39   S    
O1    Zn3   S    
C15   F4    S    
C49   O10   S    
C38   H56   S    
C8    F1    S    
C2    C3    A    
C33   O10   S    
C23   C32   T    
C49   H25   S    
C30   C32   S    
C10   F7    S    
C53   H33   S    
C1    O19   A    
C57   C58   S    
C37   H45   S    
C55   H40   S    
C31   O3    A    
C27   O7    S    
C41   H7    S    
C39   O7    S    
C58   H44   S    
C33   C35   D    
C38   H62   S    
C13   C22   A    
C16   O12   A    
C14   C16   S    
C65   C66   A    
C26   O8    S    
C47   H18   S    
C3    C11   A    
C63   C64   S    
C2    C67   A    
C36   O6    S    
C50   H26   S    
C52   O11   S    
C49   C50   S    
C20   C25   A    
C13   C27   A    
C36   H23   S    
C44   H13   S    
C25   O9    S    
C51   H28   S    
C44   H14   S    
C11   C65   A    
O19   Zn4   S    
O3    Zn4   S    
