data_mof_unit_57600.cif
_audit_creation_date              2012-12-11T16:58:20-0500
_audit_creation_method            fapswitch 2.2
_symmetry_space_group_name_H-M    P1
_symmetry_Int_Tables_number       1
_space_group_crystal_system       triclinic
_cell_length_a                    16.918346
_cell_length_b                    7.254224
_cell_length_c                    16.746298
_cell_angle_alpha                 89.996
_cell_angle_beta                  100.190612
_cell_angle_gamma                 90.004222
_cell_volume                      2022.84170061

loop_
_atom_site_label
_atom_site_type_symbol
_atom_type_description
_atom_site_fract_x
_atom_site_fract_y
_atom_site_fract_z
_atom_type_partial_charge
O1    O     O_R   0.413450 0.494370 0.415710 -0.537487
O2    O     O_R   0.586550 0.994370 0.584290 -0.537493
O3    O     O_R   0.578420 0.819350 0.429360 -0.536279
O4    O     O_R   0.421580 0.319350 0.570640 -0.536251
C1    C     C_R   0.606475 0.657073 0.415789 0.726014
C2    C     C_R   0.393537 0.157052 0.584223 0.726045
O5    O     O_R   0.413570 0.823780 0.406240 -0.541779
O6    O     O_R   0.586430 0.323780 0.593760 -0.541788
O7    O     O_R   0.420530 0.998740 0.561000 -0.535599
O8    O     O_R   0.579470 0.498740 0.439000 -0.535615
C3    C     C_R   0.386571 0.655352 0.383202 0.695913
C4    C     C_R   0.613429 0.155352 0.616797 0.695876
O9    O     O_3   0.502480 0.662320 0.550800 -0.389026
O10   O     O_3   0.497520 0.162320 0.449200 -0.389059
V1    V     V_3+5 0.499540 0.935370 0.490580 1.343337
V2    V     V_3+5 0.500460 0.435370 0.509420 1.343356
C5    C     C_R   0.690880 0.998594 0.741429 0.121747
C6    C     C_R   0.309121 0.498610 0.258568 0.121744
C7    C     C_R   0.680279 0.147864 0.687353 -0.143847
C8    C     C_R   0.319721 0.647865 0.312646 -0.143850
C9    C     C_R   0.734574 0.296279 0.705148 -0.187495
C10   C     C_R   0.265426 0.796269 0.294853 -0.187566
H1    H     H_    0.727945 0.418123 0.667288 0.133886
H2    H     H_    0.272055 0.918101 0.332715 0.133885
C11   C     C_R   0.800996 0.284795 0.769276 -0.158795
C12   C     C_R   0.199004 0.784785 0.230726 -0.158796
H3    H     H_    0.842627 0.399230 0.779117 0.141190
H4    H     H_    0.157373 0.899208 0.220886 0.141192
C13   C     C_R   0.815951 0.123319 0.816823 -0.103704
C14   C     C_R   0.184050 0.623320 0.183177 -0.103704
C15   C     C_R   0.757222 0.985750 0.803234 0.073479
C16   C     C_R   0.242778 0.485765 0.196763 0.073486
C17   C     C_3   0.762417 0.781335 0.796005 -0.412872
C18   C     C_3   0.237584 0.281346 0.203990 -0.412849
C19   C     C_3   0.687828 0.794108 0.729406 -0.046981
C20   C     C_3   0.312171 0.294123 0.270590 -0.046969
H5    H     H_    0.753532 0.708571 0.852085 0.171869
H6    H     H_    0.246469 0.208606 0.147908 0.171867
H7    H     H_    0.817049 0.738323 0.772478 0.159776
H8    H     H_    0.182951 0.238308 0.227516 0.159777
H9    H     H_    0.700296 0.753353 0.668804 0.111099
H10   H     H_    0.299702 0.253347 0.331191 0.111096
C21   C     C_R   0.326270 0.159537 0.630926 -0.126359
C22   C     C_R   0.673740 0.659629 0.369080 -0.126421
C23   C     C_R   0.166905 0.112949 0.862258 -0.074953
C24   C     C_R   0.833100 0.612873 0.137753 -0.075055
C25   C     C_R   0.285590 0.968800 0.825827 -0.138649
C26   C     C_R   0.714553 0.468351 0.174340 -0.138555
C27   C     C_R   0.230560 0.986595 0.878490 -0.152625
C28   C     C_R   0.769554 0.486190 0.121648 -0.152477
C29   C     C_R   0.158884 0.221055 0.791818 -0.163398
C30   C     C_R   0.841036 0.721273 0.208094 -0.163443
C31   C     C_R   0.212849 0.200942 0.736396 0.069522
C32   C     C_R   0.787103 0.701127 0.263547 0.069546
C33   C     C_R   0.277163 0.073906 0.754493 0.118436
C34   C     C_R   0.722900 0.573755 0.245578 0.118489
C35   C     C_R   0.332566 0.053439 0.701688 -0.274133
C36   C     C_R   0.667524 0.553252 0.298411 -0.274204
C37   C     C_R   0.260165 0.283292 0.610286 0.071459
C38   C     C_R   0.739754 0.783702 0.389605 0.071488
C39   C     C_R   0.203233 0.301725 0.662971 0.239230
C40   C     C_R   0.796651 0.802196 0.336885 0.239202
H11   H     H_    0.382885 0.959689 0.717374 0.131489
H12   H     H_    0.617283 0.459243 0.282815 0.131551
H13   H     H_    0.334252 0.870505 0.840390 0.112554
H14   H     H_    0.665979 0.369791 0.159876 0.112545
H15   H     H_    0.237358 0.900166 0.932044 0.114472
H16   H     H_    0.762820 0.399531 0.068173 0.114537
H17   H     H_    0.108637 0.315098 0.779909 0.169875
H18   H     H_    0.891199 0.815576 0.219907 0.169951
O11   O     O_R   0.920630 0.775410 0.061150 -0.535050
O12   O     O_R   0.079370 0.275410 0.938850 -0.535034
O13   O     O_R   0.086500 0.441450 0.093690 -0.535879
O14   O     O_R   0.913500 0.941450 0.906310 -0.535888
C41   C     C_R   0.113796 0.610269 0.116356 0.692568
C42   C     C_R   0.886204 0.110268 0.883644 0.692519
O15   O     O_R   0.921670 0.445960 0.070740 -0.532837
O16   O     O_R   0.078330 0.945960 0.929260 -0.532825
O17   O     O_R   0.913380 0.271130 0.915780 -0.541382
O18   O     O_R   0.086620 0.771130 0.084220 -0.541378
C43   C     C_R   0.895795 0.613220 0.085994 0.687803
C44   C     C_R   0.104203 0.113237 0.914005 0.687770
O19   O     O_3   0.997500 0.603030 0.949220 -0.374664
O20   O     O_3   0.002500 0.103030 0.050780 -0.374660
V3    V     V_3+5 0.000470 0.329940 0.009420 1.427563
V4    V     V_3+5 0.999530 0.829940 0.990580 1.427533
Br1   Br    Br    0.110352 0.460097 0.632906 -0.557897
Br2   Br    Br    0.889402 0.961049 0.366788 -0.557976
C45   C     C_3   0.611718 0.700919 0.750200 -0.292513
C46   C     C_3   0.581095 0.779850 0.824056 -0.769605
H19   H     H_    0.627264 0.768824 0.879786 0.227054
H20   H     H_    0.563152 0.926340 0.813619 0.220122
H21   H     H_    0.527376 0.700977 0.833870 0.209071
H22   H     H_    0.562728 0.714655 0.697145 0.203801
H23   H     H_    0.623663 0.551384 0.760085 0.183727
C47   C     C_3   0.388284 0.200967 0.249802 -0.292536
C48   C     C_3   0.418897 0.279888 0.175932 -0.769620
H24   H     H_    0.372733 0.268784 0.120205 0.227056
H25   H     H_    0.436819 0.426398 0.186342 0.220159
H26   H     H_    0.472628 0.201065 0.166135 0.209058
H27   H     H_    0.437277 0.214747 0.302852 0.203782
H28   H     H_    0.376347 0.051423 0.239936 0.183740
C49   C     C_3   0.247879 0.390625 0.530782 -0.311720
C50   C     C_3   0.272337 0.593261 0.543717 -0.624788
H29   H     H_    0.237394 0.663066 0.584980 0.250907
H30   H     H_    0.336996 0.605811 0.570042 0.227504
H31   H     H_    0.261021 0.666437 0.484581 0.191160
H32   H     H_    0.281892 0.328882 0.486562 0.150924
H33   H     H_    0.184127 0.381965 0.500365 0.222676
C51   C     C_3   0.751995 0.891298 0.469034 -0.311746
C52   C     C_3   0.727390 0.093810 0.455971 -0.624569
H34   H     H_    0.762308 0.163670 0.414694 0.250862
H35   H     H_    0.662734 0.106064 0.429603 0.227529
H36   H     H_    0.738619 0.167148 0.515066 0.191096
H37   H     H_    0.718055 0.829547 0.513317 0.151016
H38   H     H_    0.815761 0.882950 0.499428 0.222666

loop_
_geom_bond_atom_site_label_1
_geom_bond_atom_site_label_2
_ccdc_geom_bond_type
O4    V2    S    
C47   H28   S    
C20   H10   S    
C52   H34   S    
O1    C3    A    
C42   O17   A    
O2    C4    A    
C2    O7    A    
C50   H30   S    
O12   V3    S    
C25   C27   A    
C13   C42   S    
O5    C3    A    
C17   H7    S    
O14   C42   A    
C18   H8    S    
C7    C9    A    
C23   C29   A    
C24   C43   S    
C48   H24   S    
C38   C40   A    
C45   H22   S    
O16   C44   A    
C51   C52   S    
O18   V4    S    
C39   Br1   S    
C17   C19   S    
C31   C39   A    
C23   C44   S    
C22   C36   A    
C15   C17   S    
C49   H32   S    
O15   C43   A    
C41   O18   A    
C18   C20   S    
C21   C37   A    
O16   V4    S    
C26   C28   A    
O15   V3    S    
O6    V2    S    
C47   H27   S    
C11   C13   A    
O13   C41   A    
C50   H29   S    
C48   H25   S    
C30   C32   A    
C35   H11   S    
C31   C33   A    
C36   H12   S    
C32   C34   A    
C3    C8    S    
C37   C39   A    
C30   H18   S    
O20   V3    S    
O4    C2    A    
C32   C40   A    
C40   Br2   S    
C17   H5    S    
C29   C31   A    
C16   C18   S    
C45   H23   S    
O11   V4    S    
C20   C47   S    
C46   H20   S    
C23   C27   A    
O6    C4    A    
C47   C48   S    
C52   H35   S    
O1    V2    S    
O14   V4    S    
O2    V1    S    
O13   V3    S    
C19   C45   S    
C1    C22   S    
C8    C10   A    
C12   C14   A    
C2    C21   S    
C33   C35   A    
C5    C15   A    
C10   H2    S    
C6    C16   A    
C51   H38   S    
O17   V3    S    
C48   H26   S    
O3    V1    S    
C46   H21   S    
C25   C33   A    
C26   C34   A    
C9    C11   A    
C27   H15   S    
C18   H6    S    
O3    C1    A    
C11   H3    S    
C5    C19   S    
C24   C28   A    
C12   H4    S    
C49   H33   S    
C37   C49   S    
C9    H1    S    
O7    V1    S    
C1    O8    A    
C13   C15   A    
O8    V2    S    
C24   C30   A    
C14   C16   A    
C14   C41   S    
C46   H19   S    
C28   H16   S    
C22   C38   A    
C4    C7    S    
O5    V1    S    
C5    C7    A    
C34   C36   A    
C52   H36   S    
C6    C8    A    
C19   H9    S    
C38   C51   S    
C21   C35   A    
O19   V4    S    
C10   C12   A    
O9    V2    S    
C49   C50   S    
O10   V1    S    
C29   H17   S    
C26   H14   S    
C45   C46   S    
C6    C20   S    
C51   H37   S    
C25   H13   S    
C50   H31   S    
O12   C44   A    
O11   C43   A    
