data_mof_unit_66858.cif
_audit_creation_date              2013-03-05T15:57:21-0500
_audit_creation_method            fapswitch 2.2
_symmetry_space_group_name_H-M    P1
_symmetry_Int_Tables_number       1
_space_group_crystal_system       triclinic
_cell_length_a                    17.43559
_cell_length_b                    19.196886
_cell_length_c                    8.699045
_cell_angle_alpha                 89.249244
_cell_angle_beta                  101.780291
_cell_angle_gamma                 89.574009
_cell_volume                      2849.9261419

loop_
_atom_site_label
_atom_site_type_symbol
_atom_site_description
_atom_site_fract_x
_atom_site_fract_y
_atom_site_fract_z
_atom_type_partial_charge
P1    P     P_3+3 0.834140 0.419320 0.003900 0.499876
P2    P     P_3+3 0.834140 0.580680 0.503900 0.485539
P3    P     P_3+3 0.334140 0.919320 0.003900 0.502007
P4    P     P_3+3 0.334140 0.080680 0.503900 0.488157
O1    O     O_2   0.841960 0.394640 0.833410 -0.288207
O2    O     O_2   0.841960 0.605360 0.333410 -0.278951
O3    O     O_2   0.341960 0.894640 0.833410 -0.285955
O4    O     O_2   0.341960 0.105360 0.333410 -0.276209
O5    O     O_3   0.907950 0.463080 0.102990 -0.391116
O6    O     O_3   0.907950 0.536920 0.602990 -0.411787
O7    O     O_3   0.407950 0.963080 0.102990 -0.392788
O8    O     O_3   0.407950 0.036920 0.602990 -0.413025
O9    O     O_3   0.972780 0.329600 0.629720 -0.421604
O10   O     O_3   0.972780 0.670400 0.129720 -0.402001
O11   O     O_3   0.472780 0.829600 0.629720 -0.422008
O12   O     O_3   0.472780 0.170400 0.129720 -0.366652
O13   O     O_2   0.836893 0.278861 0.691002 -0.364498
O14   O     O_2   0.831361 0.717332 0.169033 -0.324224
O15   O     O_2   0.339081 0.775979 0.694165 -0.366327
O16   O     O_2   0.330945 0.216093 0.171534 -0.328027
O17   O     O_3   0.750462 0.466749 0.921581 -0.582663
O18   O     O_3   0.764072 0.518597 0.438514 -0.596788
O19   O     O_3   0.251231 0.967268 0.920590 -0.576087
O20   O     O_3   0.264227 0.018089 0.439167 -0.596669
O21   O     O_3   0.924800 0.188623 0.594564 -0.590453
O22   O     O_3   0.917737 0.815145 0.102764 -0.626887
O23   O     O_3   0.428442 0.688093 0.592615 -0.589887
O24   O     O_3   0.415453 0.313786 0.102556 -0.614271
H1    H     H_    0.955408 0.215311 0.835922 0.130323
H2    H     H_    0.926779 0.792349 0.341932 0.059053
H3    H     H_    0.456376 0.712739 0.835612 0.128922
H4    H     H_    0.437395 0.288012 0.342168 0.089784
C1    C     C_3   0.936246 0.105882 0.800137 -1.111652
C2    C     C_3   0.954389 0.897716 0.303138 -0.882981
C3    C     C_3   0.438157 0.603559 0.794803 -1.115654
C4    C     C_3   0.455216 0.396012 0.299637 -0.973020
H5    H     H_    0.470014 0.586760 0.912777 0.265400
H6    H     H_    0.493764 0.406516 0.413548 0.322163
H7    H     H_    0.969202 0.089766 0.917627 0.267637
H8    H     H_    0.991068 0.907010 0.420059 0.313563
H9    H     H_    0.872802 0.109161 0.800546 0.265855
H10   H     H_    0.893709 0.912403 0.308946 0.203954
H11   H     H_    0.374469 0.606365 0.792970 0.266979
H12   H     H_    0.394519 0.408214 0.310613 0.225259
P5    P     P_3+3 0.165830 0.418670 0.685610 0.413862
P6    P     P_3+3 0.165830 0.581330 0.185610 0.439836
P7    P     P_3+3 0.665830 0.918670 0.685610 0.413476
P8    P     P_3+3 0.665830 0.081330 0.185610 0.448706
P9    P     P_3+3 0.105862 0.271349 0.125059 0.462659
P10   P     P_3+3 0.104637 0.730079 0.623960 0.456321
P11   P     P_3+3 0.606258 0.771682 0.125744 0.458278
P12   P     P_3+3 0.604765 0.229261 0.620890 0.457232
O25   O     O_2   0.157990 0.394030 0.856030 -0.405745
O26   O     O_2   0.157990 0.605970 0.356030 -0.402457
O27   O     O_2   0.657990 0.894030 0.856030 -0.405455
O28   O     O_2   0.657990 0.105970 0.356030 -0.388942
O29   O     O_3   0.027110 0.329490 0.059550 -0.419915
O30   O     O_3   0.027110 0.670510 0.559550 -0.445263
O31   O     O_3   0.527110 0.829490 0.059550 -0.421567
O32   O     O_3   0.527110 0.170510 0.559550 -0.415921
O33   O     O_2   0.157006 0.269443 0.999589 -0.336774
O34   O     O_2   0.157532 0.733572 0.500966 -0.351143
O35   O     O_2   0.658336 0.770417 0.001941 -0.337154
O36   O     O_2   0.656434 0.230033 0.495757 -0.357936
O37   O     O_3   0.238506 0.480924 0.735499 -0.588211
O38   O     O_3   0.243549 0.522305 0.245874 -0.586533
O39   O     O_3   0.738644 0.980874 0.735609 -0.588441
O40   O     O_3   0.743386 0.022118 0.245505 -0.589033
O41   O     O_3   0.059360 0.190614 0.111641 -0.511381
O42   O     O_3   0.053301 0.808506 0.602965 -0.461315
O43   O     O_3   0.560869 0.690479 0.112419 -0.516075
O44   O     O_3   0.553143 0.307456 0.596818 -0.499930
C5    C     C_3   0.016095 0.187931 0.231126 0.400119
C6    C     C_3   0.020032 0.814645 0.736588 0.487330
C7    C     C_3   0.514775 0.688641 0.227417 0.389057
C8    C     C_3   0.521012 0.315816 0.730507 0.476089
H13   H     H_    0.977381 0.234318 0.227838 0.073169
H14   H     H_    0.991784 0.765896 0.765835 0.007619
H15   H     H_    0.475228 0.734785 0.218961 0.079688
H16   H     H_    0.497152 0.266826 0.770514 0.012685
H17   H     H_    0.057158 0.182168 0.344642 0.084084
H18   H     H_    0.065727 0.831047 0.836534 0.077549
H19   H     H_    0.553653 0.684425 0.343841 0.084445
H20   H     H_    0.566929 0.337998 0.822449 0.101188
C9    C     C_3   0.963053 0.125581 0.213416 -1.038533
C10   C     C_3   0.957472 0.869891 0.709550 -1.047869
C11   C     C_3   0.462620 0.625686 0.208623 -1.034332
C12   C     C_3   0.453760 0.366528 0.696931 -1.046478
H21   H     H_    0.413964 0.634335 0.106052 0.258943
H22   H     H_    0.408259 0.346817 0.599392 0.256485
H23   H     H_    0.913042 0.135355 0.113980 0.259692
H24   H     H_    0.910563 0.854264 0.610149 0.253703
H25   H     H_    0.995761 0.077842 0.193750 0.275163
H26   H     H_    0.983195 0.920334 0.683884 0.294126
H27   H     H_    0.496537 0.578038 0.193467 0.279556
H28   H     H_    0.475473 0.417800 0.665874 0.297782
C13   C     C_3   0.256194 0.481047 0.121864 0.360544
C14   C     C_3   0.253252 0.512458 0.598274 0.400324
C15   C     C_3   0.756187 0.981341 0.120847 0.358450
C16   C     C_3   0.753352 0.012665 0.598577 0.401915
H29   H     H_    0.268108 0.426807 0.166455 0.083560
H30   H     H_    0.259675 0.569290 0.617922 0.095541
H31   H     H_    0.768144 0.926968 0.164440 0.083886
H32   H     H_    0.760085 0.069430 0.618940 0.096309
H33   H     H_    0.205522 0.478994 0.026119 0.157320
H34   H     H_    0.206273 0.504709 0.494198 0.176064
H35   H     H_    0.705545 0.979427 0.025069 0.157829
H36   H     H_    0.706151 0.005236 0.494784 0.174888
C17   C     C_3   0.325978 0.507547 0.060717 -0.955797
C18   C     C_3   0.328493 0.483786 0.564730 -1.010604
C19   C     C_3   0.825856 0.008335 0.060000 -0.959983
C20   C     C_3   0.828351 0.983946 0.563662 -1.012465
H37   H     H_    0.374608 0.516061 0.161263 0.271295
H38   H     H_    0.369510 0.477679 0.678429 0.283085
H39   H     H_    0.874498 0.016803 0.160456 0.269560
H40   H     H_    0.869775 0.977257 0.676560 0.283487
H41   H     H_    0.345133 0.468526 0.982953 0.272421
H42   H     H_    0.353556 0.519980 0.487863 0.276116
H43   H     H_    0.845215 0.969646 0.981775 0.273608
H44   H     H_    0.853359 0.020429 0.487293 0.274790
H45   H     H_    0.310283 0.557290 0.995058 0.243444
H46   H     H_    0.317402 0.432664 0.507091 0.241934
H47   H     H_    0.809882 0.058202 0.995121 0.242925
H48   H     H_    0.816750 0.933158 0.504738 0.239121
Ba1   Ba    Ba6+2 0.000000 0.447380 0.844850 1.567833
Ba2   Ba    Ba6+2 1.000000 0.552620 0.344850 1.561999
Ba3   Ba    Ba6+2 0.500000 0.947380 0.844850 1.571530
Ba4   Ba    Ba6+2 0.500000 0.052620 0.344850 1.568289
C21   C     C_3   0.719079 0.501703 0.031822 0.970878
C22   C     C_3   0.710178 0.516921 0.535086 1.008550
C23   C     C_3   0.217208 0.999398 0.030756 0.992060
C24   C     C_3   0.211301 0.015218 0.538004 0.963988
H49   H     H_    0.743949 0.485667 0.155101 -0.005524
H50   H     H_    0.739017 0.521219 0.659294 0.057539
H51   H     H_    0.242130 0.983179 0.154005 -0.021649
H52   H     H_    0.240093 0.023738 0.660980 0.062008
C25   C     C_3   0.630535 0.491960 0.997106 -1.091118
C26   C     C_3   0.643938 0.569678 0.476630 -1.073960
C27   C     C_3   0.129250 0.986186 0.993926 -1.119723
C28   C     C_3   0.142059 0.064137 0.476051 -1.079371
H53   H     H_    0.601607 0.510376 0.878220 0.268453
H54   H     H_    0.628108 0.569970 0.346546 0.291187
H55   H     H_    0.098831 0.009084 0.880274 0.273191
H56   H     H_    0.123769 0.059752 0.346855 0.287191
H57   H     H_    0.603616 0.519056 0.085002 0.269052
H58   H     H_    0.590815 0.558040 0.524086 0.271488
H59   H     H_    0.101329 0.006888 0.087770 0.251714
H60   H     H_    0.091127 0.052528 0.530539 0.265280
H61   H     H_    0.619365 0.435854 0.001327 0.235748
H62   H     H_    0.662522 0.622092 0.514775 0.214698
H63   H     H_    0.121086 0.929558 0.984731 0.240277
H64   H     H_    0.159441 0.118064 0.503017 0.217396
O45   O     O_3   0.092100 0.536880 0.086720 -0.408307
O46   O     O_3   0.092100 0.463120 0.586720 -0.435881
O47   O     O_3   0.592100 0.036880 0.086720 -0.411143
O48   O     O_3   0.592100 0.963120 0.586720 -0.436603
P13   P     P_3+3 0.892071 0.728660 0.064588 0.471954
P14   P     P_3+3 0.890259 0.274668 0.569803 0.448331
P15   P     P_3+3 0.390869 0.227295 0.065455 0.496412
P16   P     P_3+3 0.391485 0.773469 0.570760 0.452115
C29   C     C_3   0.964854 0.175278 0.749776 0.739885
C30   C     C_3   0.956614 0.821348 0.259197 0.723206
C31   C     C_3   0.466933 0.673593 0.748513 0.739258
C32   C     C_3   0.460506 0.319941 0.254153 0.739824
H65   H     H_    0.451180 0.564377 0.711214 0.276063
H66   H     H_    0.472035 0.430744 0.209292 0.283992
H67   H     H_    0.948055 0.065903 0.717289 0.273353
H68   H     H_    0.974687 0.931415 0.215052 0.265194
H69   H     H_    0.436949 0.618798 0.314592 0.266159
H70   H     H_    0.428361 0.372235 0.803275 0.248508
H71   H     H_    0.939423 0.118065 0.321705 0.265922
H72   H     H_    0.932564 0.875301 0.816571 0.253087
C33   C     C_R   0.148534 0.673480 0.928398 -0.224644
C34   C     C_R   0.157119 0.337325 0.415857 -0.210316
C35   C     C_R   0.648672 0.173276 0.926981 -0.221157
C36   C     C_R   0.657336 0.837534 0.415932 -0.213197
C37   C     C_R   0.838272 0.334887 0.270034 -0.477860
C38   C     C_R   0.856161 0.673236 0.760760 -0.295347
C39   C     C_R   0.338452 0.834707 0.271433 -0.469168
C40   C     C_R   0.354249 0.171943 0.762151 -0.302052
C41   C     C_R   0.787926 0.219022 0.300564 -0.173801
C42   C     C_R   0.792869 0.784430 0.794268 -0.189908
C43   C     C_R   0.288188 0.718708 0.301726 -0.179951
C44   C     C_R   0.291060 0.283151 0.795718 -0.180575
C45   C     C_R   0.832194 0.277155 0.364532 0.350825
C46   C     C_R   0.842778 0.728311 0.855834 0.356413
C47   C     C_R   0.332600 0.776716 0.365853 0.356872
C48   C     C_R   0.340886 0.226930 0.857227 0.349486
C49   C     C_R   0.809522 0.335558 0.107861 0.153389
C50   C     C_R   0.815687 0.667958 0.605142 0.172868
C51   C     C_R   0.309363 0.835663 0.109161 0.147048
C52   C     C_R   0.314565 0.167242 0.605973 0.167351
C53   C     C_R   0.759735 0.277824 0.042559 -0.054468
C54   C     C_R   0.764532 0.726953 0.541543 -0.081100
C55   C     C_R   0.259483 0.777985 0.044297 -0.055842
C56   C     C_R   0.263658 0.226351 0.542227 -0.080589
C57   C     C_R   0.247398 0.718913 0.143421 -0.094831
C58   C     C_R   0.251424 0.285018 0.638024 -0.092519
C59   C     C_R   0.747371 0.218962 0.142080 -0.088492
C60   C     C_R   0.752774 0.785934 0.636934 -0.099414
C61   C     C_R   0.191281 0.664836 0.081806 0.237109
C62   C     C_R   0.195162 0.340299 0.574867 0.217146
C63   C     C_R   0.691274 0.164821 0.080780 0.245865
C64   C     C_R   0.695699 0.840687 0.574550 0.221513
C65   C     C_R   0.164652 0.725898 0.828453 0.124105
C66   C     C_R   0.168693 0.280670 0.324149 0.168020
C67   C     C_R   0.664707 0.225650 0.826396 0.123586
C68   C     C_R   0.668747 0.780819 0.324547 0.173436
C69   C     C_R   0.218102 0.778649 0.886916 -0.179613
C70   C     C_R   0.220864 0.226701 0.388697 -0.232031
C71   C     C_R   0.717999 0.278601 0.885088 -0.188991
C72   C     C_R   0.720772 0.726756 0.388832 -0.224457
H73   H     H_    0.284600 0.674234 0.377328 0.180569
H74   H     H_    0.283751 0.325335 0.872608 0.184546
H75   H     H_    0.784183 0.174690 0.376456 0.180852
H76   H     H_    0.785454 0.826635 0.871067 0.186700
H77   H     H_    0.722469 0.322501 0.809538 0.249430
H78   H     H_    0.723473 0.681000 0.325414 0.241883
H79   H     H_    0.223283 0.822141 0.810938 0.254010
H80   H     H_    0.225117 0.181689 0.324150 0.246876
H81   H     H_    0.866481 0.380621 0.324991 0.158496
H82   H     H_    0.895266 0.631403 0.812358 0.151878
H83   H     H_    0.366772 0.880375 0.326419 0.158563
H84   H     H_    0.393313 0.130058 0.813771 0.149086
S1    S     S_3+6 0.742581 0.587438 0.000743 -0.011463
O49   O     O_2   0.703490 0.633627 0.096663 -0.290818
O50   O     O_2   0.829913 0.590282 0.044054 -0.234103
O51   O     O_3   0.715165 0.612032 0.814433 -0.617172
H85   H     H_    0.666026 0.587188 0.777560 0.321884
S2    S     S_3+6 0.669604 0.434480 0.516872 -0.052167
O52   O     O_2   0.731740 0.378895 0.551084 -0.279620
O53   O     O_2   0.615355 0.428840 0.629152 -0.337587
O54   O     O_3   0.622182 0.430068 0.330302 -0.596250
H86   H     H_    0.663614 0.416388 0.274043 0.342983
S3    S     S_3+6 0.237245 0.086145 0.002691 -0.011516
O55   O     O_2   0.196865 0.129367 0.102003 -0.295867
O56   O     O_2   0.324409 0.090796 0.045570 -0.240553
O57   O     O_3   0.209428 0.112596 0.817347 -0.608507
H87   H     H_    0.162284 0.085498 0.776962 0.320654
S4    S     S_3+6 0.176475 0.930206 0.532329 -0.014468
O58   O     O_2   0.242639 0.878576 0.556414 -0.262542
O59   O     O_2   0.129973 0.922181 0.658084 -0.321192
O60   O     O_3   0.120984 0.919648 0.354864 -0.548141
H88   H     H_    0.158778 0.921495 0.284468 0.333907
N1    N     N_2   0.047482 0.167762 0.753336 -0.137388
H89   H     H_    0.079356 0.154790 0.862664 0.254755
C73   C     C_3   0.083611 0.221264 0.676503 -0.739268
H90   H     H_    0.142168 0.204188 0.668129 0.252689
H91   H     H_    0.088077 0.270077 0.742215 0.302697
H92   H     H_    0.051033 0.230709 0.556711 0.208399
N2    N     N_2   0.036569 0.796507 0.277491 -0.029821
H93   H     H_    0.041989 0.745410 0.313135 0.246655
C74   C     C_3   0.074822 0.808411 0.147590 -0.741103
H94   H     H_    0.138794 0.809493 0.191753 0.247257
H95   H     H_    0.054654 0.858409 0.089012 0.232759
H96   H     H_    0.060913 0.766124 0.061560 0.190168
N3    N     N_2   0.549883 0.666805 0.755486 -0.139813
H97   H     H_    0.580651 0.652196 0.864781 0.247964
C75   C     C_3   0.586438 0.722538 0.686542 -0.734882
H98   H     H_    0.647417 0.708806 0.691008 0.260482
H99   H     H_    0.584636 0.771063 0.751104 0.305010
H100  H     H_    0.558323 0.730986 0.563241 0.206996
N4    N     N_2   0.541031 0.299417 0.256597 -0.059616
H101  H     H_    0.579998 0.317027 0.351048 0.296882
C76   C     C_3   0.569204 0.310032 0.114228 -0.846207
H102  H     H_    0.633455 0.315342 0.140800 0.226422
H103  H     H_    0.542257 0.357885 0.054032 0.246094
H104  H     H_    0.553916 0.264714 0.037972 0.228658
N5    N     N_2   0.083824 0.630421 0.875737 -0.105575
H105  H     H_    0.030828 0.655890 0.842693 0.136572
C77   C     C_3   0.099012 0.576423 0.773306 -0.483212
H106  H     H_    0.042954 0.559237 0.703068 0.273180
H107  H     H_    0.128443 0.532939 0.842775 0.228556
H108  H     H_    0.137486 0.593338 0.693491 0.187283
N6    N     N_2   0.101623 0.389825 0.350630 -0.090960
H109  H     H_    0.109527 0.411777 0.246291 0.197697
C78   C     C_3   0.021257 0.373352 0.356828 -0.572248
H110  H     H_    0.982930 0.381020 0.244431 0.224059
H111  H     H_    0.995586 0.409021 0.430535 0.266004
H112  H     H_    0.015225 0.318835 0.391845 0.144335
N7    N     N_2   0.583858 0.130271 0.874923 -0.106801
H113  H     H_    0.530756 0.155637 0.842329 0.135143
C79   C     C_3   0.598796 0.076159 0.772668 -0.488992
H114  H     H_    0.542686 0.059223 0.702258 0.273126
H115  H     H_    0.627830 0.032583 0.842281 0.229357
H116  H     H_    0.637475 0.092805 0.693051 0.188001
N8    N     N_2   0.601470 0.889750 0.350936 -0.090551
H117  H     H_    0.609195 0.911901 0.246666 0.198467
C80   C     C_3   0.521267 0.872721 0.357195 -0.576184
H118  H     H_    0.482788 0.880681 0.244945 0.223540
H119  H     H_    0.495647 0.908192 0.431377 0.266700
H120  H     H_    0.515534 0.817922 0.391577 0.145238

loop_
_geom_bond_atom_site_label_1
_geom_bond_atom_site_label_2
_geom_bond_distance
_ccdc_geom_bond_type
C43   H73   1.080840 S    
C77   H108  1.106797 S    
C15   H31   1.109459 S    
C12   H28   1.106990 S    
P1    O17   1.734051 S    
C14   C18   1.502953 S    
N1    H89   1.025319 S    
O43   C7    1.405578 S    
C79   H115  1.085370 S    
P12   C67   1.877699 S    
C14   H30   1.109463 S    
C36   C64   1.407450 A    
P3    O19   1.731207 S    
N6    H109  1.030688 S    
C2    H10   1.104154 S    
C35   C67   1.391276 A    
P4    O4    1.583592 D    
C75   H100  1.093903 S    
C7    H19   1.099313 S    
C28   H60   1.111294 S    
C9    H23   1.108644 S    
C70   H80   1.047002 S    
N2    H93   1.022693 S    
C79   H116  1.106678 S    
O8    Ba3   2.905591 S    
C1    H67   1.106131 S    
C26   H62   1.094168 S    
C20   H44   1.110219 S    
O26   Ba2   2.929437 S    
P8    C63   1.932543 S    
C27   H59   1.108725 S    
C43   C57   1.414969 A    
S2    O54   1.667815 S    
C10   H72   1.110449 S    
O15   P16   1.546211 D    
C52   C56   1.466435 A    
O38   C13   1.398764 S    
C25   H57   1.108518 S    
O41   C5    1.404066 S    
N6    C78   1.450289 S    
P1    Ba1   3.493527 S    
O37   C14   1.402234 S    
C55   C69   1.411078 A    
P3    O3    1.594574 D    
O29   Ba1   2.888987 S    
C74   H94   1.103498 S    
C38   C50   1.398362 A    
P3    Ba3   3.493527 S    
C24   H52   1.099864 S    
N2    C74   1.441263 S    
C20   H40   1.099245 S    
C39   C47   1.391522 A    
P7    O48   1.622849 S    
C22   S2    1.734252 S    
O31   Ba3   2.888987 S    
C77   H106  1.097139 S    
C11   H69   1.110736 S    
C32   N4    1.451313 S    
C16   H32   1.109563 S    
C80   H120  1.100731 S    
C37   C45   1.388770 A    
O21   P14   1.749417 S    
O22   P13   1.741195 S    
C19   H43   1.109915 S    
N3    H97   1.026110 S    
C42   C46   1.409017 A    
C5    H17   1.098740 S    
P4    C52   1.954541 S    
C33   N5    1.406716 S    
C25   H53   1.106210 S    
C40   C48   1.396596 A    
Ba4   O47   3.032333 S    
O23   C31   1.408108 S    
N4    C76   1.435233 S    
C9    H25   1.109285 S    
O4    Ba4   2.910627 S    
P6    C61   1.928302 S    
C54   C60   1.450266 A    
C34   N6    1.421370 S    
O21   C29   1.406995 S    
P5    C62   1.918538 S    
O16   P15   1.543117 D    
C11   H27   1.109366 S    
O60   H88   0.987444 S    
O42   C6    1.406911 S    
S3    O55   1.479509 D    
N8    C80   1.450067 S    
C57   C61   1.462135 A    
C14   H34   1.102397 S    
C65   C69   1.409478 A    
P4    O8    1.617677 S    
O6    Ba1   2.905591 S    
C10   H26   1.109211 S    
O54   H86   0.987549 S    
C28   H64   1.095713 S    
P11   O35   1.544197 D    
O44   C8    1.400610 S    
O9    Ba1   2.933229 S    
C28   H56   1.108341 S    
P5    O25   1.582888 D    
C20   H48   1.108128 S    
P9    O41   1.748672 S    
N5    H105  1.027931 S    
O18   C22   1.382680 S    
O12   P15   1.783229 S    
C67   C71   1.411109 A    
S3    O56   1.492720 D    
C25   H61   1.097419 S    
C18   H42   1.110185 S    
P2    O2    1.583592 D    
P11   O43   1.747951 S    
C6    H18   1.103576 S    
C2    H68   1.109984 S    
P7    O39   1.742856 S    
O51   H85   0.980951 S    
C36   N8    1.420916 S    
C21   C25   1.524795 S    
Ba1   O45   2.951902 S    
C80   H118  1.074260 S    
C50   C54   1.466719 A    
C73   H91   1.099023 S    
C19   H39   1.101135 S    
C71   H77   1.074985 S    
H3    C31   1.114668 S    
C8    H20   1.102045 S    
C16   H36   1.102080 S    
C76   H102  1.102441 S    
C12   H70   1.110468 S    
P4    Ba4   3.492487 S    
O10   P13   1.785088 S    
C19   H47   1.109144 S    
P10   O30   1.783057 S    
C41   C59   1.415168 A    
H1    C29   1.114857 S    
N4    H101  1.016728 S    
P1    O5    1.639201 S    
P13   C46   1.843783 S    
O2    Ba2   2.910627 S    
C56   C58   1.449816 A    
P12   O36   1.548191 D    
P5    Ba1   3.494884 S    
C74   H95   1.101611 S    
C23   C27   1.525196 S    
C41   C45   1.415799 A    
P11   C68   1.857438 S    
C33   C61   1.396474 A    
C34   C66   1.394718 A    
N5    C77   1.433555 S    
C23   S3    1.728467 S    
O23   P16   1.750327 S    
C53   C59   1.458419 A    
C56   C70   1.390432 A    
O22   C30   1.397963 S    
S4    O60   1.661826 S    
C3    C31   1.516492 S    
C8    C12   1.497887 S    
C44   C48   1.409592 A    
C39   H83   1.078039 S    
N3    C75   1.435277 S    
C69   H79   1.073825 S    
P15   C48   1.842961 S    
C17   H41   1.110003 S    
C1    C29   1.516345 S    
Ba2   O45   3.032333 S    
C29   N1    1.440784 S    
C30   N2    1.446958 S    
P12   O44   1.732623 S    
C38   C46   1.397977 A    
P3    C51   1.933256 S    
P8    Ba4   3.495940 S    
C13   C17   1.512797 S    
C66   C70   1.406518 A    
C44   H74   1.080223 S    
N8    H117  1.030703 S    
C34   C62   1.408744 A    
O32   Ba4   2.932505 S    
C60   C64   1.462391 A    
C15   C19   1.512928 S    
P6    O26   1.593852 D    
S4    O59   1.495807 D    
S1    O49   1.479733 D    
C42   C60   1.403830 A    
C27   H55   1.105901 S    
C41   H75   1.080765 S    
C1    H7    1.104423 S    
C6    C10   1.497124 S    
S2    O53   1.495454 D    
O13   P14   1.544508 D    
C76   H103  1.104253 S    
O28   Ba4   2.929437 S    
O17   C21   1.376580 S    
O25   Ba1   2.914188 S    
O39   C16   1.402591 S    
C21   H49   1.110108 S    
C58   C62   1.462691 A    
Ba2   O46   2.905548 S    
C7    C11   1.508330 S    
P8    O47   1.644608 S    
C12   H22   1.109296 S    
O30   Ba2   2.932505 S    
C44   C58   1.404253 A    
N1    C73   1.435956 S    
C40   C52   1.397493 A    
Ba1   Ba2   4.771750 S    
P10   O34   1.549758 D    
S3    O57   1.657780 S    
P1    O1    1.594574 D    
C4    H12   1.105507 S    
P11   O31   1.761676 S    
H2    C30   1.115870 S    
C77   H107  1.085883 S    
Ba3   O47   2.951902 S    
Ba3   Ba4   4.771750 S    
P2    O6    1.617677 S    
P14   C45   1.864064 S    
P2    Ba2   3.492487 S    
O9    P14   1.784534 S    
C79   H114  1.096919 S    
C3    H11   1.108184 S    
Ba1   O46   3.028846 S    
O24   C32   1.397354 S    
P7    O27   1.582888 D    
C2    C30   1.522083 S    
C5    C9    1.508217 S    
C73   H92   1.092375 S    
P8    O28   1.593852 D    
P6    O45   1.644608 S    
C18   H38   1.100157 S    
O57   H87   0.981284 S    
C5    H13   1.109922 S    
C26   H54   1.108616 S    
O12   Ba4   2.889663 S    
C3    H5    1.105277 S    
C13   H33   1.084778 S    
P6    Ba2   3.495940 S    
C38   H82   1.081071 S    
P2    C50   1.957728 S    
O27   Ba3   2.914188 S    
C75   H99   1.097554 S    
C59   C63   1.462163 A    
Ba3   O48   3.028846 S    
P9    O29   1.759809 S    
C33   C65   1.388699 A    
C8    H16   1.111312 S    
C42   H76   1.080455 S    
P6    O38   1.751145 S    
C16   C20   1.503991 S    
C17   H37   1.101647 S    
C24   C28   1.527767 S    
C15   H35   1.084476 S    
C31   N3    1.439990 S    
C23   H51   1.110974 S    
O5    Ba2   2.951957 S    
O10   Ba2   2.889663 S    
P8    O40   1.751012 S    
C37   C49   1.397263 A    
C1    H9    1.108241 S    
N7    C79   1.432797 S    
C36   C68   1.393189 A    
C74   H96   1.105709 S    
C78   H111  1.097466 S    
O7    Ba4   2.951957 S    
N7    H113  1.028216 S    
O40   C15   1.398917 S    
C35   C63   1.398143 A    
O11   P16   1.781458 S    
O14   P13   1.544084 D    
C10   H24   1.108296 S    
P2    O18   1.729765 S    
C18   H46   1.108159 S    
C4    H6    1.099826 S    
P5    O37   1.741783 S    
O20   C24   1.384669 S    
P9    O33   1.544593 D    
C17   H45   1.109481 S    
C27   H63   1.099229 S    
C80   H119  1.097434 S    
C72   H78   1.049184 S    
P7    Ba3   3.494884 S    
C26   H58   1.111314 S    
P4    O20   1.733764 S    
H4    C32   1.114278 S    
C68   C72   1.405821 A    
S4    O58   1.495302 D    
S1    O50   1.493671 D    
P7    C64   1.917658 S    
C40   H84   1.081467 S    
O24   P15   1.735739 S    
C24   S4    1.743288 S    
S2    O52   1.497907 D    
C22   H50   1.099192 S    
C76   H104  1.101947 S    
C51   C55   1.459792 A    
P10   O42   1.734137 S    
C53   C71   1.413694 A    
P3    O7    1.639201 S    
Ba4   O48   2.905548 S    
C54   C72   1.390406 A    
O3    Ba3   2.925748 S    
C9    H71   1.110738 S    
P10   C65   1.871044 S    
C49   C53   1.460839 A    
C21   S1    1.730141 S    
C39   C51   1.398954 A    
P9    C66   1.862234 S    
P12   O32   1.770150 S    
C4    H66   1.109720 S    
C6    H14   1.111231 S    
C78   H112  1.097952 S    
O1    Ba1   2.925748 S    
O19   C23   1.375831 S    
C4    C32   1.525012 S    
C11   H21   1.108309 S    
C3    H65   1.106919 S    
C2    H8    1.102802 S    
O11   Ba3   2.933229 S    
P5    O46   1.622849 S    
C35   N7    1.406564 S    
P16   C47   1.866583 S    
C37   H81   1.078279 S    
S1    O51   1.654814 S    
C78   H110  1.073399 S    
C7    H15   1.110873 S    
C13   H29   1.109555 S    
C43   C47   1.415481 A    
C75   H98   1.086342 S    
C73   H90   1.086811 S    
P1    C49   1.928293 S    
C55   C57   1.458096 A    
C22   C26   1.532155 S    
