data_mof_unit_66164.cif
_audit_creation_date              2012-12-10T17:59:54-0500
_audit_creation_method            fapswitch 2.2
_symmetry_space_group_name_H-M    P1
_symmetry_Int_Tables_number       1
_space_group_crystal_system       triclinic
_cell_length_a                    30.810213
_cell_length_b                    31.965169
_cell_length_c                    21.73571
_cell_angle_alpha                 89.798653
_cell_angle_beta                  135.139958
_cell_angle_gamma                 90.467733
_cell_volume                      15099.075439

loop_
_atom_site_label
_atom_site_type_symbol
_atom_type_description
_atom_site_fract_x
_atom_site_fract_y
_atom_site_fract_z
_atom_type_partial_charge
C1    C     C_R   0.499955 0.999877 0.381301 0.798260
C2    C     C_R   0.999955 0.499877 0.381301 0.798261
C3    C     C_3   0.491017 0.735808 0.548407 -0.161317
C4    C     C_3   0.479229 0.263631 0.533607 -0.157747
C5    C     C_3   0.990653 0.235806 0.547996 -0.161329
C6    C     C_3   0.976212 0.763613 0.529285 -0.157673
C7    C     C_3   0.498379 0.708779 0.497970 0.186474
C8    C     C_3   0.500540 0.291181 0.500860 0.188641
C9    C     C_3   0.998378 0.208780 0.497969 0.186481
C10   C     C_3   0.000540 0.791181 0.500859 0.188658
C11   C     C_3   0.544820 0.764052 0.579989 -0.156300
C12   C     C_3   0.536976 0.236137 0.583015 -0.155876
C13   C     C_3   0.044600 0.264050 0.580060 -0.156273
C14   C     C_3   0.034349 0.736112 0.582343 -0.155869
C15   C     C_3   0.552175 0.736341 0.529547 -0.156778
C16   C     C_3   0.558287 0.264384 0.550267 -0.156075
C17   C     C_3   0.052318 0.236341 0.530029 -0.156802
C18   C     C_3   0.058678 0.764377 0.553916 -0.156073
C19   C     C_1   0.498832 0.837106 0.498602 -0.073193
C20   C     C_1   0.500843 0.162870 0.500940 -0.074858
C21   C     C_1   0.998832 0.337106 0.498601 -0.073191
C22   C     C_1   0.000843 0.662870 0.500939 -0.074866
C23   C     C_1   0.498630 0.662859 0.498237 -0.071714
C24   C     C_1   0.500335 0.337110 0.500679 -0.073457
C25   C     C_1   0.998629 0.162859 0.498236 -0.071698
C26   C     C_1   0.000335 0.837110 0.500679 -0.073465
C27   C     C_R   0.460429 0.023464 0.241112 0.126727
C28   C     C_R   0.960434 0.523468 0.241118 0.126733
C29   C     C_R   0.500186 0.998950 0.315273 -0.089438
C30   C     C_R   0.000186 0.498950 0.315273 -0.089431
C31   C     C_R   0.541755 0.973483 0.324544 -0.208306
C32   C     C_R   0.041749 0.473479 0.324539 -0.208312
C33   C     C_R   0.541411 0.973200 0.259328 -0.213564
C34   C     C_R   0.041405 0.473195 0.259323 -0.213562
C35   C     C_R   0.499795 0.919836 0.499760 0.820985
C36   C     C_R   0.500233 0.080157 0.500209 0.823609
C37   C     C_R   0.999795 0.419837 0.499760 0.820987
C38   C     C_R   0.000233 0.580157 0.500209 0.823607
C39   C     C_R   0.500997 0.999473 0.185995 -0.086900
C40   C     C_R   0.000997 0.499473 0.185995 -0.086906
C41   C     C_R   0.461752 0.024387 0.180421 0.125964
C42   C     C_R   0.961758 0.524391 0.180427 0.125971
C43   C     C_3   0.411783 0.055803 0.125472 -0.484936
C44   C     C_3   0.911796 0.555813 0.125486 -0.484912
C45   C     C_3   0.410718 0.055109 0.195336 -0.469654
C46   C     C_3   0.910731 0.555119 0.195349 -0.469682
C47   C     C_R   0.471370 0.031444 0.689001 0.101143
C48   C     C_R   0.971373 0.531445 0.689003 0.101099
C49   C     C_R   0.501713 0.000261 0.686991 -0.076163
C50   C     C_R   0.001713 0.500261 0.686992 -0.076150
C51   C     C_R   0.539215 0.972131 0.757072 -0.207220
C52   C     C_R   0.039215 0.472130 0.757071 -0.207222
C53   C     C_R   0.538964 0.971927 0.821267 -0.210224
C54   C     C_R   0.038964 0.471926 0.821266 -0.210236
C55   C     C_R   0.502873 0.000846 0.817172 -0.090747
C56   C     C_R   0.002874 0.500846 0.817173 -0.090737
C57   C     C_R   0.472602 0.032073 0.753755 0.137118
C58   C     C_R   0.972604 0.532073 0.753757 0.137102
C59   C     C_R   0.500216 0.999727 0.618961 0.794089
C60   C     C_R   0.000216 0.499727 0.618961 0.794086
C61   C     C_3   0.407146 0.045683 0.691856 -0.484322
C62   C     C_3   0.907149 0.545686 0.691859 -0.484318
C63   C     C_3   0.405823 0.044859 0.620634 -0.459870
C64   C     C_3   0.905826 0.544862 0.620637 -0.459853
C65   C     C_R   0.381387 0.499757 0.381357 0.802311
C66   C     C_R   0.881387 0.999757 0.381357 0.802331
C67   C     C_R   0.499671 0.580171 0.499572 0.825320
C68   C     C_R   0.499976 0.419822 0.500066 0.818768
C69   C     C_R   0.999671 0.080171 0.499572 0.825348
C70   C     C_R   0.999976 0.919822 0.500066 0.818763
C71   C     C_R   0.618703 0.500263 0.618872 0.788465
C72   C     C_R   0.118702 0.000263 0.618872 0.788461
C73   C     C_R   0.618885 0.000131 0.119057 0.813551
C74   C     C_R   0.118884 0.500131 0.119056 0.813550
C75   C     C_R   0.500056 0.999906 0.118874 0.804752
C76   C     C_R   0.000056 0.499906 0.118874 0.804750
C77   C     C_R   0.380977 0.999809 0.880878 0.799470
C78   C     C_R   0.880977 0.499809 0.880878 0.799472
C79   C     C_R   0.500048 0.000115 0.880951 0.801454
C80   C     C_R   0.000048 0.500115 0.880951 0.801447
C81   C     C_R   0.281482 0.526327 0.245426 0.027590
C82   C     C_R   0.781484 0.026347 0.245462 0.027574
C83   C     C_3   0.452025 0.735871 0.416115 -0.153656
C84   C     C_3   0.464389 0.263839 0.418855 -0.156619
C85   C     C_3   0.952244 0.235873 0.416042 -0.153608
C86   C     C_3   0.967015 0.763864 0.419525 -0.156726
C87   C     C_R   0.315215 0.499206 0.315665 -0.108067
C88   C     C_R   0.815217 0.999205 0.315666 -0.108030
C89   C     C_R   0.282412 0.471948 0.322210 -0.193587
C90   C     C_R   0.782413 0.971924 0.322176 -0.193599
C91   C     C_R   0.717564 0.971903 0.257170 -0.205045
C92   C     C_R   0.217563 0.471927 0.257203 -0.205064
C93   C     C_R   0.685136 0.000215 0.186898 -0.041396
C94   C     C_R   0.185135 0.500216 0.186897 -0.041358
C95   C     C_R   0.719333 0.027433 0.184810 -0.032134
C96   C     C_R   0.219331 0.527414 0.184774 -0.032157
C97   C     C_3   0.714230 0.060463 0.131321 -0.573367
C98   C     C_3   0.214226 0.560412 0.131235 -0.573430
C99   C     C_3   0.285691 0.559647 0.200888 0.928214
C100  C     C_3   0.785696 0.059700 0.200975 0.928167
C101  C     C_R   0.717447 0.469109 0.687086 0.103207
C102  C     C_R   0.217446 0.969102 0.687101 0.103173
C103  C     C_R   0.685297 0.499616 0.686961 -0.075233
C104  C     C_R   0.185297 0.999616 0.686961 -0.075216
C105  C     C_R   0.718138 0.526894 0.758787 -0.207236
C106  C     C_R   0.218138 0.026902 0.758774 -0.207244
C107  C     C_3   0.505835 0.764131 0.447704 -0.155617
C108  C     C_3   0.522134 0.236348 0.468257 -0.157385
C109  C     C_3   0.006199 0.264133 0.448114 -0.155684
C110  C     C_3   0.025150 0.736365 0.472577 -0.157476
C111  C     C_R   0.282599 0.027079 0.822981 -0.215815
C112  C     C_R   0.782600 0.527070 0.822994 -0.215813
C113  C     C_R   0.314369 0.998943 0.817134 -0.085593
C114  C     C_R   0.814369 0.498943 0.817133 -0.085582
C115  C     C_R   0.280988 0.968402 0.751851 0.137369
C116  C     C_R   0.780989 0.468408 0.751836 0.137376
C117  C     C_3   0.284464 0.956209 0.689183 -0.487755
C118  C     C_3   0.784465 0.456230 0.689162 -0.487788
C119  C     C_3   0.714564 0.457130 0.617965 -0.458117
C120  C     C_3   0.214563 0.957109 0.617985 -0.458124
C121  C     C_1   0.499256 0.874865 0.499122 -0.173381
C122  C     C_1   0.500684 0.125117 0.500715 -0.176453
C123  C     C_1   0.999256 0.374866 0.499121 -0.173383
C124  C     C_1   0.000684 0.625117 0.500715 -0.176456
C125  C     C_1   0.499069 0.625115 0.498767 -0.159232
C126  C     C_1   0.500157 0.374862 0.500440 -0.171446
C127  C     C_1   0.999069 0.125115 0.498766 -0.159199
C128  C     C_1   0.000157 0.874862 0.500440 -0.171451
C129  C     C_3   0.444671 0.763610 0.466564 -0.160122
C130  C     C_3   0.443080 0.235599 0.451602 -0.158762
C131  C     C_3   0.944527 0.263610 0.466081 -0.160100
C132  C     C_3   0.942689 0.735606 0.447951 -0.158709
C133  C     C_3   0.498489 0.791166 0.498161 0.189295
C134  C     C_3   0.500823 0.208798 0.501005 0.188702
C135  C     C_3   0.998489 0.291166 0.498161 0.189312
C136  C     C_3   0.000822 0.708799 0.501004 0.188695
Cu1   Cu    Cu3+1 0.438230 1.000000 0.438170 0.945000
Cu2   Cu    Cu3+1 0.938230 0.500000 0.438170 0.944993
Cu3   Cu    Cu3+1 0.561800 0.000000 0.561830 0.950236
Cu4   Cu    Cu3+1 0.061800 0.500000 0.561830 0.950234
Cu5   Cu    Cu3+1 0.499880 0.500000 0.438060 0.983182
Cu6   Cu    Cu3+1 0.999880 0.000000 0.438060 0.983154
Cu7   Cu    Cu3+1 0.500000 0.500000 0.561790 0.946182
Cu8   Cu    Cu3+1 0.000000 0.000000 0.561790 0.946194
Cu9   Cu    Cu3+1 0.500030 0.958570 0.000020 0.943772
Cu10  Cu    Cu3+1 0.500030 0.041430 0.000020 0.940370
Cu11  Cu    Cu3+1 0.000030 0.458570 0.000020 0.943781
Cu12  Cu    Cu3+1 0.000030 0.541430 0.000020 0.940372
H1    H     H_    0.511935 0.776238 0.406273 0.131028
H2    H     H_    0.539788 0.224665 0.441371 0.130393
H3    H     H_    0.012597 0.276239 0.407020 0.131020
H4    H     H_    0.045286 0.724696 0.449247 0.130506
H5    H     H_    0.367558 0.041786 0.171588 0.207241
H6    H     H_    0.427041 0.084798 0.232900 0.193654
H7    H     H_    0.867567 0.541801 0.171598 0.207230
H8    H     H_    0.927062 0.584806 0.232921 0.193688
H9    H     H_    0.566146 0.949127 0.759753 0.151078
H10   H     H_    0.066145 0.449126 0.759752 0.151074
H11   H     H_    0.565803 0.948839 0.872766 0.158493
H12   H     H_    0.065802 0.448838 0.872765 0.158490
H13   H     H_    0.402944 0.077700 0.706892 0.202858
H14   H     H_    0.376728 0.021683 0.682913 0.186400
H15   H     H_    0.902949 0.577703 0.706896 0.202853
H16   H     H_    0.876730 0.521687 0.682915 0.186400
H17   H     H_    0.400819 0.076402 0.594597 0.194922
H18   H     H_    0.374690 0.020303 0.570434 0.211759
H19   H     H_    0.900824 0.576405 0.594601 0.194935
H20   H     H_    0.874692 0.520306 0.570436 0.211764
H21   H     H_    0.306678 0.450321 0.376217 0.150602
H22   H     H_    0.806679 0.950280 0.376155 0.150559
H23   H     H_    0.694450 0.089922 0.129441 0.190494
H24   H     H_    0.691506 0.048200 0.066345 0.189302
H25   H     H_    0.194445 0.589882 0.129315 0.190496
H26   H     H_    0.191500 0.548120 0.066276 0.189298
H27   H     H_    0.694095 0.549322 0.762896 0.150349
H28   H     H_    0.194094 0.049337 0.762873 0.150339
H29   H     H_    0.413839 0.723785 0.348722 0.138552
H30   H     H_    0.434516 0.275690 0.351307 0.132249
H31   H     H_    0.914240 0.223790 0.348590 0.138582
H32   H     H_    0.939304 0.775738 0.352532 0.132286
H33   H     H_    0.307466 0.049561 0.875890 0.150831
H34   H     H_    0.807466 0.549546 0.875913 0.150819
H35   H     H_    0.303439 0.924294 0.702255 0.203405
H36   H     H_    0.306158 0.980832 0.681759 0.186524
H37   H     H_    0.803439 0.424316 0.702218 0.203400
H38   H     H_    0.806158 0.480860 0.681750 0.186525
H39   H     H_    0.693267 0.425735 0.589962 0.195178
H40   H     H_    0.695723 0.482358 0.569320 0.211327
H41   H     H_    0.193267 0.925712 0.589998 0.195210
H42   H     H_    0.195722 0.982331 0.569328 0.211324
H43   H     H_    0.596414 0.724669 0.555479 0.130439
H44   H     H_    0.605687 0.276690 0.590864 0.130236
H45   H     H_    0.096676 0.224670 0.556360 0.130427
H46   H     H_    0.106398 0.776677 0.597512 0.130302
H47   H     H_    0.583004 0.776088 0.647422 0.130838
H48   H     H_    0.566845 0.224280 0.650558 0.131040
H49   H     H_    0.082602 0.276083 0.647551 0.130823
H50   H     H_    0.062055 0.724233 0.649331 0.130949
H51   H     H_    0.484912 0.723693 0.589828 0.131181
H52   H     H_    0.461570 0.275310 0.560487 0.131222
H53   H     H_    0.984249 0.223691 0.589079 0.131166
H54   H     H_    0.956071 0.775280 0.552608 0.131111
H55   H     H_    0.400432 0.775280 0.440632 0.131941
H56   H     H_    0.395677 0.223298 0.411001 0.131296
H57   H     H_    0.900170 0.275280 0.439750 0.131949
H58   H     H_    0.894966 0.723311 0.404350 0.131348
H59   H     H_    0.573640 0.953589 0.381101 0.155239
H60   H     H_    0.073629 0.453582 0.381091 0.155233
H61   H     H_    0.573094 0.953171 0.266817 0.149596
H62   H     H_    0.073084 0.453164 0.266807 0.149599
O1    O     O_R   0.447840 1.000000 0.357610 -0.585009
O2    O     O_R   0.947840 0.500000 0.357610 -0.585011
O3    O     O_R   0.500000 0.560470 0.552180 -0.590090
O4    O     O_R   0.500000 0.439530 0.552180 -0.582119
O5    O     O_R   0.000000 0.060470 0.552180 -0.590095
O6    O     O_R   0.000000 0.939530 0.552180 -0.582109
O7    O     O_R   0.590030 0.500000 0.537810 -0.590331
O8    O     O_R   0.090030 1.000000 0.537810 -0.590330
O9    O     O_R   0.590140 0.500000 0.642300 -0.586099
O10   O     O_R   0.090140 1.000000 0.642300 -0.586098
O11   O     O_R   0.590180 0.965000 0.090240 -0.593400
O12   O     O_R   0.590180 0.035000 0.090240 -0.583421
O13   O     O_R   0.090180 0.465000 0.090240 -0.593393
O14   O     O_R   0.090180 0.535000 0.090240 -0.583424
O15   O     O_R   0.500040 0.965010 0.090190 -0.588455
O16   O     O_R   0.500040 0.034990 0.090190 -0.587673
O17   O     O_R   0.000040 0.465010 0.090190 -0.588453
O18   O     O_R   0.000040 0.534990 0.090190 -0.587671
O19   O     O_R   0.409890 0.965030 0.909800 -0.582508
O20   O     O_R   0.409890 0.034970 0.909800 -0.589414
O21   O     O_R   0.909890 0.465030 0.909800 -0.582505
O22   O     O_R   0.909890 0.534970 0.909800 -0.589412
O23   O     O_R   0.500040 0.965020 0.909850 -0.587407
O24   O     O_R   0.500040 0.034980 0.909850 -0.584333
O25   O     O_R   0.000040 0.465020 0.909850 -0.587408
O26   O     O_R   0.000040 0.534980 0.909850 -0.584338
O27   O     O_R   0.552190 0.000000 0.462050 -0.587068
O28   O     O_R   0.052190 0.500000 0.462050 -0.587071
O29   O     O_R   0.447840 0.939540 0.447780 -0.579355
O30   O     O_R   0.447840 0.060460 0.447780 -0.583190
O31   O     O_R   0.947840 0.439540 0.447780 -0.579357
O32   O     O_R   0.947840 0.560460 0.447780 -0.583195
O33   O     O_R   0.552190 0.939560 0.552210 -0.583714
O34   O     O_R   0.552190 0.060440 0.552210 -0.578292
O35   O     O_R   0.052190 0.439560 0.552210 -0.583713
O36   O     O_R   0.052190 0.560440 0.552210 -0.578290
O37   O     O_R   0.447840 0.000000 0.537950 -0.587549
O38   O     O_R   0.947840 0.500000 0.537950 -0.587544
O39   O     O_R   0.552190 0.000000 0.642390 -0.585515
O40   O     O_R   0.052190 0.500000 0.642390 -0.585517
O41   O     O_R   0.409740 0.500000 0.357550 -0.546364
O42   O     O_R   0.909740 0.000000 0.357550 -0.546378
O43   O     O_R   0.409840 0.500000 0.462040 -0.596954
O44   O     O_R   0.909840 1.000000 0.462040 -0.596959
O45   O     O_R   0.499890 0.560480 0.447700 -0.567406
O46   O     O_R   0.499890 0.439520 0.447700 -0.581237
O47   O     O_R   0.999890 0.060480 0.447700 -0.567413
O48   O     O_R   0.999890 0.939520 0.447700 -0.581253
H63   H     H_    0.692991 0.950223 0.262191 0.145626
H64   H     H_    0.192990 0.450264 0.262251 0.145605
O49   O     O_3   0.315664 0.598204 0.247060 -0.596399
C137  C     C_3   0.313376 0.608096 0.308075 -0.384256
H65   H     H_    0.344705 0.587620 0.366240 0.167753
H66   H     H_    0.265866 0.606366 0.279047 0.164108
H67   H     H_    0.329999 0.640732 0.330743 0.200057
O50   O     O_3   0.309007 0.542355 0.169180 -0.582607
C138  C     C_3   0.307908 0.572167 0.120007 -0.250255
H68   H     H_    0.344571 0.596170 0.163474 0.198211
H69   H     H_    0.262263 0.587375 0.069554 0.143223
H70   H     H_    0.317501 0.555959 0.085681 0.167979
O51   O     O_3   0.815668 0.098246 0.247204 -0.596418
C139  C     C_3   0.813376 0.108096 0.308229 -0.384291
H71   H     H_    0.844704 0.087602 0.366365 0.167780
H72   H     H_    0.765864 0.106353 0.279195 0.164114
H73   H     H_    0.829998 0.140728 0.330944 0.200101
O52   O     O_3   0.809014 0.042445 0.169245 -0.582603
C140  C     C_3   0.807920 0.072289 0.120121 -0.250275
H74   H     H_    0.844582 0.096288 0.163625 0.198201
H75   H     H_    0.762275 0.087501 0.069686 0.143218
H76   H     H_    0.817516 0.056112 0.085775 0.167978
H77   H     H_    0.369427 0.042589 0.061577 0.192867
H78   H     H_    0.428319 0.085977 0.122331 0.205484
H79   H     H_    0.869437 0.542604 0.061588 0.192856
H80   H     H_    0.928340 0.585985 0.122352 0.205500

loop_
_geom_bond_atom_site_label_1
_geom_bond_atom_site_label_2
_ccdc_geom_bond_type
Cu10  O24   S    
C76   O18   A    
C73   C93   S    
Cu9   Cu10  S    
C118  H38   S    
C102  C120  S    
C39   C41   A    
C46   H7    S    
C109  H3    S    
C11   H47   S    
C110  H4    S    
C67   C125  S    
Cu9   O11   S    
O51   C139  S    
C37   O35   A    
Cu6   O48   S    
C61   C63   S    
C119  H40   S    
C62   C64   S    
Cu11  O21   S    
C63   H18   S    
C12   C16   S    
C139  H71   S    
C49   C51   A    
C65   O43   A    
C50   C52   A    
C4    C12   S    
C5    C13   S    
C48   C50   A    
C8    C16   S    
C41   C43   S    
Cu3   O39   S    
C42   C44   S    
C77   C113  S    
C44   C46   S    
C65   C87   S    
C139  H72   S    
C52   H10   S    
C66   O42   A    
C53   H11   S    
C35   O29   A    
C6    C132  S    
C4    C130  S    
C81   C99   S    
C78   O21   A    
C44   H79   S    
Cu9   O15   S    
C74   O13   A    
C51   H9    S    
C40   C76   S    
Cu5   O45   S    
C21   C123  T    
C31   H59   S    
C62   H15   S    
C92   C94   A    
C111  C113  A    
C94   C96   A    
Cu2   Cu4   S    
C129  C133  S    
C105  C112  A    
C55   C57   A    
Cu5   O41   S    
Cu6   Cu8   S    
C15   H43   S    
C86   C110  S    
C3    C129  S    
C77   O19   A    
C79   O24   A    
C17   C109  S    
C137  H66   S    
C95   C97   S    
C57   C61   S    
C72   O8    A    
C3    C7    S    
C73   O11   A    
C89   H21   S    
C120  H41   S    
C85   C131  S    
C10   C86   S    
C10   C18   S    
C139  H73   S    
Cu10  O12   S    
Cu2   O2    S    
C116  C118  S    
C3    C11   S    
C99   O49   S    
C64   H20   S    
C98   C99   S    
C45   H6    S    
C20   C134  S    
C21   C135  S    
C113  C115  A    
C100  O51   S    
C44   H80   S    
C7    C83   S    
C35   O33   A    
C27   C29   A    
C80   O26   A    
C110  C136  S    
Cu11  Cu12  S    
Cu12  O18   S    
C86   C132  S    
C112  C114  A    
C28   C46   S    
C13   H49   S    
Cu4   O36   S    
C83   C129  S    
C64   H19   S    
C66   C88   S    
O49   C137  S    
C138  H70   S    
C6    C14   S    
C84   C130  S    
C68   O46   A    
Cu6   O8    S    
C34   H62   S    
C9    C85   S    
C43   H77   S    
C96   C98   S    
C39   C75   S    
C32   H60   S    
Cu3   O33   S    
C20   C122  T    
Cu7   O3    S    
C40   C42   A    
C93   C95   A    
C12   C134  S    
C140  H74   S    
C24   C126  T    
C13   C135  S    
C11   C15   S    
C86   H32   S    
C106  C111  A    
C72   O10   A    
C37   O31   A    
C61   H14   S    
C75   O15   A    
Cu4   O40   S    
Cu8   O6    S    
C98   H25   S    
Cu11  O17   S    
C1    O27   A    
Cu8   O44   S    
C51   C53   A    
Cu1   O29   S    
C102  C104  A    
C5    C9    S    
C47   C57   A    
C5    C131  S    
C132  C136  S    
C103  C105  A    
C43   C45   S    
Cu2   O31   S    
C108  H2    S    
C131  H57   S    
C97   C100  S    
C69   O47   A    
C71   C103  S    
C19   C121  T    
C82   C95   A    
Cu5   O46   S    
C114  C116  A    
C138  H68   S    
C137  H65   S    
C46   H8    S    
C49   C59   S    
C13   C17   S    
C2    C30   S    
C50   C60   S    
C65   O41   A    
C7    C23   S    
C7    C15   S    
C8    C24   S    
C56   C58   A    
C119  H39   S    
C91   H63   S    
Cu7   O9    S    
C107  H1    S    
C4    H52   S    
O52   C140  S    
C101  C103  A    
Cu7   O43   S    
C140  H76   S    
C106  H28   S    
C59   O37   A    
C38   C124  S    
C58   C62   S    
C99   O50   S    
Cu9   O23   S    
C1    O1    A    
C12   H48   S    
C74   C94   S    
C137  H67   S    
C104  C106  A    
C117  H36   S    
C9    C25   S    
C130  C134  S    
Cu1   Cu3   S    
C97   H24   S    
C100  O52   S    
C85   C109  S    
Cu5   Cu7   S    
C47   C63   S    
Cu1   O37   S    
C48   C64   S    
C18   H46   S    
C78   O22   A    
C38   O36   A    
C74   O14   A    
C111  H33   S    
C71   O9    A    
C15   C107  S    
Cu9   O19   S    
C102  C115  A    
Cu5   O7    S    
C62   H16   S    
C66   O44   A    
C115  C117  S    
C59   O39   A    
Cu12  O22   S    
C68   O4    A    
C27   C45   S    
C76   O17   A    
C78   C114  S    
C118  H37   S    
Cu6   O42   S    
C83   H29   S    
C36   O34   A    
C35   C121  S    
C79   O23   A    
C117  C120  S    
C81   C96   A    
Cu10  O16   S    
C22   C136  S    
Cu6   O47   S    
C108  C134  S    
C120  H42   S    
C91   C93   A    
C55   C79   S    
C81   C87   A    
C88   C90   A    
C34   C40   A    
C45   H5    S    
Cu11  O13   S    
C8    C84   S    
C18   C110  S    
C56   C80   S    
C6    C10   S    
Cu8   O10   S    
C67   O45   A    
C19   C133  S    
C72   C104  S    
C2    O2    A    
C71   O7    A    
C25   C127  T    
C107  C133  S    
C5    H53   S    
C138  H69   S    
C90   C91   A    
C14   C136  S    
C28   C30   A    
C84   C108  S    
Cu3   O27   S    
C54   H12   S    
C70   O48   A    
C69   C127  S    
C101  C116  A    
C32   C34   A    
Cu11  O25   S    
C36   O30   A    
C132  H58   S    
C14   C18   S    
C17   H45   S    
C69   O5    A    
C4    C8    S    
C47   C49   A    
C14   H50   S    
C77   O20   A    
C33   C39   A    
C73   O12   A    
Cu1   O1    S    
C61   H13   S    
C6    H54   S    
C131  C135  S    
C11   C133  S    
C98   H26   S    
C82   C88   A    
C118  C119  S    
C16   H44   S    
C33   H61   S    
C3    H51   S    
C31   C33   A    
Cu2   O32   S    
C23   C125  T    
C10   C26   S    
C37   C123  S    
C60   O40   A    
C80   O25   A    
C1    C29   S    
C92   H64   S    
C52   C54   A    
C53   C55   A    
C38   O32   A    
C54   C56   A    
Cu4   O35   S    
C101  C119  S    
C109  C135  S    
C2    O28   A    
C112  H34   S    
Cu12  O26   S    
C129  H55   S    
C48   C58   A    
C36   C122  S    
C43   H78   S    
C27   C41   A    
C63   H17   S    
C85   H31   S    
C90   H22   S    
Cu4   O28   S    
C26   C128  T    
C89   C92   A    
C84   H30   S    
Cu3   O34   S    
Cu7   O4    S    
C9    C17   S    
C60   O38   A    
C140  H75   S    
C105  H27   S    
C67   O3    A    
C68   C126  S    
C130  H56   S    
Cu10  O20   S    
C70   C128  S    
C82   C100  S    
C75   O16   A    
Cu8   O5    S    
C117  H35   S    
C22   C124  T    
C97   H23   S    
C70   O6    A    
Cu1   O30   S    
C87   C89   A    
Cu12  O14   S    
C29   C31   A    
C30   C32   A    
C28   C42   A    
C83   C107  S    
Cu2   O38   S    
O50   C138  S    
C16   C108  S    
