data_mof_unit_47953.cif
_audit_creation_date              2012-12-10T16:59:22-0500
_audit_creation_method            fapswitch 2.2
_symmetry_space_group_name_H-M    P1
_symmetry_Int_Tables_number       1
_space_group_crystal_system       triclinic
_cell_length_a                    7.732115
_cell_length_b                    8.550536
_cell_length_c                    27.630919
_cell_angle_alpha                 91.141491
_cell_angle_beta                  86.680072
_cell_angle_gamma                 92.889079
_cell_volume                      1821.13440094

loop_
_atom_site_label
_atom_site_type_symbol
_atom_type_description
_atom_site_fract_x
_atom_site_fract_y
_atom_site_fract_z
_atom_type_partial_charge
C1    C     C_R   0.544348 0.794685 0.498704 0.888122
C2    C     C_R   0.568509 0.640865 0.125915 -0.094942
C3    C     C_R   0.512287 0.489912 0.646632 -0.289668
C4    C     C_R   0.487727 0.510217 0.353375 -0.289400
C5    C     C_R   0.598275 0.619019 0.024193 -0.014360
C6    C     C_R   0.401562 0.381453 0.975833 -0.014366
C7    C     C_R   0.371482 0.404819 0.026334 -0.056909
C8    C     C_R   0.628336 0.595670 0.973690 -0.056923
C9    C     C_R   0.480475 0.515234 0.050549 0.005897
C10   C     C_R   0.519358 0.485238 0.949475 0.005901
C11   C     C_R   0.668056 0.751613 0.048993 0.646568
C12   C     C_R   0.455652 0.205315 0.501296 0.888074
C13   C     C_R   0.331813 0.248834 0.951037 0.646555
C14   C     C_R   0.661496 0.757704 0.099310 -0.173601
C15   C     C_R   0.338428 0.242698 0.900720 -0.173582
C16   C     C_R   0.503548 0.497925 0.594014 0.935130
C17   C     C_R   0.496457 0.502102 0.405988 0.935175
C18   C     C_R   0.770650 0.669103 0.946421 0.153867
C19   C     C_R   0.229149 0.331409 0.053601 0.153858
C20   C     C_2   0.560207 0.954542 0.489353 -0.065039
C21   C     C_2   0.439792 0.045457 0.510647 -0.065067
C22   C     C_R   0.642506 0.575557 0.820985 0.680313
C23   C     C_R   0.532338 0.474390 0.898398 -0.138385
C24   C     C_R   0.357330 0.424891 0.179038 0.680081
C25   C     C_R   0.433544 0.359951 0.823563 0.629622
C26   C     C_R   0.566437 0.640384 0.176463 0.629872
C27   C     C_R   0.667450 0.429243 0.717105 0.631347
C28   C     C_R   0.332823 0.571609 0.282923 0.631393
C29   C     C_R   0.661288 0.436977 0.667076 0.550696
C30   C     C_R   0.339003 0.563805 0.332951 0.550612
C31   C     C_R   0.370307 0.533464 0.676999 -0.203619
C32   C     C_R   0.629436 0.466111 0.322995 -0.203633
C33   C     C_R   0.377552 0.526097 0.727010 -0.127049
C34   C     C_R   0.467515 0.526059 0.101627 -0.138369
C35   C     C_R   0.622177 0.473565 0.272985 -0.127205
C36   C     C_R   0.526156 0.474605 0.747040 0.030251
C37   C     C_R   0.473832 0.525691 0.252976 0.030454
C38   C     C_R   0.647493 0.576973 0.871627 -0.207068
C39   C     C_R   0.352325 0.423499 0.128397 -0.206978
C40   C     C_R   0.770817 0.669952 0.895921 0.640645
C41   C     C_R   0.228965 0.330564 0.104101 0.640652
C42   C     C_R   0.431408 0.359531 0.874112 -0.094882
F1    F     F_    0.031329 0.363934 0.454801 -0.522311
F2    F     F_    0.273819 0.117645 0.974962 -0.603310
F3    F     F_    0.968671 0.636069 0.545199 -0.522117
F4    F     F_    0.901494 0.750457 0.870728 -0.574001
F5    F     F_    0.098263 0.250085 0.129294 -0.574029
F6    F     F_    0.200714 0.610918 0.361090 -0.577052
F7    F     F_    0.799887 0.390440 0.638954 -0.577042
F8    F     F_    0.190022 0.624441 0.263402 -0.581706
F9    F     F_    0.810513 0.377001 0.736642 -0.581921
F10   F     F_    0.726036 0.882819 0.025075 -0.603305
H1    H     H_    0.254417 0.574394 0.662160 0.246563
H2    H     H_    0.745107 0.424664 0.337822 0.246203
H3    H     H_    0.268306 0.561252 0.750305 0.227365
H4    H     H_    0.731202 0.437975 0.249678 0.227115
H5    H     H_    0.724380 0.857051 0.117273 0.235784
H6    H     H_    0.275583 0.143323 0.882761 0.235794
I1    I     I_    0.018151 0.728529 0.975133 -0.074216
I2    I     I_    0.981666 0.271983 0.024880 -0.074252
I3    I     I_    0.738696 0.015259 0.429156 -0.098824
I4    I     I_    0.261303 0.984741 0.570843 -0.099016
N1    N     N_R   0.533932 0.470142 0.798385 -0.336155
N2    N     N_R   0.466008 0.530216 0.201636 -0.336166
N3    N     N_2   0.950320 0.457960 0.486880 0.279389
N4    N     N_2   0.049680 0.542040 0.513120 0.279473
O1    O     O_R   0.389250 0.738570 0.503220 -0.607471
O2    O     O_2   0.256908 0.320978 0.205597 -0.429944
O3    O     O_2   0.664204 0.748290 0.200371 -0.487151
O4    O     O_2   0.335884 0.251955 0.799658 -0.487256
O5    O     O_R   0.610750 0.261430 0.496780 -0.607580
O6    O     O_R   0.678390 0.711630 0.494810 -0.572264
O7    O     O_R   0.321610 0.288370 0.505190 -0.572262
O8    O     O_R   0.355440 0.513440 0.575450 -0.607338
O9    O     O_R   0.644560 0.486560 0.424550 -0.607325
O10   O     O_R   0.644590 0.486500 0.567040 -0.531713
O11   O     O_R   0.355410 0.513500 0.432960 -0.531753
O12   O     O_2   0.742843 0.679540 0.794429 -0.429804
Zn1   Zn    Zn3+2 0.306940 0.517990 0.505620 1.192808
Zn2   Zn    Zn3+2 0.693060 0.482010 0.494380 1.192745

loop_
_geom_bond_atom_site_label_1
_geom_bond_atom_site_label_2
_ccdc_geom_bond_type
C33   H3    S    
C27   C29   A    
C33   C36   A    
C39   C41   A    
C29   F7    S    
C40   F4    S    
N4    Zn1   S    
C23   C42   A    
C16   O8    A    
C30   F6    S    
C35   C37   A    
C5    C11   A    
C11   C14   A    
C22   C38   A    
C24   C39   A    
C25   N1    A    
C20   I3    S    
C3    C29   A    
C18   C40   A    
C26   N2    A    
C11   F10   S    
C22   N1    A    
C28   F8    S    
C31   C33   A    
C36   N1    S    
O9    Zn2   S    
C2    C34   A    
C24   N2    A    
N3    Zn2   S    
C12   O7    A    
C32   H2    S    
O5    Zn2   S    
C27   F9    S    
O11   Zn1   S    
C41   F5    S    
C1    O6    A    
C34   C39   A    
C32   C35   A    
O1    Zn1   S    
C22   O12   S    
C12   C21   S    
C8    C18   A    
C5    C9    A    
F1    N3    S    
C17   O11   A    
O7    Zn1   S    
C2    C26   A    
C31   H1    S    
C3    C31   A    
C21   I4    S    
C4    C32   A    
C4    C17   S    
C12   O5    A    
C7    C19   A    
O8    Zn1   S    
C13   C15   A    
C9    C34   A    
C10   C23   A    
C15   H6    S    
C37   N2    S    
C7    C9    A    
C14   H5    S    
C1    C20   S    
C35   H4    S    
C16   O10   A    
O10   Zn2   S    
C15   C42   A    
C25   C42   A    
C6    C10   A    
C5    C8    A    
C6    C7    A    
C27   C36   A    
C23   C38   A    
C28   C30   A    
O6    Zn2   S    
C6    C13   A    
C38   C40   A    
C28   C37   A    
C1    O1    A    
C2    C14   A    
C24   O2    S    
C18   I1    S    
C20   C21   D    
C8    C10   A    
N3    N4    D    
F3    N4    S    
C17   O9    A    
C26   O3    S    
C19   I2    S    
C25   O4    S    
C13   F2    S    
C4    C30   A    
C3    C16   S    
C19   C41   A    
