data_mof_unit_63388.cif
_audit_creation_date              2012-12-10T19:27:51-0500
_audit_creation_method            fapswitch 2.2
_symmetry_space_group_name_H-M    P1
_symmetry_Int_Tables_number       1
_space_group_crystal_system       triclinic
_cell_length_a                    17.773281
_cell_length_b                    16.43348
_cell_length_c                    10.81486
_cell_angle_alpha                 89.754005
_cell_angle_beta                  90.364056
_cell_angle_gamma                 89.662001
_cell_volume                      3158.62197522

loop_
_atom_site_label
_atom_site_type_symbol
_atom_type_description
_atom_site_fract_x
_atom_site_fract_y
_atom_site_fract_z
_atom_type_partial_charge
Br1   Br    Br    0.270327 0.661435 0.381997 -0.419957
Br2   Br    Br    0.279268 0.335063 0.618929 -0.368122
Br3   Br    Br    0.614786 0.879019 0.697826 -0.339023
Br4   Br    Br    0.609564 0.118270 0.704991 -0.363403
Br5   Br    Br    0.403835 0.650667 0.113446 -0.419568
Br6   Br    Br    0.335387 0.464931 0.150001 -0.399124
C1    C     C_R   0.354866 0.500028 0.500622 0.893603
C2    C     C_1   0.032444 0.496424 0.508104 0.028093
C3    C     C_R   0.150006 0.564567 0.459965 -0.144046
C4    C     C_R   0.153350 0.430803 0.552322 -0.149523
C5    C     C_R   0.228373 0.566334 0.456967 0.267879
C6    C     C_R   0.231852 0.430871 0.550759 0.243618
C7    C     C_R   0.271227 0.499319 0.503002 -0.178852
C8    C     C_R   0.500138 0.500128 0.259559 0.953850
C9    C     C_R   0.112782 0.497290 0.507293 0.017804
C10   C     C_R   0.548221 0.827409 0.582729 0.211506
C11   C     C_R   0.545888 0.171596 0.585768 0.206666
C12   C     C_3   0.571203 0.454157 0.928611 -0.367676
C13   C     C_R   0.546577 0.741569 0.579326 0.054124
C14   C     C_R   0.544392 0.257417 0.582618 0.086563
C15   C     C_R   0.455388 0.744609 0.420243 0.135512
C16   C     C_R   0.456015 0.256811 0.418541 0.166541
C17   C     C_R   0.455136 0.830356 0.420058 -0.265902
C18   C     C_R   0.455828 0.171014 0.418223 -0.266845
C19   C     C_R   0.501644 0.873183 0.502169 0.031216
C20   C     C_R   0.501074 0.127035 0.502333 0.044973
C21   C     C_1   0.501312 0.962831 0.502053 0.088842
C22   C     C_1   0.501083 0.037389 0.502019 0.091038
C23   C     C_R   0.845827 0.571484 0.506525 -0.112629
C24   C     C_R   0.644657 0.499750 0.500306 0.832211
C25   C     C_R   0.499957 0.499838 0.740650 0.871795
C26   C     C_3   0.494398 0.589294 0.069336 0.039351
C27   C     C_3   0.433204 0.448045 0.071674 0.039500
C28   C     C_3   0.501756 0.588854 0.927821 0.148907
C29   C     C_3   0.427744 0.457078 0.929581 0.141338
C30   C     C_3   0.575325 0.459706 0.072227 0.574669
C31   C     C_3   0.500020 0.499904 0.122066 -0.249993
C32   C     C_3   0.500399 0.499495 0.878494 -0.221364
C33   C     C_R   0.845357 0.423956 0.503539 -0.114645
C34   C     C_R   0.767408 0.572434 0.504312 -0.126299
C35   C     C_R   0.766953 0.424704 0.501323 -0.135366
C36   C     C_R   0.727313 0.498996 0.501734 -0.031945
C37   C     C_R   0.884671 0.497295 0.506218 0.118568
C38   C     C_1   0.964998 0.496518 0.507689 -0.017843
Cl1   Cl    Cl    0.585162 0.643557 0.883894 -0.547904
Cl2   Cl    Cl    0.409698 0.358223 0.865366 -0.491645
Cl3   Cl    Cl    0.656408 0.517365 0.118363 -0.527886
Cl4   Cl    Cl    0.592612 0.358704 0.132049 -0.537604
Cu1   Cu    Cu3+1 0.499980 0.580420 0.499990 1.025378
Cu2   Cu    Cu3+1 0.499980 0.419580 0.499990 1.049163
H1    H     H_    0.540515 0.626028 0.110199 0.234794
H2    H     H_    0.378298 0.495842 0.905067 0.174377
H3    H     H_    0.622992 0.479119 0.885982 0.227703
H4    H     H_    0.568795 0.389598 0.898424 0.230412
H5    H     H_    0.876138 0.628493 0.508424 0.156050
H6    H     H_    0.875279 0.366314 0.503102 0.156479
H7    H     H_    0.738283 0.630510 0.504801 0.171119
H8    H     H_    0.737478 0.367222 0.499381 0.172805
H9    H     H_    0.117856 0.615810 0.424000 0.183809
H10   H     H_    0.123811 0.378562 0.589025 0.183658
H11   H     H_    0.445237 0.383390 0.095139 0.221575
H12   H     H_    0.583311 0.707003 0.639906 0.198854
H13   H     H_    0.579031 0.291196 0.646770 0.147783
H14   H     H_    0.420081 0.712808 0.355863 0.213407
H15   H     H_    0.420781 0.289808 0.353344 0.156970
H16   H     H_    0.418845 0.862944 0.355771 0.187789
H17   H     H_    0.420473 0.139251 0.352553 0.175702
H18   H     H_    0.453755 0.622930 0.885543 0.179833
N1    N     N_R   0.499970 0.701220 0.499970 -0.215121
N2    N     N_R   0.499970 0.298780 0.499970 -0.194719
O1    O     O_R   0.391240 0.567930 0.499990 -0.557393
O2    O     O_R   0.391240 0.432070 0.499990 -0.544203
O3    O     O_R   0.499970 0.567910 0.317690 -0.566165
O4    O     O_R   0.499970 0.432090 0.317690 -0.560953
O5    O     O_R   0.608730 0.567880 0.500000 -0.587832
O6    O     O_R   0.608730 0.432120 0.500000 -0.590180
O7    O     O_R   0.500000 0.567910 0.682300 -0.576152
O8    O     O_R   0.500000 0.432090 0.682300 -0.545943

loop_
_geom_bond_atom_site_label_1
_geom_bond_atom_site_label_2
_ccdc_geom_bond_type
C35   C36   A    
Br1   C5    S    
Br2   C6    S    
C33   C35   A    
C11   C20   A    
C8    O4    A    
C17   H16   S    
C30   C31   S    
C18   C20   A    
C35   H8    S    
C4    C9    A    
Cu2   O4    S    
C1    O1    A    
C13   H12   S    
C11   C14   A    
C30   Cl3   S    
Cu2   O2    S    
C15   H14   S    
C12   H3    S    
Cu1   O5    S    
C18   H17   S    
Br5   C26   S    
C34   C36   A    
Cu1   N1    S    
C23   C37   A    
C14   N2    A    
Cu2   O8    S    
C25   O7    A    
C8    O3    A    
C29   C32   S    
C28   H18   S    
C1    O2    A    
C33   C37   A    
C23   H5    S    
C27   C31   S    
C15   N1    A    
C3    H9    S    
C26   C28   S    
C4    H10   S    
C37   C38   S    
C16   H15   S    
Cu2   O6    S    
C24   O6    A    
C33   H6    S    
C28   Cl1   S    
C26   C31   S    
C3    C5    A    
C4    C6    A    
Br4   C11   S    
C2    C9    S    
C15   C17   A    
C16   C18   A    
C13   N1    A    
C29   H2    S    
C25   O8    A    
C26   H1    S    
C10   C19   A    
C34   H7    S    
C28   C32   S    
C2    C38   T    
Br6   C27   S    
C19   C21   S    
C20   C22   S    
C25   C32   S    
C14   H13   S    
C3    C9    A    
C8    C31   S    
C24   O5    A    
C5    C7    A    
Cu2   N2    S    
C10   C13   A    
C23   C34   A    
C27   C29   S    
Cu1   O7    S    
C30   Cl4   S    
Cu1   O3    S    
C17   C19   A    
C12   C32   S    
C12   H4    S    
C1    C7    S    
C6    C7    A    
C27   H11   S    
Cu1   Cu2   S    
Cu1   O1    S    
C21   C22   T    
C24   C36   S    
C29   Cl2   S    
C12   C30   S    
C16   N2    A    
Br3   C10   S    
