data_mof_unit_21250.cif
_audit_creation_date              2012-12-11T15:49:09-0500
_audit_creation_method            fapswitch 2.2
_symmetry_space_group_name_H-M    P1
_symmetry_Int_Tables_number       1
_space_group_crystal_system       triclinic
_cell_length_a                    21.646833
_cell_length_b                    7.242498
_cell_length_c                    14.906769
_cell_angle_alpha                 89.998258
_cell_angle_beta                  107.082496
_cell_angle_gamma                 89.999785
_cell_volume                      2233.93698884

loop_
_atom_site_label
_atom_site_type_symbol
_atom_type_description
_atom_site_fract_x
_atom_site_fract_y
_atom_site_fract_z
_atom_type_partial_charge
O1    O     O_R   0.335860 0.638190 0.002110 -0.539652
O2    O     O_R   0.664140 0.361810 0.997890 -0.541386
O3    O     O_R   0.164140 0.138190 0.997890 -0.539652
O4    O     O_R   0.835860 0.861810 0.002110 -0.541386
O5    O     O_R   0.217530 0.305920 0.861960 -0.536820
O6    O     O_R   0.782470 0.694080 0.138040 -0.535826
O7    O     O_R   0.282470 0.805920 0.138040 -0.536830
O8    O     O_R   0.717530 0.194080 0.861960 -0.535833
C1    C     C_R   0.206110 0.476610 0.825852 0.699451
C2    C     C_R   0.794407 0.522872 0.173970 0.685968
C3    C     C_R   0.293894 0.976604 0.174149 0.699414
C4    C     C_R   0.705594 0.022878 0.826029 0.685950
O9    O     O_R   0.338690 0.308320 0.993240 -0.523367
O10   O     O_R   0.661310 0.691680 0.006760 -0.523938
O11   O     O_R   0.161310 0.808320 0.006760 -0.523364
O12   O     O_R   0.838690 0.191680 0.993240 -0.523933
O13   O     O_R   0.286170 0.140430 0.130100 -0.530244
O14   O     O_R   0.713830 0.859570 0.869900 -0.534037
O15   O     O_R   0.213830 0.640430 0.869900 -0.530248
O16   O     O_R   0.786170 0.359570 0.130100 -0.534019
C5    C     C_R   0.365719 0.477435 0.001958 0.710762
C6    C     C_R   0.636195 0.521884 0.006982 0.705069
C7    C     C_R   0.134281 0.977436 0.998043 0.710768
C8    C     C_R   0.863805 0.021885 0.993019 0.705111
O17   O     O_3   0.232630 0.472410 0.044750 -0.373260
O18   O     O_3   0.767370 0.527590 0.955250 -0.367404
O19   O     O_3   0.267370 0.972410 0.955250 -0.373252
O20   O     O_3   0.732630 0.027590 0.044750 -0.367399
V1    V     V_3+5 0.253220 0.196620 0.991700 1.480848
V2    V     V_3+5 0.746780 0.803380 0.008300 1.491003
V3    V     V_3+5 0.246780 0.696620 0.008300 1.480839
V4    V     V_3+5 0.753220 0.303380 0.991700 1.491019
C9    C     C_R   0.024480 0.830295 0.973414 0.175744
C10   C     C_R   0.963202 0.166424 0.965470 0.189847
C11   C     C_R   0.475522 0.330288 0.026591 0.175753
C12   C     C_R   0.536798 0.666415 0.034532 0.189865
C13   C     C_R   0.961763 0.837903 0.983286 -0.167972
C14   C     C_R   0.030591 0.159512 0.980009 -0.174191
C15   C     C_R   0.538239 0.337896 0.016719 -0.167969
C16   C     C_R   0.469409 0.659505 0.019993 -0.174117
H1    H     H_    0.934887 0.711684 0.980453 0.183273
H2    H     H_    0.056315 0.284011 0.975487 0.188163
H3    H     H_    0.565116 0.211677 0.019553 0.183272
H4    H     H_    0.443684 0.784004 0.024515 0.188149
C17   C     C_R   0.931066 0.009440 0.984288 -0.151818
C18   C     C_R   0.063227 0.988850 0.988869 -0.146058
C19   C     C_R   0.568934 0.509435 0.015714 -0.151830
C20   C     C_R   0.436773 0.488844 0.011133 -0.146045
C21   C     C_R   0.677471 0.008111 0.724454 -0.059036
C22   C     C_R   0.321459 0.981966 0.276265 -0.059520
C23   C     C_R   0.822537 0.508085 0.275543 -0.059081
C24   C     C_R   0.178554 0.481986 0.723737 -0.059525
C25   C     C_R   0.687511 0.906452 0.575336 -0.136982
C26   C     C_R   0.308541 0.993074 0.431480 -0.140641
C27   C     C_R   0.812509 0.406422 0.424669 -0.136977
C28   C     C_R   0.191486 0.492977 0.568528 -0.140643
C29   C     C_R   0.715984 0.952607 0.668995 -0.146009
C30   C     C_R   0.281631 0.998298 0.334331 -0.170696
C31   C     C_R   0.784030 0.452561 0.331009 -0.146014
C32   C     C_R   0.218391 0.498194 0.665678 -0.170708
C33   C     C_R   0.610310 0.016861 0.686130 -0.174491
C34   C     C_R   0.387978 0.958317 0.315479 -0.158294
C35   C     C_R   0.889699 0.516849 0.313860 -0.174278
C36   C     C_R   0.112033 0.458435 0.684519 -0.158282
C37   C     C_R   0.579690 0.954248 0.593741 0.086589
C38   C     C_R   0.416339 0.943167 0.413464 0.079746
C39   C     C_R   0.920327 0.454265 0.406256 0.086677
C40   C     C_R   0.083679 0.443241 0.586537 0.079738
C41   C     C_R   0.619936 0.905740 0.537551 0.047764
C42   C     C_R   0.375419 0.967541 0.471334 0.061622
C43   C     C_R   0.880084 0.405750 0.462452 0.047725
C44   C     C_R   0.124604 0.467541 0.528670 0.061682
C45   C     C_R   0.510883 0.941808 0.554732 -0.109528
C46   C     C_R   0.484119 0.913315 0.455747 -0.120599
C47   C     C_R   0.989136 0.441878 0.445268 -0.109471
C48   C     C_R   0.015900 0.413398 0.544255 -0.120632
C49   C     C_R   0.526106 0.849522 0.404215 0.476730
C50   C     C_R   0.467526 0.947448 0.610717 0.459067
C51   C     C_R   0.973917 0.349600 0.595794 0.476714
C52   C     C_R   0.032496 0.447534 0.389286 0.459079
C53   C     C_R   0.592762 0.850851 0.444962 -0.244138
C54   C     C_R   0.401184 0.963712 0.568468 -0.267092
C55   C     C_R   0.907262 0.350897 0.555048 -0.244157
C56   C     C_R   0.098841 0.463737 0.431537 -0.267215
H5    H     H_    0.623521 0.805498 0.403420 0.161959
H6    H     H_    0.369528 0.972851 0.612790 0.144614
H7    H     H_    0.876506 0.305542 0.596595 0.161969
H8    H     H_    0.130499 0.472855 0.387214 0.144563
H9    H     H_    0.416398 0.958423 0.267626 0.197650
H10   H     H_    0.583597 0.073006 0.730394 0.165667
H11   H     H_    0.083604 0.458636 0.732361 0.197638
H12   H     H_    0.916402 0.573014 0.269587 0.165658
H13   H     H_    0.229903 0.015021 0.304489 0.104288
H14   H     H_    0.767947 0.942278 0.698688 0.124946
H15   H     H_    0.270123 0.514825 0.695524 0.104334
H16   H     H_    0.732066 0.442210 0.301321 0.124950
H17   H     H_    0.718303 0.865584 0.533085 0.122675
H18   H     H_    0.277004 0.008494 0.475609 0.117071
H19   H     H_    0.781722 0.365542 0.466927 0.122676
H20   H     H_    0.223028 0.508317 0.524401 0.117076
I1    I     I_    0.045642 0.625603 0.885783 -0.415661
I2    I     I_    0.906882 0.368677 0.872810 -0.361392
I3    I     I_    0.454358 0.125585 0.114222 -0.415656
I4    I     I_    0.593118 0.868648 0.127196 -0.361369
O21   O     O_3   0.503592 0.775831 0.315030 -0.544358
C57   C     C_3   0.489123 0.587637 0.322513 -0.191922
H21   H     H_    0.450478 0.569383 0.357215 0.126074
H22   H     H_    0.533058 0.508355 0.360616 0.140725
H23   H     H_    0.470977 0.529130 0.250756 0.188249
O22   O     O_3   0.487997 0.928111 0.707171 -0.563251
C58   C     C_3   0.494209 0.738238 0.729102 -0.253664
H24   H     H_    0.531082 0.671540 0.701165 0.140773
H25   H     H_    0.446982 0.665737 0.702612 0.138745
H26   H     H_    0.510640 0.722936 0.806580 0.168031
O23   O     O_3   0.996436 0.275916 0.684984 -0.544352
C59   C     C_3   0.010893 0.087710 0.677508 -0.191873
H27   H     H_    0.049585 0.069451 0.642897 0.126124
H28   H     H_    0.966969 0.008476 0.639320 0.140636
H29   H     H_    0.028969 0.029149 0.749263 0.188270
O24   O     O_3   0.012013 0.428241 0.292832 -0.563277
C60   C     C_3   0.006029 0.238361 0.270890 -0.253597
H30   H     H_    0.969357 0.171074 0.299030 0.140682
H31   H     H_    0.053379 0.166423 0.297168 0.138754
H32   H     H_    0.989460 0.223090 0.193415 0.168036

loop_
_geom_bond_atom_site_label_1
_geom_bond_atom_site_label_2
_ccdc_geom_bond_type
O17   V3    S    
C55   H7    S    
C52   O24   S    
O1    C5    A    
C27   C31   A    
O19   V1    S    
O13   V1    S    
C45   C46   A    
O3    C7    A    
C58   H24   S    
C48   C51   A    
C52   C56   A    
O4    V2    S    
O15   V3    S    
C4    C21   S    
C21   C29   A    
O24   C60   S    
O18   V4    S    
C10   I2    S    
C9    I1    S    
C8    C17   S    
C36   C40   A    
O9    V1    S    
C30   H13   S    
C14   H2    S    
C51   O23   S    
O16   V4    S    
O4    C8    A    
C57   H21   S    
C2    C23   S    
O23   C59   S    
C38   C46   A    
C34   H9    S    
O1    V3    S    
C37   C45   A    
C59   H27   S    
C12   C19   A    
O2    V4    S    
O3    V1    S    
O22   C58   S    
C60   H32   S    
C24   C32   A    
C1    O15   A    
C2    O16   A    
C28   C44   A    
C46   C49   A    
C35   H12   S    
O2    C6    A    
C45   C50   A    
O14   V2    S    
C47   C52   A    
C43   C55   A    
C23   C35   A    
C40   C44   A    
C5    C20   S    
O11   C7    A    
C6    C19   S    
C25   C41   A    
O12   C8    A    
C7    C18   S    
C9    C18   A    
C27   H19   S    
C1    C24   S    
O10   V2    S    
C11   C20   A    
O7    C3    A    
O5    V1    S    
C35   C39   A    
C21   C33   A    
C34   C38   A    
C22   C30   A    
C12   C16   A    
O7    V3    S    
C58   H25   S    
C24   C36   A    
C25   C29   A    
C15   H3    S    
C25   H17   S    
C54   H6    S    
C9    C13   A    
C28   C32   A    
O8    V4    S    
C11   C15   A    
C47   C48   A    
O5    C1    A    
C50   C54   A    
C26   C42   A    
C49   C53   A    
O8    C4    A    
O9    C5    A    
C50   O22   S    
C10   C17   A    
C40   C48   A    
C60   H30   S    
C44   C56   A    
O6    V2    S    
C29   H14   S    
C22   C34   A    
C23   C31   A    
C31   H16   S    
C28   H20   S    
C13   C17   A    
C33   H10   S    
C15   C19   A    
C26   C30   A    
C16   C20   A    
C3    O13   A    
C10   C14   A    
C56   H8    S    
O6    C2    A    
O11   V3    S    
O12   V4    S    
O21   C57   S    
C11   I3    S    
C59   H29   S    
C12   I4    S    
O10   C6    A    
C49   O21   S    
C3    C22   S    
C14   C18   A    
C51   C55   A    
C38   C42   A    
C57   H22   S    
C37   C41   A    
O20   V2    S    
C59   H28   S    
C58   H26   S    
C39   C43   A    
C13   H1    S    
C42   C54   A    
C53   H5    S    
C60   H31   S    
C41   C53   A    
C32   H15   S    
C33   C37   A    
C16   H4    S    
C39   C47   A    
C4    O14   A    
C26   H18   S    
C36   H11   S    
C27   C43   A    
C57   H23   S    
