data_mof_unit_12027.cif
_audit_creation_date              2012-12-11T14:25:49-0500
_audit_creation_method            fapswitch 2.2
_symmetry_space_group_name_H-M    P1
_symmetry_Int_Tables_number       1
_space_group_crystal_system       triclinic
_cell_length_a                    6.932905
_cell_length_b                    14.86743
_cell_length_c                    16.110736
_cell_angle_alpha                 90.263428
_cell_angle_beta                  90.651477
_cell_angle_gamma                 89.971796
_cell_volume                      1660.4806753

loop_
_atom_site_label
_atom_site_type_symbol
_atom_type_description
_atom_site_fract_x
_atom_site_fract_y
_atom_site_fract_z
_atom_type_partial_charge
O1    O     O_R   0.494490 0.416160 0.413410 -0.538576
O2    O     O_R   0.823830 0.407240 0.585990 -0.506145
O3    O     O_R   0.994160 0.583840 0.586590 -0.556391
C1    C     C_R   0.656101 0.387325 0.615875 0.788771
O4    O     O_R   0.824200 0.405280 0.414020 -0.543475
O5    O     O_R   0.994530 0.581860 0.413390 -0.550625
C2    C     C_R   0.654282 0.385809 0.383999 0.743623
O6    O     O_R   0.494110 0.418140 0.586610 -0.546887
O7    O     O_3   0.660810 0.557940 0.500000 -0.393064
V1    V     V_3+5 0.935650 0.489250 0.500000 1.441299
O8    O     O_R   0.324250 0.592760 0.414010 -0.545693
C3    C     C_R   0.155343 0.612339 0.384016 0.730448
O9    O     O_R   0.323880 0.594720 0.585980 -0.535951
C4    C     C_R   0.153778 0.620873 0.611341 0.696571
V2    V     V_3+5 0.435660 0.510750 0.500000 1.407658
O10   O     O_3   0.160630 0.442060 0.500000 -0.359235
C5    C     C_3   0.949390 0.682997 0.728146 -0.424257
H1    H     H_    0.819951 0.694675 0.688448 0.120304
H2    H     H_    0.940201 0.611921 0.748766 0.172576
C6    C     C_3   0.939244 0.747056 0.804472 0.327413
H3    H     H_    0.804283 0.787266 0.800545 0.028962
C7    C     C_3   0.136463 0.796563 0.640581 0.686954
C8    C     C_3   0.312198 0.686127 0.738427 -0.395031
C9    C     C_3   0.137119 0.696138 0.676897 -0.067355
H4    H     H_    0.449040 0.700179 0.705500 0.172952
H5    H     H_    0.322705 0.615941 0.761064 0.160265
C10   C     C_3   0.117122 0.811706 0.805527 -0.088310
C11   C     C_3   0.142223 0.861586 0.720077 0.153055
C12   C     C_3   0.297857 0.750133 0.814034 -0.398914
H6    H     H_    0.292538 0.710571 0.872087 0.211350
H7    H     H_    0.432193 0.790902 0.818465 0.131496
H8    H     H_    0.294728 0.884539 0.724620 0.083511
C13   C     C_2   0.992958 0.693775 0.268428 -0.115745
C14   C     C_2   0.149125 0.680533 0.317480 -0.320866
H9    H     H_    0.866332 0.652131 0.277015 0.131855
H10   H     H_    0.278169 0.720425 0.309654 0.128579
C15   C     C_2   0.977992 0.764210 0.203067 -0.131659
C16   C     C_2   0.129250 0.810325 0.173303 -0.316926
H11   H     H_    0.835001 0.776555 0.177319 0.136278
H12   H     H_    0.274173 0.796392 0.195606 0.129662
C17   C     C_2   0.776041 0.230066 0.801823 -0.283465
C18   C     C_2   0.611915 0.188087 0.823543 -0.382269
H13   H     H_    0.909098 0.205488 0.829484 0.147726
H14   H     H_    0.473523 0.211334 0.800370 0.139424
C19   C     C_2   0.788594 0.306352 0.740137 0.451770
C20   C     C_2   0.646101 0.319300 0.682874 -0.358150
H15   H     H_    0.516044 0.279000 0.683541 0.100791
C21   C     C_2   0.762208 0.232504 0.195547 -0.017133
C22   C     C_2   0.623127 0.167449 0.184644 -0.211242
C23   C     C_2   0.785346 0.285465 0.274291 -0.037426
C24   C     C_2   0.635504 0.326232 0.310828 -0.275805
H16   H     H_    0.930537 0.297833 0.297725 0.153784
H17   H     H_    0.491942 0.318194 0.284004 0.153435
O11   O     O_R   0.770850 0.076180 0.907410 -0.540984
O12   O     O_R   0.440600 0.088970 0.079950 -0.538637
O13   O     O_R   0.270430 0.912340 0.080550 -0.543057
C25   C     C_R   0.610640 0.110934 0.108384 0.648228
O14   O     O_R   0.441120 0.087010 0.907980 -0.541161
O15   O     O_R   0.270950 0.910370 0.907350 -0.549573
C26   C     C_R   0.609260 0.112235 0.882923 0.761598
O16   O     O_R   0.770320 0.078150 0.080620 -0.540491
O17   O     O_3   0.604200 0.936340 0.994000 -0.383801
V3    V     V_3+5 0.329300 0.004970 0.993950 1.412359
O18   O     O_R   0.941240 0.899420 0.907920 -0.550703
C27   C     C_R   0.109311 0.878309 0.878271 0.761987
O19   O     O_R   0.940720 0.901380 0.079890 -0.540829
C28   C     C_R   0.110863 0.879002 0.107538 0.753347
V4    V     V_3+5 0.829310 0.983370 0.993880 1.397772
O20   O     O_3   0.104280 0.052120 0.993920 -0.370270
O21   O     O_3   0.305564 0.806054 0.591263 -0.607872
C29   C     C_3   0.343506 0.894808 0.562845 0.066869
H18   H     H_    0.502140 0.901247 0.561445 0.145610
H19   H     H_    0.293814 0.949758 0.603864 0.143867
C30   C     C_3   0.261587 0.911306 0.475657 -0.344759
H20   H     H_    0.273446 0.849788 0.436810 0.198463
H21   H     H_    0.108050 0.930453 0.481081 0.215456
C31   C     C_3   0.363441 0.988727 0.432673 -0.763130
H22   H     H_    0.356066 0.050771 0.471221 0.244366
H23   H     H_    0.291475 0.001735 0.371988 0.236578
H24   H     H_    0.516596 0.971627 0.421235 0.240323
O22   O     O_3   0.949723 0.362922 0.735672 -0.564349
C32   C     C_3   0.075170 0.357706 0.805197 0.073653
H25   H     H_    0.161712 0.294859 0.801484 0.120313
H26   H     H_    0.994031 0.360723 0.864510 0.122909
C33   C     C_3   0.212974 0.437671 0.803773 -0.301378
H27   H     H_    0.285203 0.440660 0.742589 0.204189
H28   H     H_    0.128546 0.500281 0.812771 0.193403
C34   C     C_3   0.366185 0.431621 0.872270 -0.843410
H29   H     H_    0.297467 0.431951 0.934219 0.248774
H30   H     H_    0.464591 0.490282 0.868285 0.221691
H31   H     H_    0.452861 0.369362 0.865149 0.238889
C35   C     C_2   0.894953 0.257287 0.127153 0.355563
H32   H     H_    0.867107 0.235787 0.063756 0.055873
O23   O     O_2   0.036415 0.304239 0.140805 -0.543500
C36   C     C_2   0.493180 0.138262 0.252385 0.369078
H33   H     H_    0.353323 0.109479 0.237060 0.057039
O24   O     O_2   0.544799 0.140536 0.325054 -0.536202
O25   O     O_3   0.943646 0.696494 0.879226 -0.569018
C37   C     C_3   0.765188 0.655319 0.897381 0.050930
H34   H     H_    0.795354 0.583354 0.910642 0.153920
H35   H     H_    0.658565 0.656392 0.845190 0.091199
C38   C     C_3   0.679599 0.699796 0.974579 -0.279519
H36   H     H_    0.796804 0.715682 0.019993 0.211813
H37   H     H_    0.608813 0.763791 0.956395 0.193680
C39   C     C_3   0.533159 0.639106 0.016921 -0.844072
H38   H     H_    0.418055 0.617830 0.972734 0.237327
H39   H     H_    0.465985 0.676076 0.069230 0.233710
H40   H     H_    0.606006 0.578250 0.041898 0.240429
O26   O     O_3   0.969090 0.819664 0.591953 -0.591982
C40   C     C_3   0.927012 0.762792 0.523568 0.085023
H41   H     H_    0.827413 0.710393 0.545464 0.173236
H42   H     H_    0.059077 0.733159 0.496926 0.109814
C41   C     C_3   0.821732 0.814220 0.453855 -0.355993
H43   H     H_    0.768545 0.879279 0.477152 0.204179
H44   H     H_    0.922810 0.828502 0.402603 0.183201
C42   C     C_3   0.650437 0.761968 0.417802 -0.756265
H45   H     H_    0.697478 0.695910 0.393533 0.237465
H46   H     H_    0.583486 0.800702 0.366243 0.205169
H47   H     H_    0.541194 0.750369 0.466346 0.255661
O27   O     O_3   0.042968 0.945022 0.710471 -0.569850
C43   C     C_3   0.839262 0.942534 0.715308 0.131301
H48   H     H_    0.794193 0.939280 0.780589 0.083832
H49   H     H_    0.768923 0.885862 0.682416 0.138945
C44   C     C_3   0.759984 0.031340 0.681969 -0.318707
H50   H     H_    0.600340 0.032809 0.687635 0.131958
H51   H     H_    0.822767 0.085304 0.720664 0.213970
C45   C     C_3   0.816083 0.050948 0.592565 -0.644762
H52   H     H_    0.744848 0.003441 0.549587 0.199592
H53   H     H_    0.974803 0.047325 0.584838 0.247653
H54   H     H_    0.767722 0.119833 0.575896 0.202151

loop_
_geom_bond_atom_site_label_1
_geom_bond_atom_site_label_2
_ccdc_geom_bond_type
O19   V4    S    
C10   C12   S    
C17   C18   D    
C36   H33   S    
C1    O6    A    
O22   C32   S    
C1    C20   S    
C19   C20   D    
C39   H39   S    
C12   H6    S    
C30   H21   S    
C8    C12   S    
C15   C16   D    
O5    C3    A    
C31   H24   S    
O11   V4    S    
O14   C26   A    
V2    O10   S    
C5    C6    S    
C22   C25   S    
C42   H45   S    
C38   C39   S    
C8    H5    S    
C4    C9    S    
C40   H41   S    
C43   C44   S    
C13   H9    S    
O8    V2    S    
V3    O20   S    
V4    O20   S    
C30   C31   S    
O12   V3    S    
C23   H16   S    
C8    C9    S    
O21   C29   S    
O1    V2    S    
O7    V1    S    
C31   H22   S    
C41   C42   S    
C34   H29   S    
C33   H28   S    
O19   C28   A    
C7    C11   S    
O9    C4    A    
C17   H13   S    
C18   H14   S    
C5    H1    S    
C31   H23   S    
C39   H40   S    
C5    C9    S    
C30   H20   S    
C11   H8    S    
C11   O27   S    
C18   C26   S    
O4    C2    A    
O11   C26   A    
C23   C24   D    
C33   H27   S    
C13   C15   S    
C24   H17   S    
O2    C1    A    
C45   H53   S    
O17   V3    S    
C10   C27   S    
C37   H34   S    
C34   H31   S    
C7    O26   S    
C6    H3    S    
C35   O23   D    
C13   C14   D    
O13   V3    S    
C22   C36   S    
C38   H37   S    
C40   C41   S    
C43   H48   S    
O3    C4    A    
C44   C45   S    
C21   C22   D    
C37   H35   S    
C34   H30   S    
C32   H25   S    
O6    V2    S    
C32   H26   S    
O12   C25   A    
C7    C9    S    
C3    C14   S    
C45   H52   S    
O13   C28   A    
O18   V4    S    
O27   C43   S    
C44   H51   S    
C41   H43   S    
C33   C34   S    
O14   V3    S    
C20   H15   S    
O1    C2    A    
C19   O22   S    
O5    V1    S    
C29   C30   S    
O8    C3    A    
C36   O24   D    
C25   O16   A    
C6    C10   S    
C32   C33   S    
C39   H38   S    
O15   V3    S    
C42   H47   S    
O17   V4    S    
O18   C27   A    
O9    V2    S    
O7    V2    S    
C45   H54   S    
C2    C24   S    
O4    V1    S    
C12   H7    S    
O3    V1    S    
V1    O10   S    
O26   C40   S    
O15   C27   A    
C16   H12   S    
O16   V4    S    
C21   C23   S    
C35   H32   S    
C5    H2    S    
C42   H46   S    
C14   H10   S    
C8    H4    S    
C38   H36   S    
C40   H42   S    
C43   H49   S    
C29   H18   S    
C37   C38   S    
C6    O25   S    
C16   C28   S    
C15   H11   S    
O25   C37   S    
C21   C35   S    
C29   H19   S    
C10   C11   S    
C17   C19   S    
C7    O21   S    
C44   H50   S    
C41   H44   S    
O2    V1    S    
