data_mof_unit_51107.cif
_audit_creation_date              2012-10-26T20:32:01-0400
_audit_creation_method            fapswitch 2.2
_symmetry_space_group_name_H-M    P1
_symmetry_Int_Tables_number       1
_space_group_crystal_system       triclinic
_cell_length_a                    10.634498
_cell_length_b                    10.854598
_cell_length_c                    9.576331
_cell_angle_alpha                 89.991296
_cell_angle_beta                  90.639431
_cell_angle_gamma                 89.986788
_cell_volume                      1105.35765646

loop_
_atom_site_label
_atom_site_type_symbol
_atom_type_description
_atom_site_fract_x
_atom_site_fract_y
_atom_site_fract_z
_atom_type_partial_charge
Br1   Br    Br    0.756717 0.344042 0.130367 -0.563530
C1    C     C_R   0.500329 0.262818 0.499858 0.553322
C2    C     C_R   0.501627 0.937995 0.620650 0.017309
C3    C     C_3   0.501513 0.929048 0.775903 -0.266531
C4    C     C_R   0.259453 0.499735 0.499125 0.546566
C5    C     C_3   0.501509 0.070986 0.775891 -0.259964
C6    C     C_R   0.595795 0.553890 0.074554 0.164011
C7    C     C_R   0.402064 0.452521 0.073058 0.002884
C8    C     C_R   0.402493 0.451660 0.924573 -0.001930
C9    C     C_R   0.593586 0.558054 0.927366 0.122926
C10   C     C_3   0.729896 0.528771 0.919468 -0.238130
C11   C     C_3   0.731229 0.515813 0.076669 0.023243
C12   C     C_3   0.956923 0.597708 0.429067 -0.123797
C13   C     C_R   0.500311 0.737196 0.499829 0.544171
C14   C     C_R   0.740759 0.499604 0.500754 0.561038
C15   C     C_3   0.043961 0.400805 0.569741 -0.133519
C16   C     C_3   0.957430 0.395591 0.439102 -0.102845
C17   C     C_3   0.877948 0.499120 0.501875 0.048382
C18   C     C_3   0.962497 0.504218 0.632566 -0.119061
C19   C     C_3   0.043413 0.602853 0.559855 -0.125984
C20   C     C_3   0.038600 0.494178 0.366219 -0.100229
C21   C     C_3   0.122686 0.499406 0.497280 0.039624
C22   C     C_R   0.501629 0.062020 0.620648 0.013405
C23   C     C_R   0.501066 0.130162 0.498146 0.010065
C24   C     C_R   0.501169 0.064650 0.370753 -0.150269
C25   C     C_R   0.501140 0.935449 0.370754 -0.162328
C26   C     C_R   0.501041 0.869879 0.498142 0.008276
Cu1   Cu    Cu3+1 0.499990 0.499980 0.640670 0.936838
Cu2   Cu    Cu3+1 0.500010 0.500020 0.359330 0.975352
H1    H     H_    0.920014 0.309874 0.391175 0.159856
H2    H     H_    0.082559 0.320152 0.627241 0.111827
H3    H     H_    0.933308 0.507518 0.742855 0.115200
H4    H     H_    0.081534 0.687751 0.609167 0.111427
H5    H     H_    0.918322 0.678365 0.371594 0.106629
H6    H     H_    0.072193 0.490001 0.256961 0.127965
H7    H     H_    0.501056 0.112417 0.271438 0.159675
H8    H     H_    0.500988 0.887727 0.271434 0.137866
H9    H     H_    0.413091 0.888104 0.815775 0.140753
H10   H     H_    0.589857 0.887994 0.818125 0.140549
H11   H     H_    0.413087 0.111996 0.815743 0.137722
H12   H     H_    0.589851 0.111984 0.818112 0.164948
H13   H     H_    0.324021 0.411263 0.127308 0.111031
H14   H     H_    0.325033 0.409184 0.868599 0.115276
H15   H     H_    0.748444 0.441167 0.863306 0.191623
H16   H     H_    0.784655 0.609488 0.882710 0.085692
H17   H     H_    0.793563 0.583455 0.130339 0.115908
N1    N     N_R   0.500800 0.500930 0.147930 -0.208194
N2    N     N_R   0.500800 0.500890 0.852020 -0.228646
O1    O     O_R   0.500000 0.319640 0.618810 -0.502930
O2    O     O_R   0.500010 0.319680 0.381230 -0.480244
O3    O     O_R   0.316850 0.499950 0.618770 -0.513838
O4    O     O_R   0.316860 0.499990 0.381190 -0.519852
O5    O     O_R   0.499990 0.680320 0.618770 -0.499246
O6    O     O_R   0.500000 0.680360 0.381190 -0.515739
O7    O     O_R   0.683140 0.500010 0.618810 -0.520192
O8    O     O_R   0.683150 0.500050 0.381230 -0.464358

loop_
_geom_bond_atom_site_label_1
_geom_bond_atom_site_label_2
_ccdc_geom_bond_type
C14   C17   S    
C22   C23   A    
C4    O4    A    
C20   H6    S    
Cu2   O8    S    
C13   C26   S    
C6    C9    A    
Cu1   O1    S    
C2    C22   A    
C18   C19   S    
C3    H10   S    
Cu1   O5    S    
C14   O8    A    
C2    C26   A    
C16   C17   S    
C7    N1    A    
C12   C20   S    
C10   H15   S    
C25   H8    S    
C14   O7    A    
C20   C21   S    
C15   H2    S    
C9    N2    A    
C16   H1    S    
C25   C26   A    
C15   C16   S    
Br1   C11   S    
C12   C17   S    
Cu2   N1    S    
C15   C18   S    
C18   H3    S    
C3    C5    S    
Cu1   Cu2   S    
C1    O1    A    
Cu1   O7    S    
C3    H9    S    
Cu2   O2    S    
C1    C23   S    
C6    C11   S    
Cu1   O3    S    
C5    H11   S    
C10   H16   S    
C8    H14   S    
C9    C10   S    
C19   H4    S    
C24   H7    S    
C7    H13   S    
C2    C3    S    
C12   H5    S    
C13   O5    A    
C23   C24   A    
C8    N2    A    
C11   H17   S    
C17   C18   S    
Cu2   O6    S    
C4    O3    A    
Cu1   N2    S    
C15   C21   S    
C1    O2    A    
C12   C19   S    
C13   O6    A    
C24   C25   A    
C5    C22   S    
C5    H12   S    
C16   C20   S    
C4    C21   S    
C10   C11   S    
C19   C21   S    
C7    C8    A    
Cu2   O4    S    
C6    N1    A    
