data_mof_unit_8481.cif
_audit_creation_date              2013-03-05T16:25:18-0500
_audit_creation_method            fapswitch 2.2
_symmetry_space_group_name_H-M    P1
_symmetry_Int_Tables_number       1
_space_group_crystal_system       triclinic
_cell_length_a                    16.361839
_cell_length_b                    15.557166
_cell_length_c                    18.924299
_cell_angle_alpha                 89.594525
_cell_angle_beta                  92.769661
_cell_angle_gamma                 85.625421
_cell_volume                      4797.13952173

loop_
_atom_site_label
_atom_site_type_symbol
_atom_site_description
_atom_site_fract_x
_atom_site_fract_y
_atom_site_fract_z
_atom_type_partial_charge
O1    O     O_R   0.422340 0.612130 0.496770 -0.563408
O2    O     O_R   0.577660 0.387870 0.503230 -0.569893
O3    O     O_R   0.561240 0.618700 0.502530 -0.604749
O4    O     O_R   0.438760 0.381300 0.497470 -0.605218
C1    C     C_R   0.486474 0.656817 0.497571 0.899055
C2    C     C_R   0.513450 0.343395 0.498272 0.899740
O5    O     O_R   0.430520 0.496720 0.598980 -0.621537
O6    O     O_R   0.569480 0.503280 0.401020 -0.615797
O7    O     O_R   0.569430 0.503290 0.604740 -0.622062
O8    O     O_R   0.430570 0.496710 0.395260 -0.616862
C3    C     C_R   0.500113 0.498299 0.634957 0.873970
C4    C     C_R   0.500420 0.496749 0.365298 0.888050
Zn1   Zn    Zn3+2 0.407250 0.495620 0.496160 0.941856
Zn2   Zn    Zn3+2 0.592750 0.504380 0.503840 0.936435
C5    C     C_R   0.427023 0.480945 0.745070 -0.293544
C6    C     C_R   0.575723 0.438426 0.264054 -0.275308
H1    H     H_    0.368751 0.493030 0.715659 0.168184
H2    H     H_    0.631429 0.429887 0.297518 0.160955
C7    C     C_R   0.426920 0.460246 0.816929 0.559079
C8    C     C_R   0.577017 0.408932 0.194672 0.554056
C9    C     C_R   0.502389 0.439703 0.855144 -0.025604
C10   C     C_R   0.505423 0.421232 0.150225 -0.024298
C11   C     C_R   0.576303 0.444716 0.821069 -0.239866
C12   C     C_R   0.432121 0.456470 0.177635 -0.235547
H3    H     H_    0.635058 0.430476 0.849193 0.175268
H4    H     H_    0.376305 0.466442 0.144481 0.172977
C13   C     C_R   0.575680 0.467598 0.750061 -0.200544
C14   C     C_R   0.430746 0.483078 0.247402 -0.192294
H5    H     H_    0.633709 0.469378 0.725055 0.166711
H6    H     H_    0.373535 0.510281 0.267367 0.165465
C15   C     C_R   0.501061 0.484846 0.711433 -0.107765
C16   C     C_R   0.502831 0.475678 0.290545 -0.100329
N1    N     N_R   0.437213 0.403059 0.964649 -0.103969
N2    N     N_R   0.577654 0.421179 0.040585 -0.105982
N3    N     N_R   0.438225 0.397626 0.034716 -0.187559
N4    N     N_R   0.576531 0.426778 0.970544 -0.186317
C17   C     C_R   0.508178 0.408125 0.073964 0.302854
C18   C     C_R   0.505788 0.420015 0.931320 0.292720
C19   C     C_R   0.473089 0.750507 0.478624 -0.197161
C20   C     C_R   0.525841 0.250751 0.478767 -0.192789
C21   C     C_R   0.540369 0.800568 0.477984 -0.286550
C22   C     C_R   0.460273 0.198833 0.482030 -0.287457
C23   C     C_R   0.536231 0.879642 0.441092 0.138199
C24   C     C_R   0.459162 0.120986 0.445039 0.134226
C25   C     C_R   0.465203 0.906068 0.398064 -0.083592
C26   C     C_R   0.521836 0.097990 0.397818 -0.084387
C27   C     C_R   0.394197 0.859555 0.403722 0.517402
C28   C     C_R   0.592321 0.146379 0.399454 0.517496
C29   C     C_R   0.396725 0.785594 0.448026 0.115566
C30   C     C_R   0.596492 0.219049 0.443701 0.105790
C31   C     C_2   0.468479 0.965872 0.335574 0.414478
C32   C     C_2   0.507399 0.041203 0.335079 0.413725
H7    H     H_    0.598506 0.775802 0.502928 0.180049
H8    H     H_    0.406892 0.221283 0.510411 0.180127
N5    N     N_R   0.716290 0.510230 0.508970 -0.083395
N6    N     N_R   0.283710 0.489770 0.491030 -0.080487
C33   C     C_R   0.759653 0.472997 0.456446 0.015104
C34   C     C_R   0.240347 0.525764 0.544061 0.010895
C35   C     C_R   0.844219 0.477420 0.456732 -0.271280
C36   C     C_R   0.155808 0.521051 0.543692 -0.267745
C37   C     C_R   0.884103 0.520259 0.512078 0.211205
C38   C     C_R   0.115982 0.479167 0.487774 0.213125
C39   C     C_R   0.837401 0.559075 0.565021 -0.287210
C40   C     C_R   0.162690 0.441498 0.434354 -0.288839
C41   C     C_R   0.752823 0.553033 0.562605 0.009315
C42   C     C_R   0.247230 0.447824 0.436853 0.018892
C43   C     C_2   0.973553 0.527866 0.515332 -0.211824
C44   C     C_2   0.026573 0.471402 0.484451 -0.211850
H9    H     H_    0.728308 0.440340 0.414092 0.132938
H10   H     H_    0.271692 0.557520 0.586945 0.123433
H11   H     H_    0.283941 0.418869 0.395991 0.127445
H12   H     H_    0.716132 0.582839 0.603112 0.124039
H13   H     H_    0.004292 0.417922 0.454636 0.144496
H14   H     H_    0.995947 0.581361 0.545075 0.144254
H15   H     H_    0.866187 0.593328 0.607965 0.132759
H16   H     H_    0.133936 0.407945 0.390984 0.133248
H17   H     H_    0.122966 0.548248 0.587513 0.130915
H18   H     H_    0.876996 0.449201 0.413273 0.134513
O9    O     O_3   0.352790 0.455805 0.848384 -0.596617
C45   C     C_3   0.320426 0.540322 0.862203 -0.314055
H19   H     H_    0.303449 0.577008 0.812298 0.149118
H20   H     H_    0.364027 0.575552 0.896102 0.159750
H21   H     H_    0.263682 0.536412 0.891475 0.201432
O10   O     O_3   0.649293 0.371825 0.169587 -0.611058
C46   C     C_3   0.658741 0.284874 0.192171 -0.281890
H22   H     H_    0.606087 0.248743 0.172572 0.175223
H23   H     H_    0.666600 0.279438 0.250824 0.185759
H24   H     H_    0.715004 0.253949 0.169819 0.189985
N7    N     N_2   0.668593 0.265399 0.446435 -0.285386
H25   H     H_    0.703229 0.261211 0.402350 0.245220
C47   C     C_3   0.717893 0.254492 0.512082 -0.759829
H26   H     H_    0.742983 0.186580 0.519284 0.211874
H27   H     H_    0.680949 0.272686 0.558120 0.255832
H28   H     H_    0.769856 0.296307 0.511250 0.233887
N8    N     N_2   0.323932 0.741944 0.455694 -0.264089
H29   H     H_    0.280143 0.749652 0.414684 0.261925
C48   C     C_3   0.289661 0.750549 0.524712 -0.789914
H30   H     H_    0.271665 0.819154 0.535835 0.215495
H31   H     H_    0.334784 0.725026 0.566866 0.245926
H32   H     H_    0.234388 0.713556 0.526355 0.232520
O11   O     O_3   0.522980 0.078029 0.270195 -0.596335
C49   C     C_3   0.580630 0.024749 0.233551 -0.157543
H33   H     H_    0.618913 0.977342 0.267919 0.132015
H34   H     H_    0.622919 0.066473 0.207970 0.172138
H35   H     H_    0.548683 0.989743 0.190906 0.171229
O12   O     O_3   0.440523 0.932635 0.271393 -0.588611
C50   C     C_3   0.376645 0.988174 0.238853 -0.137470
H36   H     H_    0.345329 0.033860 0.275807 0.124439
H37   H     H_    0.329431 0.948127 0.215117 0.182975
H38   H     H_    0.400674 0.025300 0.195193 0.166356
O13   O     O_3   0.328829 0.873721 0.354542 -0.587185
C51   C     C_3   0.264768 0.925930 0.383215 -0.379387
H39   H     H_    0.252907 0.908401 0.438477 0.159163
H40   H     H_    0.207522 0.917751 0.350967 0.192551
H41   H     H_    0.276899 0.994624 0.379300 0.179110
O14   O     O_3   0.648190 0.135674 0.346829 -0.605587
C52   C     C_3   0.717085 0.081867 0.371026 -0.390395
H42   H     H_    0.740307 0.097873 0.424958 0.163518
H43   H     H_    0.767408 0.090209 0.334958 0.188724
H44   H     H_    0.703410 0.013475 0.368498 0.186119
N9    N     N_2   0.388788 0.073623 0.448526 -0.326194
H45   H     H_    0.336099 0.109988 0.431431 0.217898
C53   C     C_3   0.379831 0.034657 0.517278 -0.808282
H46   H     H_    0.325364 0.996468 0.515536 0.226120
H47   H     H_    0.371083 0.084839 0.558278 0.241889
H48   H     H_    0.434598 0.990809 0.532623 0.257497
N10   N     N_2   0.608079 0.925068 0.440041 -0.326417
H49   H     H_    0.656126 0.888659 0.418929 0.220983
C54   C     C_3   0.632065 0.960743 0.507821 -0.813435
H50   H     H_    0.686967 0.997338 0.502518 0.227355
H51   H     H_    0.647752 0.908703 0.547784 0.239128
H52   H     H_    0.581898 0.005401 0.526867 0.258536

loop_
_geom_bond_atom_site_label_1
_geom_bond_atom_site_label_2
_geom_bond_distance
_ccdc_geom_bond_type
C39   C41   1.392750 A    
O11   C49   1.417656 S    
C13   H5    1.083248 S    
N2    C17   1.354725 A    
C50   H37   1.109289 S    
O13   C51   1.408599 S    
C51   H40   1.109041 S    
C48   H30   1.109671 S    
C53   H46   1.107469 S    
C27   C29   1.415735 A    
C46   H22   1.114293 S    
C5    C7    1.395392 A    
O1    C1    1.301760 A    
N3    C17   1.355150 A    
C12   H4    1.083220 S    
C52   H43   1.109057 S    
N6    C42   1.357576 A    
C33   C35   1.390344 A    
O12   C50   1.417953 S    
C25   C31   1.505046 S    
C34   C36   1.390411 A    
C26   C32   1.505156 S    
C24   N9    1.417456 S    
O14   C52   1.407767 S    
C49   H35   1.109048 S    
C36   C38   1.406011 A    
C25   C27   1.422668 A    
O4    Zn1   1.813208 S    
C37   C39   1.401619 A    
C38   C40   1.401487 A    
N5    C41   1.357431 A    
C9    C18   1.469169 S    
N8    H29   1.030464 S    
C50   H36   1.114845 S    
C11   C13   1.387044 A    
N7    C47   1.449874 S    
N2    N4    1.326863 A    
C6    C8    1.394531 A    
C28   O14   1.386449 S    
C54   H52   1.109735 S    
C28   C30   1.415477 A    
Zn2   N5    2.027991 S    
C3    C15   1.460005 S    
C4    C16   1.456097 S    
C21   C23   1.405660 A    
O2    C2    1.301373 A    
C22   C24   1.404002 A    
C45   H21   1.109235 S    
C35   H18   1.080995 S    
C51   H39   1.108757 S    
C48   H31   1.110414 S    
C24   C26   1.419594 A    
C46   H23   1.113079 S    
C9    C11   1.404818 A    
C36   H17   1.081129 S    
C26   C28   1.423723 A    
C32   O11   1.394107 S    
C35   C37   1.406129 A    
C13   C15   1.399276 A    
C43   C44   1.343776 D    
C14   C16   1.398496 A    
O10   C46   1.410636 S    
C45   H20   1.114113 S    
C52   H44   1.104730 S    
C23   N10   1.417941 S    
C47   H26   1.108928 S    
C34   H10   1.081583 S    
C53   H48   1.109703 S    
C44   H13   1.084665 S    
C10   C17   1.461309 S    
C31   C32   1.375975 D    
C40   C42   1.392746 A    
O5    C3    1.300126 A    
O7    Zn2   1.965418 S    
N10   C54   1.449831 S    
C47   H27   1.110332 S    
O7    C3    1.301844 A    
C37   C43   1.475688 S    
C30   N7    1.427840 S    
C20   C22   1.394631 A    
C42   H11   1.081760 S    
O6    C4    1.299528 A    
C40   H16   1.083360 S    
C43   H14   1.084843 S    
C29   N8    1.428097 S    
C49   H34   1.109454 S    
C23   C25   1.419005 A    
C21   H7    1.083627 S    
N9    H45   1.031492 S    
O3    Zn2   1.813209 S    
O8    C4    1.300148 A    
O4    C2    1.315122 A    
C19   C29   1.419848 A    
C8    C10   1.408754 A    
C8    O10   1.382419 S    
C50   H38   1.109096 S    
C2    C20   1.491588 S    
O1    Zn1   1.847910 S    
N10   H49   1.031532 S    
C48   H32   1.109923 S    
N4    C18   1.355906 A    
C54   H50   1.107727 S    
C46   H24   1.109409 S    
C5    H1    1.083536 S    
C1    C19   1.495756 S    
O6    Zn2   1.965006 S    
C7    C9    1.414253 A    
C12   C14   1.387161 A    
C45   H19   1.112500 S    
O3    C1    1.316960 A    
O8    Zn1   1.965414 S    
N8    C48   1.449160 S    
C5    C15   1.400557 A    
C6    C16   1.402159 A    
C41   H12   1.081703 S    
N1    C18   1.355544 A    
C27   O13   1.386958 S    
C38   C44   1.475395 S    
Zn1   N6    2.027993 S    
N5    C33   1.356654 A    
C52   H42   1.108434 S    
C22   H8    1.083857 S    
C47   H28   1.109862 S    
C39   H15   1.083367 S    
C31   O12   1.393936 S    
C20   C30   1.418340 A    
C14   H6    1.083564 S    
N1    N3    1.327293 A    
N6    C34   1.356568 A    
C10   C12   1.404251 A    
C11   H3    1.083024 S    
C49   H33   1.114747 S    
O2    Zn2   1.847912 S    
N9    C53   1.450025 S    
C53   H47   1.110966 S    
O9    C45   1.410540 S    
O5    Zn1   1.965006 S    
C19   C21   1.396584 A    
C6    H2    1.083517 S    
C33   H9    1.081384 S    
N7    H25   1.030661 S    
C51   H41   1.104365 S    
C7    O9    1.382838 S    
C54   H51   1.110914 S    
