data_mof_unit_22418.cif
_audit_creation_date              2012-12-11T16:26:08-0500
_audit_creation_method            fapswitch 2.2
_symmetry_space_group_name_H-M    P1
_symmetry_Int_Tables_number       1
_space_group_crystal_system       triclinic
_cell_length_a                    14.102798
_cell_length_b                    14.099549
_cell_length_c                    31.234184
_cell_angle_alpha                 90.05942
_cell_angle_beta                  90.075239
_cell_angle_gamma                 119.998279
_cell_volume                      5378.70380267

loop_
_atom_site_label
_atom_site_type_symbol
_atom_type_description
_atom_site_fract_x
_atom_site_fract_y
_atom_site_fract_z
_atom_type_partial_charge
C1    C     C_R   0.564277 0.445630 0.809456 0.555604
C2    C     C_R   0.880965 0.435412 0.690431 0.555802
C3    C     C_R   0.554770 0.119375 0.809752 0.555639
C4    C     C_R   0.564488 0.445532 0.690437 0.554498
C5    C     C_R   0.881053 0.435729 0.809674 0.555822
C6    C     C_R   0.554370 0.118921 0.690432 0.555199
C7    C     C_R   0.445618 0.564593 0.309568 0.555286
C8    C     C_R   0.435406 0.880873 0.190363 0.555265
C9    C     C_R   0.119019 0.554480 0.309562 0.554689
C10   C     C_R   0.445171 0.564595 0.190164 0.555710
C11   C     C_R   0.435507 0.881091 0.309563 0.554109
C12   C     C_R   0.118749 0.554449 0.190443 0.555767
C13   C     C_1   0.997124 0.538784 0.019428 0.050489
C14   C     C_1   0.531657 0.001653 0.480769 0.038983
C15   C     C_1   0.457337 0.461018 0.018388 0.040605
C16   C     C_1   0.998472 0.530267 0.480750 0.039421
C17   C     C_1   0.541055 0.000916 0.019263 0.045715
C18   C     C_1   0.470012 0.468327 0.480781 0.039455
C19   C     C_1   0.529880 0.998260 0.519213 0.039202
C20   C     C_1   0.001454 0.541310 0.980919 0.043978
C21   C     C_1   0.468261 0.469821 0.519236 0.039098
C22   C     C_1   0.539396 0.996587 0.980778 0.040476
C23   C     C_1   0.001532 0.531729 0.519219 0.039596
C24   C     C_1   0.456274 0.464211 0.979894 0.049935
C25   C     C_R   0.950902 0.487986 0.848469 -0.012324
C26   C     C_R   0.535213 0.049317 0.651642 -0.013142
C27   C     C_R   0.512799 0.464854 0.847870 -0.012144
C28   C     C_R   0.950273 0.485736 0.651649 -0.012959
C29   C     C_R   0.537162 0.050431 0.848677 -0.014324
C30   C     C_R   0.513952 0.464573 0.651678 -0.013130
C31   C     C_R   0.486056 0.950773 0.348332 -0.013324
C32   C     C_R   0.048606 0.535586 0.151771 -0.010814
C33   C     C_R   0.464717 0.514238 0.348358 -0.013166
C34   C     C_R   0.485812 0.950048 0.151516 -0.012676
C35   C     C_R   0.049622 0.535502 0.348318 -0.013143
C36   C     C_R   0.462496 0.513510 0.150978 -0.013028
C37   C     C_R   0.959639 0.585974 0.865398 0.083443
C38   C     C_R   0.624021 0.042067 0.633638 0.083019
C39   C     C_R   0.413551 0.377844 0.864868 0.075424
C40   C     C_R   0.957444 0.581771 0.633636 0.082877
C41   C     C_R   0.626447 0.041740 0.865527 0.082482
C42   C     C_R   0.417872 0.375752 0.633569 0.082473
C43   C     C_R   0.582145 0.958066 0.366407 0.082554
C44   C     C_R   0.036011 0.622527 0.134836 0.074526
C45   C     C_R   0.375888 0.418185 0.366324 0.082991
C46   C     C_R   0.585559 0.962870 0.134716 0.074755
C47   C     C_R   0.042390 0.624345 0.366382 0.082436
C48   C     C_R   0.373441 0.415079 0.134163 0.082440
C49   C     C_R   0.974437 0.605859 0.910367 0.002992
C50   C     C_R   0.626510 0.027990 0.588578 0.003884
C51   C     C_R   0.389910 0.378167 0.908797 -0.002311
C52   C     C_R   0.971487 0.598350 0.588586 0.003803
C53   C     C_R   0.631923 0.027175 0.910395 0.002723
C54   C     C_R   0.401256 0.373198 0.588496 0.003958
C55   C     C_R   0.598744 0.972135 0.411481 0.004003
C56   C     C_R   0.012800 0.622901 0.090795 -0.004848
C57   C     C_R   0.373378 0.401618 0.411374 0.003864
C58   C     C_R   0.608877 0.985078 0.090663 -0.003387
C59   C     C_R   0.028345 0.626912 0.411442 0.003924
C60   C     C_R   0.367178 0.395419 0.089152 0.002365
C61   C     C_R   0.003040 0.539297 0.934645 0.019840
C62   C     C_R   0.529164 0.997412 0.565354 0.017898
C63   C     C_R   0.460119 0.469945 0.933785 0.027487
C64   C     C_R   0.002070 0.531599 0.565389 0.017895
C65   C     C_R   0.536111 0.995862 0.934569 0.017196
C66   C     C_R   0.468071 0.470507 0.565389 0.017777
C67   C     C_R   0.531928 0.002636 0.434630 0.017839
C68   C     C_R   0.993981 0.532459 0.065558 0.027991
C69   C     C_R   0.470717 0.468363 0.434627 0.017972
C70   C     C_R   0.537787 0.004396 0.065340 0.024857
C71   C     C_R   0.997827 0.529604 0.434581 0.017865
C72   C     C_R   0.461446 0.462566 0.064633 0.017059
C73   C     C_R   0.031745 0.468601 0.914230 0.124742
C74   C     C_R   0.430870 0.968056 0.586664 0.121722
C75   C     C_R   0.537617 0.567181 0.913849 0.123123
C76   C     C_R   0.031426 0.462631 0.586757 0.121648
C77   C     C_R   0.436820 0.967887 0.914197 0.121163
C78   C     C_R   0.536987 0.568855 0.586839 0.121628
C79   C     C_R   0.463011 0.032046 0.413238 0.121708
C80   C     C_R   0.973155 0.434768 0.085355 0.121253
C81   C     C_R   0.569015 0.537335 0.413333 0.121747
C82   C     C_R   0.460248 0.024510 0.084903 0.116976
C83   C     C_R   0.968445 0.431257 0.413149 0.121645
C84   C     C_R   0.561007 0.533763 0.084741 0.119426
C85   C     C_R   0.001995 0.439018 0.871171 0.086191
C86   C     C_R   0.433798 0.998310 0.629733 0.089409
C87   C     C_R   0.565256 0.565193 0.870659 0.088672
C88   C     C_R   0.001254 0.435330 0.629797 0.089368
C89   C     C_R   0.437381 0.000527 0.871615 0.087417
C90   C     C_R   0.564326 0.565986 0.629906 0.089721
C91   C     C_R   0.435662 0.001799 0.370161 0.089554
C92   C     C_R   0.001096 0.435601 0.128747 0.087899
C93   C     C_R   0.566109 0.564660 0.370283 0.089194
C94   C     C_R   0.431887 0.995461 0.128053 0.089066
C95   C     C_R   0.998626 0.434110 0.370105 0.089475
C96   C     C_R   0.561728 0.564205 0.127691 0.086913
Cr1   Cr    Cr6+3 0.504240 0.249200 0.750000 1.130419
Cr2   Cr    Cr6+3 0.744960 0.495760 0.750000 1.127154
Cr3   Cr    Cr6+3 0.750800 0.255040 0.750000 1.127189
Cr4   Cr    Cr6+3 0.249200 0.504240 0.250000 1.127215
Cr5   Cr    Cr6+3 0.495760 0.744960 0.250000 1.130622
Cr6   Cr    Cr6+3 0.255040 0.750800 0.250000 1.130276
O1    O     O_R   0.480350 0.140770 0.796330 -0.458510
O2    O     O_R   0.660420 0.519650 0.703670 -0.463626
O3    O     O_R   0.859230 0.339580 0.796330 -0.462292
O4    O     O_R   0.480350 0.140770 0.703670 -0.463282
O5    O     O_R   0.660420 0.519650 0.796330 -0.463209
O6    O     O_R   0.859230 0.339580 0.703670 -0.463321
O7    O     O_R   0.140770 0.480350 0.296330 -0.463558
O8    O     O_R   0.519650 0.660420 0.203670 -0.457912
O9    O     O_R   0.339580 0.859230 0.296330 -0.463532
O10   O     O_R   0.140770 0.480350 0.203670 -0.462754
O11   O     O_R   0.519650 0.660420 0.296330 -0.463225
O12   O     O_R   0.339580 0.859230 0.203670 -0.459396
O13   O     O_R   0.514930 0.348530 0.793250 -0.473201
O14   O     O_R   0.833600 0.485070 0.706750 -0.474089
O15   O     O_R   0.651470 0.166400 0.793250 -0.475438
O16   O     O_R   0.514930 0.348530 0.706750 -0.474587
O17   O     O_R   0.833600 0.485070 0.793250 -0.474778
O18   O     O_R   0.651470 0.166400 0.706750 -0.474163
O19   O     O_R   0.348530 0.514930 0.293250 -0.474184
O20   O     O_R   0.485070 0.833600 0.206750 -0.473467
O21   O     O_R   0.166400 0.651470 0.293250 -0.474589
O22   O     O_R   0.348530 0.514930 0.206750 -0.475205
O23   O     O_R   0.485070 0.833600 0.293250 -0.474618
O24   O     O_R   0.166400 0.651470 0.206750 -0.473062
O25   O     O_3   0.666667 0.333333 0.750000 -0.286880
O26   O     O_3   0.333333 0.666667 0.250000 -0.287350
I1    I     I_    0.987988 0.711389 0.819523 -0.188879
I2    I     I_    0.725823 0.015989 0.677978 -0.192281
I3    I     I_    0.290321 0.254170 0.823886 -0.191591
I4    I     I_    0.983812 0.709769 0.678004 -0.192393
I5    I     I_    0.723312 0.012321 0.819958 -0.191268
I6    I     I_    0.290139 0.274179 0.677846 -0.192911
I7    I     I_    0.709874 0.984127 0.322116 -0.192693
I8    I     I_    0.032811 0.743360 0.176269 -0.188896
I9    I     I_    0.274145 0.290208 0.321930 -0.192268
I10   I     I_    0.709564 0.965342 0.176043 -0.190715
I11   I     I_    0.016032 0.725850 0.322038 -0.192800
I12   I     I_    0.278512 0.288930 0.180001 -0.189216
C97   C     C_3   0.997912 0.713598 0.071674 -0.235553
C98   C     C_3   0.106449 0.819524 0.064534 -0.281324
C99   C     C_3   0.085029 0.913837 0.056207 -0.439908
H1    H     H_    0.022125 0.891288 0.030919 0.136772
H2    H     H_    0.056348 0.934633 0.085988 0.187505
H3    H     H_    0.160564 0.987134 0.045396 0.190397
H4    H     H_    0.161033 0.839655 0.092789 0.216554
H5    H     H_    0.148800 0.809102 0.036501 0.195809
H6    H     H_    0.954876 0.688559 0.040394 0.156029
H7    H     H_    0.943027 0.728482 0.092560 0.212523
C100  C     C_3   0.680167 0.953605 0.437866 -0.248026
C101  C     C_3   0.751594 0.915287 0.415558 -0.273167
C102  C     C_3   0.812543 0.884733 0.448047 -0.454809
H8    H     H_    0.870537 0.957730 0.466807 0.136089
H9    H     H_    0.754045 0.820999 0.470203 0.202227
H10   H     H_    0.859822 0.852826 0.430992 0.187542
H11   H     H_    0.699577 0.842593 0.395391 0.216975
H12   H     H_    0.815387 0.983137 0.396343 0.214297
H13   H     H_    0.735210 0.030269 0.455505 0.174539
H14   H     H_    0.631304 0.890371 0.462249 0.164991
C103  C     C_3   0.266949 0.309069 0.064214 -0.247708
C104  C     C_3   0.159061 0.238530 0.087718 -0.268513
C105  C     C_3   0.065522 0.173466 0.056352 -0.454674
H15   H     H_    0.062491 0.227603 0.031334 0.199389
H16   H     H_    0.075868 0.108777 0.040697 0.132861
H17   H     H_    0.986839 0.133657 0.073990 0.185974
H18   H     H_    0.165293 0.177156 0.107795 0.218853
H19   H     H_    0.139182 0.292001 0.107219 0.219767
H20   H     H_    0.249452 0.353920 0.038999 0.162815
H21   H     H_    0.289619 0.253582 0.047604 0.179993
C106  C     C_3   0.046861 0.726903 0.437820 -0.247972
C107  C     C_3   0.085001 0.836594 0.415526 -0.273147
C108  C     C_3   0.115707 0.928178 0.448031 -0.454881
H22   H     H_    0.042937 0.913030 0.466864 0.136247
H23   H     H_    0.179846 0.933683 0.470118 0.202582
H24   H     H_    0.147157 0.007277 0.430988 0.187264
H25   H     H_    0.157583 0.857270 0.395409 0.217003
H26   H     H_    0.017026 0.832458 0.396263 0.214404
H27   H     H_    0.970238 0.705278 0.455357 0.174614
H28   H     H_    0.110144 0.741340 0.462288 0.165536
C109  C     C_3   0.712285 0.995242 0.071319 -0.236138
C110  C     C_3   0.703359 0.883739 0.064142 -0.281619
C111  C     C_3   0.814989 0.898896 0.052266 -0.440622
H29   H     H_    0.850300 0.955630 0.024805 0.143270
H30   H     H_    0.871580 0.931856 0.080052 0.177141
H31   H     H_    0.807045 0.819768 0.042983 0.192990
H32   H     H_    0.673166 0.832496 0.093370 0.213877
H33   H     H_    0.644180 0.840136 0.037852 0.200049
H34   H     H_    0.731361 0.038255 0.040074 0.158717
H35   H     H_    0.783480 0.047937 0.092042 0.205951
C112  C     C_3   0.273435 0.320231 0.437648 -0.248049
C113  C     C_3   0.163607 0.248762 0.415285 -0.273215
C114  C     C_3   0.072241 0.187968 0.447742 -0.454498
H36   H     H_    0.087424 0.130238 0.466520 0.136102
H37   H     H_    0.066949 0.246594 0.469901 0.202581
H38   H     H_    0.993028 0.140406 0.430656 0.187484
H39   H     H_    0.142903 0.300735 0.395178 0.216967
H40   H     H_    0.167526 0.184843 0.396000 0.214487
H41   H     H_    0.295037 0.265169 0.455202 0.174618
H42   H     H_    0.259170 0.369167 0.462105 0.165118
C115  C     C_3   0.726437 0.046543 0.562269 -0.248041
C116  C     C_3   0.836273 0.084956 0.584615 -0.273259
C117  C     C_3   0.927633 0.115466 0.552148 -0.454580
H43   H     H_    0.912532 0.042455 0.533397 0.136057
H44   H     H_    0.932817 0.179205 0.529969 0.202389
H45   H     H_    0.006873 0.147326 0.569225 0.187547
H46   H     H_    0.856979 0.157678 0.604752 0.216890
H47   H     H_    0.832356 0.017160 0.603865 0.214361
H48   H     H_    0.704830 0.969863 0.544661 0.174571
H49   H     H_    0.740697 0.109731 0.537857 0.164906
C118  C     C_3   0.959264 0.690955 0.935620 -0.247778
C119  C     C_3   0.925086 0.764209 0.912214 -0.269060
C120  C     C_3   0.898781 0.830508 0.943701 -0.453689
H50   H     H_    0.839505 0.776589 0.968190 0.198538
H51   H     H_    0.974558 0.892561 0.959933 0.133254
H52   H     H_    0.863026 0.873482 0.926067 0.188212
H53   H     H_    0.993874 0.824752 0.892401 0.218845
H54   H     H_    0.851438 0.712655 0.892517 0.219930
H55   H     H_    0.895013 0.644810 0.960011 0.162217
H56   H     H_    0.036298 0.744938 0.953251 0.177866
C121  C     C_3   0.319795 0.273224 0.562074 -0.247962
C122  C     C_3   0.248286 0.163533 0.584349 -0.273180
C123  C     C_3   0.187319 0.071960 0.551832 -0.454975
H57   H     H_    0.129482 0.087026 0.533034 0.136194
H58   H     H_    0.245851 0.066571 0.529720 0.202334
H59   H     H_    0.139887 0.992829 0.568864 0.187343
H60   H     H_    0.300233 0.142835 0.604505 0.216936
H61   H     H_    0.184509 0.167690 0.603568 0.214254
H62   H     H_    0.264796 0.294867 0.544465 0.174556
H63   H     H_    0.368629 0.258778 0.537669 0.165281
C124  C     C_3   0.733551 0.045111 0.935413 -0.248554
C125  C     C_3   0.842994 0.089687 0.912148 -0.273341
C126  C     C_3   0.937107 0.123672 0.943770 -0.453991
H64   H     H_    0.940413 0.185536 0.966547 0.206702
H65   H     H_    0.926887 0.051885 0.962031 0.133636
H66   H     H_    0.015585 0.159009 0.926050 0.185275
H67   H     H_    0.842017 0.024651 0.891942 0.212962
H68   H     H_    0.858588 0.161888 0.892727 0.217553
H69   H     H_    0.747212 0.104970 0.961275 0.163377
H70   H     H_    0.714642 0.967106 0.951210 0.179752
C127  C     C_3   0.952954 0.679786 0.562264 -0.247975
C128  C     C_3   0.914759 0.751358 0.584583 -0.273216
C129  C     C_3   0.884107 0.812165 0.552091 -0.454730
H71   H     H_    0.956892 0.869699 0.533264 0.136236
H72   H     H_    0.819956 0.753491 0.529988 0.202715
H73   H     H_    0.852709 0.859914 0.569148 0.187239
H74   H     H_    0.842151 0.699473 0.604677 0.216937
H75   H     H_    0.982699 0.815263 0.603871 0.214435
H76   H     H_    0.029589 0.734792 0.544748 0.174627
H77   H     H_    0.889699 0.630885 0.537778 0.165492
C130  C     C_3   0.287665 0.284081 0.928441 -0.236498
C131  C     C_3   0.299908 0.183750 0.936473 -0.284301
C132  C     C_3   0.189937 0.086221 0.949304 -0.439729
H78   H     H_    0.152928 0.109118 0.975725 0.138903
H79   H     H_    0.133114 0.057698 0.921486 0.180362
H80   H     H_    0.201044 0.018131 0.960518 0.199854
H81   H     H_    0.330258 0.162037 0.907416 0.212604
H82   H     H_    0.360306 0.202611 0.962589 0.198209
H83   H     H_    0.267633 0.308359 0.959433 0.157819
H84   H     H_    0.215907 0.262775 0.907646 0.203573
I13   I     I_    0.956614 0.284193 0.160189 -0.218819
I14   I     I_    0.328145 0.044193 0.337862 -0.196441
I15   I     I_    0.714205 0.676516 0.157354 -0.209477
I16   I     I_    0.955901 0.284137 0.337722 -0.197179
I17   I     I_    0.316500 0.031439 0.157527 -0.196886
I18   I     I_    0.715978 0.671943 0.338106 -0.197454
I19   I     I_    0.283944 0.955852 0.661928 -0.196270
I20   I     I_    0.048241 0.333602 0.839585 -0.218923
I21   I     I_    0.671724 0.715947 0.662301 -0.196004
I22   I     I_    0.285875 0.963911 0.842073 -0.196401
I23   I     I_    0.044056 0.328197 0.662097 -0.196974
I24   I     I_    0.674845 0.715620 0.839276 -0.204999
I25   I     I_    0.888463 0.287114 0.049220 -0.435243
I26   I     I_    0.406624 0.126449 0.446917 -0.408456
I27   I     I_    0.707812 0.585385 0.049241 -0.415240
I28   I     I_    0.873971 0.280463 0.446687 -0.407840
I29   I     I_    0.396647 0.108640 0.048739 -0.410059
I30   I     I_    0.719802 0.593710 0.447090 -0.408854
I31   I     I_    0.280074 0.873677 0.552886 -0.408748
I32   I     I_    0.126302 0.415222 0.949350 -0.416659
I33   I     I_    0.593325 0.719648 0.553270 -0.407811
I34   I     I_    0.287975 0.870741 0.948507 -0.385126
I35   I     I_    0.125901 0.406309 0.553141 -0.408074
I36   I     I_    0.604298 0.716162 0.949484 -0.407659

loop_
_geom_bond_atom_site_label_1
_geom_bond_atom_site_label_2
_ccdc_geom_bond_type
C107  H25   S    
C44   I8    S    
C99   H3    S    
C39   C51   A    
C106  C107  S    
C68   C80   A    
C82   C94   A    
C70   C82   A    
C21   C66   S    
C18   C21   T    
C33   C45   A    
C115  C116  S    
C76   I35   S    
C105  H15   S    
C117  H43   S    
C35   C47   A    
C29   C89   A    
C103  C104  S    
C123  H59   S    
C97   H6    S    
C130  C131  S    
C22   C65   S    
C5    O3    A    
C109  C110  S    
C78   C90   A    
Cr3   O6    S    
C117  H44   S    
C45   C57   A    
C54   C66   A    
C104  C105  S    
C31   C43   A    
C5    O17   A    
C58   C109  S    
C95   I16   S    
C38   I2    S    
C11   O23   A    
C112  H41   S    
C57   C112  S    
Cr6   O26   S    
C111  H30   S    
C132  H78   S    
C130  H84   S    
Cr2   O2    S    
C120  H52   S    
C12   O24   A    
C119  H53   S    
C60   C72   A    
C19   C62   S    
C107  H26   S    
C129  H71   S    
Cr1   O16   S    
Cr5   O26   S    
Cr5   O11   S    
C119  C120  S    
C4    O16   A    
C124  H69   S    
C127  C128  S    
C84   C96   A    
C56   C68   A    
C115  H48   S    
C20   C61   S    
C3    C29   S    
C44   C56   A    
C110  C111  S    
C80   I25   S    
C3    O15   A    
C130  H83   S    
Cr3   O18   S    
C8    C34   S    
C2    O14   A    
C89   I22   S    
C98   C99   S    
C123  H57   S    
C27   C39   A    
C8    O12   A    
C129  H72   S    
C121  H63   S    
C28   C88   A    
Cr5   O23   S    
C14   C67   S    
C126  H65   S    
C10   O8    A    
C34   C46   A    
C113  H40   S    
C77   I34   S    
Cr1   O13   S    
C53   C65   A    
C126  H64   S    
C76   C88   A    
C79   C91   A    
C92   I13   S    
C30   C90   A    
C46   I10   S    
C25   C37   A    
C16   C23   T    
C129  H73   S    
C18   C69   S    
C120  H51   S    
C40   I4    S    
C100  C101  S    
C11   C31   S    
Cr4   O7    S    
C116  H47   S    
C46   C58   A    
Cr5   O20   S    
C125  H68   S    
C7    C33   S    
C85   I20   S    
C106  H27   S    
Cr6   O9    S    
C16   C71   S    
C109  H34   S    
C86   I19   S    
C7    O19   A    
C59   C106  S    
C14   C19   T    
C41   I5    S    
C97   H7    S    
C48   C60   A    
C71   C83   A    
C108  H23   S    
C73   I32   S    
C32   C44   A    
Cr3   O3    S    
C117  H45   S    
C101  H12   S    
C74   I31   S    
C49   C61   A    
C116  C117  S    
C48   I12   S    
C131  H82   S    
C81   I30   S    
C98   H5    S    
Cr2   O17   S    
C105  H17   S    
C51   C63   A    
C112  H42   S    
C52   C64   A    
C111  H31   S    
C6    O18   A    
C26   C38   A    
C54   C121  S    
Cr3   O25   S    
C93   I18   S    
C114  H37   S    
Cr5   O8    S    
C108  H22   S    
C11   O9    A    
C75   I36   S    
C128  H75   S    
Cr2   O5    S    
C112  C113  S    
C124  H70   S    
Cr4   O22   S    
C9    O7    A    
C100  H13   S    
C80   C92   A    
C27   C87   A    
C111  H29   S    
C78   I33   S    
C121  C122  S    
Cr6   O12   S    
C87   I24   S    
Cr3   O15   S    
C65   C77   A    
C81   C93   A    
C109  H35   S    
C36   C96   A    
C88   I23   S    
Cr2   O14   S    
C118  C119  S    
C122  H61   S    
C118  H56   S    
C26   C86   A    
C114  H38   S    
C83   C95   A    
C49   C118  S    
C25   C85   A    
C60   C103  S    
C64   C76   A    
C67   C79   A    
C110  H33   S    
C113  H39   S    
C74   C86   A    
C102  H10   S    
C43   I7    S    
C6    O4    A    
C41   C53   A    
C37   C49   A    
C72   C84   A    
C91   I14   S    
C53   C124  S    
C5    C25   S    
C56   C97   S    
C9    O21   A    
C66   C78   A    
C43   C55   A    
C15   C24   T    
C1    O5    A    
Cr4   O10   S    
C24   C63   S    
C31   C91   A    
C116  H46   S    
C125  H67   S    
C50   C62   A    
C104  H19   S    
C106  H28   S    
C82   I29   S    
C102  H9    S    
C103  H21   S    
C121  H62   S    
Cr6   O21   S    
C115  H49   S    
C12   O10   A    
C51   C130  S    
C107  C108  S    
C132  H79   S    
C45   I9    S    
C73   C85   A    
C50   C115  S    
C3    O1    A    
Cr1   O25   S    
C99   H2    S    
C94   I17   S    
C101  H11   S    
Cr2   O25   S    
C13   C20   T    
C128  C129  S    
Cr4   O26   S    
C77   C89   A    
C98   H4    S    
C127  H76   S    
C58   C70   A    
C127  H77   S    
C34   C94   A    
C96   I15   S    
Cr6   O24   S    
C33   C93   A    
C132  H80   S    
C55   C67   A    
C123  H58   S    
C55   C100  S    
C6    C26   S    
C38   C50   A    
C35   C95   A    
C79   I26   S    
C118  H55   S    
C10   O22   A    
C17   C22   T    
C42   C54   A    
C42   I6    S    
C128  H74   S    
C61   C73   A    
C113  C114  S    
C7    O11   A    
C99   H1    S    
C23   C64   S    
C103  H20   S    
C40   C52   A    
C97   C98   S    
C100  H14   S    
C8    O20   A    
C32   C92   A    
Cr4   O19   S    
C63   C75   A    
C122  H60   S    
C120  H50   S    
C4    O2    A    
C2    O6    A    
C125  C126  S    
C108  H24   S    
C15   C72   S    
C36   C48   A    
C30   C42   A    
C110  H32   S    
C122  C123  S    
Cr1   O1    S    
C126  H66   S    
C4    C30   S    
C39   I3    S    
C69   C81   A    
C9    C35   S    
C47   C59   A    
C104  H18   S    
C90   I21   S    
C17   C70   S    
C101  C102  S    
C114  H36   S    
C84   I27   S    
C47   I11   S    
C124  C125  S    
C1    C27   S    
C28   C40   A    
C29   C41   A    
C62   C74   A    
C105  H16   S    
C2    C28   S    
C131  H81   S    
C1    O13   A    
C10   C36   S    
C57   C69   A    
C102  H8    S    
C52   C127  S    
C37   I1    S    
C12   C32   S    
C75   C87   A    
C83   I28   S    
C59   C71   A    
C131  C132  S    
C119  H54   S    
C13   C68   S    
Cr1   O4    S    
