data_mof_unit_48127.cif
_audit_creation_date              2012-12-10T19:52:24-0500
_audit_creation_method            fapswitch 2.2
_symmetry_space_group_name_H-M    P1
_symmetry_Int_Tables_number       1
_space_group_crystal_system       triclinic
_cell_length_a                    14.965516
_cell_length_b                    14.291647
_cell_length_c                    10.758946
_cell_angle_alpha                 90.815323
_cell_angle_beta                  91.906546
_cell_angle_gamma                 89.69755
_cell_volume                      2299.61020841

loop_
_atom_site_label
_atom_site_type_symbol
_atom_type_description
_atom_site_fract_x
_atom_site_fract_y
_atom_site_fract_z
_atom_type_partial_charge
C1    C     C_R   0.327889 0.500271 0.508992 0.992888
C2    C     C_R   0.899750 0.537610 0.642783 -0.151482
C3    C     C_R   0.821482 0.464773 0.421084 0.400680
C4    C     C_R   0.807445 0.535554 0.629896 0.465581
C5    C     C_R   0.767694 0.499215 0.517570 -0.265460
C6    C     C_R   0.951815 0.508324 0.544686 -0.129612
C7    C     C_R   0.461944 0.101559 0.407857 -0.216286
C8    C     C_R   0.429526 0.897701 0.459980 -0.218559
C9    C     C_R   0.499275 0.499688 0.257075 0.872720
C10   C     C_R   0.455396 0.200154 0.409441 -0.051373
C11   C     C_R   0.429153 0.799122 0.452369 -0.016121
C12   C     C_3   0.582658 0.447340 0.926898 -0.329305
C13   C     C_R   0.542960 0.206120 0.596904 0.534628
C14   C     C_R   0.573335 0.794567 0.549703 0.531993
C15   C     C_R   0.538687 0.107873 0.607226 0.398962
C16   C     C_R   0.580926 0.892705 0.541246 0.386142
C17   C     C_R   0.503194 0.053109 0.506605 -0.109163
C18   C     C_R   0.505424 0.946853 0.503081 -0.117851
C19   C     C_R   0.671924 0.499709 0.500979 0.822863
C20   C     C_R   0.500398 0.500747 0.741555 0.861086
C21   C     C_3   0.490108 0.606380 0.068922 0.331731
C22   C     C_3   0.417588 0.438690 0.060175 0.348600
C23   C     C_R   0.096925 0.590563 0.569926 -0.050274
C24   C     C_3   0.504033 0.603736 0.927397 -0.426770
C25   C     C_3   0.412722 0.456153 0.917511 -0.571338
C26   C     C_3   0.592118 0.457174 0.071299 -0.134500
C27   C     C_3   0.498927 0.500003 0.118795 -0.184019
C28   C     C_3   0.500091 0.502007 0.876629 -0.017644
C29   C     C_2   0.394783 0.244552 0.316883 0.602766
C30   C     C_2   0.352510 0.753782 0.387637 0.611384
C31   C     C_2   0.400510 0.653051 0.095044 0.361247
C32   C     C_2   0.326238 0.460611 0.111788 0.427930
C33   C     C_2   0.670045 0.520378 0.112377 0.663404
C34   C     C_R   0.092091 0.418741 0.551178 -0.126254
C35   C     C_2   0.618702 0.360903 0.120903 0.340681
C36   C     C_2   0.050308 0.683408 0.576174 0.556544
C37   C     C_2   0.042895 0.330007 0.573923 0.467035
C38   C     C_R   0.190287 0.585256 0.573084 0.374061
C39   C     C_R   0.183042 0.417285 0.524329 0.443603
C40   C     C_R   0.232533 0.500894 0.535650 -0.289792
C41   C     C_R   0.048380 0.506256 0.558961 -0.148982
C42   C     C_R   0.912994 0.474042 0.433861 -0.129443
H1    H     H_    0.431859 0.062165 0.330742 0.222488
H2    H     H_    0.931138 0.562447 0.729246 0.192837
H3    H     H_    0.553467 0.726936 0.087916 0.377377
H4    H     H_    0.463089 0.311473 0.015688 0.358897
H5    H     H_    0.726355 0.402491 0.324534 0.331702
H6    H     H_    0.695666 0.554312 0.716343 0.318271
H7    H     H_    0.376966 0.316797 0.326245 0.193528
H8    H     H_    0.360713 0.686584 0.344262 0.082059
H9    H     H_    0.615276 0.309188 0.653364 0.364729
H10   H     H_    0.614197 0.696982 0.656107 0.356272
H11   H     H_    0.541998 0.007381 0.726860 0.356185
H12   H     H_    0.370757 0.936344 0.428574 0.225896
H13   H     H_    0.666649 0.993659 0.533062 0.355588
H14   H     H_    0.355898 0.624742 0.160723 0.060985
H15   H     H_    0.270046 0.479349 0.050544 0.071126
H16   H     H_    0.678017 0.540374 0.209727 0.066787
H17   H     H_    0.578748 0.322715 0.184392 0.152780
H18   H     H_    0.978537 0.688629 0.561476 0.068084
H19   H     H_    0.970492 0.328712 0.573446 0.095603
H20   H     H_    0.287735 0.641493 0.667829 0.333479
H21   H     H_    0.180273 0.298760 0.434128 0.370459
H22   H     H_    0.453275 0.647902 0.877578 0.212382
H23   H     H_    0.356576 0.504006 0.890389 0.140400
H24   H     H_    0.570253 0.633869 0.906051 0.227279
H25   H     H_    0.398589 0.389783 0.865235 0.231825
H26   H     H_    0.643679 0.469905 0.880286 0.212600
H27   H     H_    0.574646 0.372694 0.897689 0.226406
H28   H     H_    0.954677 0.449795 0.359261 0.192906
N1    N     N_R   0.499980 0.252470 0.500000 -0.229620
N2    N     N_R   0.499980 0.747530 0.500000 -0.226523
O1    O     O_R   0.369070 0.579480 0.500010 -0.651454
O2    O     O_3   0.431355 0.342796 0.084249 -0.730190
O3    O     O_3   0.788634 0.421980 0.313453 -0.725969
O4    O     O_3   0.759850 0.567739 0.729921 -0.698416
O5    O     O_2   0.360715 0.199433 0.230589 -0.522216
O6    O     O_2   0.279621 0.792428 0.378933 -0.505934
O7    O     O_3   0.589055 0.253579 0.690301 -0.703343
O8    O     O_3   0.641923 0.747792 0.609898 -0.663076
O9    O     O_3   0.570451 0.069076 0.717002 -0.656469
O10   O     O_3   0.662635 0.932102 0.573457 -0.653443
O11   O     O_2   0.380268 0.728219 0.048955 -0.540586
O12   O     O_R   0.369070 0.420520 0.500010 -0.564952
O13   O     O_2   0.312860 0.455042 0.222603 -0.601408
O14   O     O_2   0.723723 0.550124 0.039688 -0.498534
O15   O     O_2   0.687420 0.323067 0.087172 -0.473246
O16   O     O_2   0.091280 0.756088 0.595581 -0.432496
O17   O     O_2   0.082752 0.257838 0.600399 -0.494135
O18   O     O_3   0.238585 0.663102 0.610957 -0.655335
O19   O     O_3   0.224138 0.335773 0.485044 -0.700566
O20   O     O_R   0.499990 0.579480 0.314790 -0.595601
O21   O     O_R   0.499990 0.420520 0.314790 -0.646632
O22   O     O_R   0.630940 0.579480 0.499990 -0.575900
O23   O     O_R   0.630940 0.420520 0.499990 -0.665503
O24   O     O_R   0.500020 0.579480 0.685200 -0.671917
O25   O     O_R   0.500020 0.420520 0.685200 -0.614051
O26   O     O_3   0.556762 0.663933 0.125876 -0.744942
Zn1   Zn    Zn3+2 0.500010 0.606140 0.500000 0.968785
Zn2   Zn    Zn3+2 0.500010 0.393860 0.500000 0.962439

loop_
_geom_bond_atom_site_label_1
_geom_bond_atom_site_label_2
_ccdc_geom_bond_type
C7    C10   A    
C12   H27   S    
C13   O7    S    
C3    C42   A    
C33   H16   S    
C34   C37   S    
H6    O4    S    
C25   H25   S    
C15   O9    S    
C29   H7    S    
C36   O16   D    
C1    O12   A    
C21   C31   S    
C26   C27   S    
C22   C32   S    
C12   C28   S    
H11   O9    S    
H3    O26   S    
O24   Zn1   S    
O1    Zn1   S    
C42   H28   S    
C31   O11   D    
C35   H17   S    
C1    C40   S    
C35   O15   D    
C20   O25   A    
C11   C30   S    
C2    H2    S    
C7    C17   A    
C6    C41   S    
C14   O8    S    
C31   H14   S    
C3    O3    S    
C24   H24   S    
C10   N1    A    
C20   O24   A    
C24   H22   S    
C2    C6    A    
C34   C41   A    
C32   H15   S    
C9    O20   A    
C39   O19   S    
C34   C39   A    
O12   Zn2   S    
C25   H23   S    
C8    H12   S    
C39   C40   A    
C11   N2    A    
C13   N1    A    
C3    C5    A    
C22   C25   S    
C8    C18   A    
C12   C26   S    
C25   C28   S    
C2    C4    A    
C33   O14   D    
C12   H26   S    
C26   C33   S    
C16   O10   S    
C17   C18   S    
H13   O10   S    
O21   Zn2   S    
C19   O22   A    
C7    H1    S    
C22   C27   S    
C13   C15   A    
C21   C27   S    
C14   C16   A    
C22   O2    S    
C9    O21   A    
H4    O2    S    
O25   Zn2   S    
C19   O23   A    
C9    C27   S    
C15   C17   A    
O23   Zn2   S    
C14   N2    A    
C24   C28   S    
C4    C5    A    
C36   H18   S    
C37   H19   S    
C5    C19   S    
C23   C38   A    
C20   C28   S    
N1    Zn2   S    
C38   O18   S    
C23   C41   A    
C37   O17   D    
C1    O1    A    
H5    O3    S    
C38   C40   A    
C21   O26   S    
C10   C29   S    
O22   Zn1   S    
C8    C11   A    
C32   O13   D    
H20   O18   S    
C30   H8    S    
H9    O7    S    
C4    O4    S    
C30   O6    D    
C26   C35   S    
C29   O5    D    
C16   C18   A    
C23   C36   S    
C6    C42   A    
C21   C24   S    
H21   O19   S    
H10   O8    S    
O20   Zn1   S    
N2    Zn1   S    
