data_mof_unit_44554.cif
_audit_creation_date              2012-12-10T16:47:31-0500
_audit_creation_method            fapswitch 2.2
_symmetry_space_group_name_H-M    P1
_symmetry_Int_Tables_number       1
_space_group_crystal_system       triclinic
_cell_length_a                    10.599447
_cell_length_b                    8.685716
_cell_length_c                    7.465047
_cell_angle_alpha                 102.842777
_cell_angle_beta                  94.7305
_cell_angle_gamma                 92.475739
_cell_volume                      666.445128758

loop_
_atom_site_label
_atom_site_type_symbol
_atom_type_description
_atom_site_fract_x
_atom_site_fract_y
_atom_site_fract_z
_atom_type_partial_charge
C1    C     C_R   0.496179 0.199807 0.453363 0.880619
C2    C     C_3   0.122591 0.499894 0.501634 0.031000
C3    C     C_3   0.968608 0.516827 0.673474 -0.130520
C4    C     C_3   0.031392 0.483173 0.326525 -0.130520
C5    C     C_2   0.494366 0.031942 0.427120 -0.378835
C6    C     C_2   0.505634 0.968057 0.572880 -0.378835
C7    C     C_R   0.503821 0.800193 0.546637 0.880620
C8    C     C_R   0.259435 0.499671 0.501103 0.777935
C9    C     C_R   0.740565 0.500328 0.498897 0.777935
C10   C     C_3   0.040957 0.379002 0.569673 -0.180017
C11   C     C_3   0.959043 0.620998 0.430327 -0.180017
C12   C     C_3   0.947489 0.362317 0.394974 -0.169919
C13   C     C_3   0.052511 0.637683 0.605026 -0.169919
C14   C     C_3   0.877409 0.500106 0.498366 0.031000
Cu1   Cu    Cu3+1 0.514140 0.517380 0.684380 0.942553
Cu2   Cu    Cu3+1 0.485860 0.482620 0.315620 0.942553
H1    H     H_    0.901250 0.250046 0.308849 0.128448
H2    H     H_    0.059496 0.469360 0.184035 0.137389
H3    H     H_    0.098749 0.749953 0.691151 0.128448
H4    H     H_    0.077754 0.280437 0.627033 0.124123
H5    H     H_    0.922246 0.719563 0.372967 0.124123
H6    H     H_    0.399769 0.378809 0.948622 0.222522
H7    H     H_    0.600231 0.621190 0.051378 0.222522
H8    H     H_    0.483746 0.960555 0.286572 0.179773
H9    H     H_    0.516254 0.039445 0.713428 0.179773
H10   H     H_    0.940504 0.530640 0.815965 0.137389
N1    N     N_2   0.464560 0.456420 0.038510 -0.217313
N2    N     N_2   0.535440 0.543580 0.961490 -0.217313
O1    O     O_R   0.509190 0.286130 0.619780 -0.582473
O2    O     O_R   0.490810 0.713870 0.380220 -0.582473
O3    O     O_R   0.485310 0.256770 0.308360 -0.586977
O4    O     O_R   0.514690 0.743230 0.691640 -0.586977
O5    O     O_R   0.328790 0.514640 0.655680 -0.590070
O6    O     O_R   0.671210 0.485360 0.344320 -0.590070
O7    O     O_R   0.304910 0.485280 0.344260 -0.588238
O8    O     O_R   0.695090 0.514720 0.655740 -0.588238

loop_
_geom_bond_atom_site_label_1
_geom_bond_atom_site_label_2
_ccdc_geom_bond_type
C12   H1    S    
C9    O8    A    
C2    C4    S    
C9    C14   S    
C6    C7    S    
C3    C14   S    
C4    C12   S    
C3    C13   S    
C8    O5    A    
C4    H2    S    
Cu2   N1    S    
C1    O1    A    
Cu1   O4    S    
C7    O2    A    
H7    N2    S    
Cu2   O3    S    
C11   C13   S    
Cu1   N2    S    
C5    C6    D    
C5    H8    S    
C10   C12   S    
C1    C5    S    
C12   C14   S    
Cu1   O1    S    
H6    N1    S    
Cu2   O7    S    
C9    O6    A    
C11   C14   S    
C6    H9    S    
C13   H3    S    
Cu2   O2    S    
Cu1   Cu2   S    
C2    C10   S    
Cu1   O8    S    
C1    O3    A    
C10   H4    S    
N1    N2    D    
C3    C10   S    
C2    C13   S    
C7    O4    A    
Cu2   O6    S    
C11   H5    S    
C3    H10   S    
C2    C8    S    
Cu1   O5    S    
C4    C11   S    
C8    O7    A    
