data_mof_unit_34842.cif
_audit_creation_date              2012-10-26T18:44:11-0400
_audit_creation_method            fapswitch 2.2
_symmetry_space_group_name_H-M    P1
_symmetry_Int_Tables_number       1
_space_group_crystal_system       triclinic
_cell_length_a                    19.327663
_cell_length_b                    9.087831
_cell_length_c                    7.782246
_cell_angle_alpha                 89.999932
_cell_angle_beta                  90.000136
_cell_angle_gamma                 89.999947
_cell_volume                      1366.92454417

loop_
_atom_site_label
_atom_site_type_symbol
_atom_type_description
_atom_site_fract_x
_atom_site_fract_y
_atom_site_fract_z
_atom_type_partial_charge
C1    C     C_R   0.500000 0.220014 0.500000 0.551823
C2    C     C_R   0.255021 0.436822 0.363262 -0.125849
C3    C     C_R   0.182616 0.565354 0.638206 0.002083
C4    C     C_R   0.817385 0.565345 0.361798 0.002084
C5    C     C_R   0.817385 0.434649 0.638208 0.002083
C6    C     C_R   0.182614 0.434657 0.361798 0.002083
C7    C     C_R   0.145826 0.500005 0.500004 0.055805
C8    C     C_R   0.854174 0.499997 0.500003 0.055803
C9    C     C_R   0.291258 0.500003 0.500000 -0.016132
C10   C     C_R   0.708742 0.499999 0.500001 -0.016132
C11   C     C_R   0.930109 0.499999 0.500006 0.321532
C12   C     C_R   0.500000 0.779986 0.500000 0.551823
C13   C     C_R   0.069891 0.500003 0.500008 0.321532
C14   C     C_3   0.146960 0.635494 0.791199 -0.272121
C15   C     C_3   0.145354 0.802766 0.773840 -0.418571
C16   C     C_3   0.853042 0.635478 0.208803 -0.272114
C17   C     C_3   0.854648 0.802752 0.226151 -0.418567
C18   C     C_3   0.853041 0.364513 0.791202 -0.272114
C19   C     C_3   0.854645 0.197239 0.773848 -0.418561
C20   C     C_3   0.146956 0.364521 0.208806 -0.272117
C21   C     C_3   0.145355 0.197248 0.226154 -0.418565
C22   C     C_R   0.367106 0.500001 0.500000 0.536814
C23   C     C_R   0.632894 0.500000 0.500000 0.536814
C24   C     C_1   0.500000 0.065380 0.500000 -0.052408
C25   C     C_1   0.500000 0.934620 0.500000 -0.052408
C26   C     C_R   0.255023 0.563186 0.636739 -0.125850
C27   C     C_R   0.744978 0.563180 0.363263 -0.125850
C28   C     C_R   0.744978 0.436816 0.636740 -0.125849
Cu1   Cu    Cu3+1 0.500000 0.500000 0.669080 1.012707
Cu2   Cu    Cu3+1 0.500000 0.500000 0.330920 1.012707
H1    H     H_    0.283274 0.612625 0.742373 0.131084
H2    H     H_    0.801185 0.847449 0.230708 0.146777
H3    H     H_    0.882531 0.835574 0.344842 0.183150
H4    H     H_    0.881711 0.851227 0.113724 0.140589
H5    H     H_    0.906524 0.593592 0.191588 0.163792
H6    H     H_    0.824793 0.606598 0.089172 0.130310
H7    H     H_    0.801181 0.152542 0.769307 0.146774
H8    H     H_    0.882523 0.164419 0.655146 0.183148
H9    H     H_    0.881715 0.148762 0.886267 0.140591
H10   H     H_    0.906524 0.406397 0.808419 0.163793
H11   H     H_    0.824792 0.393391 0.910833 0.130309
H12   H     H_    0.716728 0.612618 0.257627 0.131084
H13   H     H_    0.198820 0.152556 0.230670 0.146774
H14   H     H_    0.117487 0.164422 0.344866 0.183145
H15   H     H_    0.118279 0.148772 0.113745 0.140593
H16   H     H_    0.093472 0.406400 0.191598 0.163795
H17   H     H_    0.175202 0.393407 0.089173 0.130311
H18   H     H_    0.716727 0.387378 0.742375 0.131083
H19   H     H_    0.283271 0.387383 0.257626 0.131084
H20   H     H_    0.198816 0.847462 0.769274 0.146780
H21   H     H_    0.117469 0.835581 0.655151 0.183150
H22   H     H_    0.118292 0.851247 0.886267 0.140589
H23   H     H_    0.093479 0.593609 0.808420 0.163792
H24   H     H_    0.175210 0.606621 0.910829 0.130314
N1    N     N_1   0.500000 0.500000 0.076820 -0.083138
N2    N     N_1   0.500000 0.500000 0.923180 -0.083138
N3    N     N_R   0.034404 0.371305 0.500206 -0.246296
N4    N     N_R   0.965597 0.628696 0.500186 -0.246300
N5    N     N_R   0.965598 0.371303 0.499826 -0.246299
N6    N     N_R   0.034402 0.628698 0.499809 -0.246299
O1    O     O_R   0.500000 0.288390 0.642760 -0.494729
O2    O     O_R   0.500000 0.711610 0.357240 -0.494729
O3    O     O_R   0.500000 0.711610 0.642760 -0.494729
O4    O     O_R   0.500000 0.288390 0.357240 -0.494729
O5    O     O_R   0.400140 0.500000 0.642830 -0.503728
O6    O     O_R   0.599860 0.500000 0.357170 -0.503727
O7    O     O_R   0.599860 0.500000 0.642830 -0.503727
O8    O     O_R   0.400140 0.500000 0.357170 -0.503727

loop_
_geom_bond_atom_site_label_1
_geom_bond_atom_site_label_2
_ccdc_geom_bond_type
C10   C27   A    
C4    C16   S    
C5    C8    A    
N1    N2    T    
Cu1   O3    S    
C22   O5    A    
C6    C7    A    
C21   H13   S    
C2    H19   S    
C15   H21   S    
C10   C23   S    
C21   H14   S    
C12   O2    A    
Cu2   N1    S    
C3    C7    A    
C14   C15   S    
C12   C25   S    
C4    C8    A    
C4    C27   A    
C5    C28   A    
C26   H1    S    
C13   N6    A    
C2    C6    A    
C15   H22   S    
C16   H6    S    
C27   H12   S    
C22   O8    A    
Cu2   O4    S    
Cu2   O6    S    
C3    C14   S    
C17   H3    S    
C8    C11   S    
Cu1   O5    S    
C19   H9    S    
C23   O6    A    
Cu1   N2    S    
C9    C26   A    
C21   H15   S    
Cu2   O2    S    
C16   H5    S    
Cu2   O8    S    
Cu1   O1    S    
C9    C22   S    
N3    N5    A    
C20   H17   S    
C13   N3    A    
C17   H4    S    
Cu1   Cu2   S    
C10   C28   A    
C11   N4    A    
C1    O4    A    
C7    C13   S    
C14   H23   S    
C6    C20   S    
C24   C25   T    
C1    C24   S    
C18   C19   S    
C15   H20   S    
C23   O7    A    
C17   H2    S    
C12   O3    A    
C18   H10   S    
C19   H8    S    
C28   H18   S    
C11   N5    A    
C5    C18   S    
C19   H7    S    
C14   H24   S    
C20   C21   S    
Cu1   O7    S    
C2    C9    A    
N4    N6    A    
C3    C26   A    
C20   H16   S    
C18   H11   S    
C16   C17   S    
C1    O1    A    
