data_mof_unit_20113.cif
_audit_creation_date              2012-12-10T18:50:02-0500
_audit_creation_method            fapswitch 2.2
_symmetry_space_group_name_H-M    P1
_symmetry_Int_Tables_number       1
_space_group_crystal_system       triclinic
_cell_length_a                    10.676442
_cell_length_b                    9.801652
_cell_length_c                    10.698505
_cell_angle_alpha                 90.121259
_cell_angle_beta                  88.775402
_cell_angle_gamma                 90.051092
_cell_volume                      1119.30536641

loop_
_atom_site_label
_atom_site_type_symbol
_atom_type_description
_atom_site_fract_x
_atom_site_fract_y
_atom_site_fract_z
_atom_type_partial_charge
C1    C     C_R   0.260260 0.500203 0.492228 0.853753
C2    C     C_3   0.615050 0.474593 0.918895 -0.459954
C3    C     C_R   0.065180 0.379848 0.456140 -0.182927
C4    C     C_R   0.064512 0.625081 0.496506 -0.209439
C5    C     C_R   0.936679 0.379433 0.459564 -0.216985
C6    C     C_R   0.936461 0.624655 0.499815 -0.220835
C7    C     C_R   0.872942 0.501173 0.485241 -0.023858
C8    C     C_R   0.128412 0.501809 0.479432 -0.019830
C9    C     C_R   0.587518 0.072321 0.564857 -0.091459
C10   C     C_R   0.587695 0.928176 0.564625 -0.115739
C11   C     C_R   0.412406 0.927665 0.435094 -0.049322
C12   C     C_R   0.412299 0.071811 0.435244 -0.084877
C13   C     C_R   0.499672 0.499951 0.257272 0.878456
C14   C     C_R   0.740343 0.500137 0.496446 0.863125
C15   C     C_R   0.485748 0.500300 0.741274 0.894512
C16   C     C_3   0.444067 0.644185 0.074566 0.348322
C17   C     C_3   0.395734 0.389011 0.075432 0.340481
C18   C     C_3   0.437502 0.646248 0.930928 -0.249107
C19   C     C_3   0.396200 0.377516 0.930071 -0.252759
C20   C     C_3   0.623364 0.468683 0.061785 -0.446911
C21   C     C_3   0.493423 0.500362 0.121041 -0.087208
C22   C     C_3   0.476971 0.500901 0.877196 -0.043452
H1    H     H_    0.342654 0.872609 0.383159 0.142167
H2    H     H_    0.342421 0.126448 0.383462 0.161682
H3    H     H_    0.347281 0.648213 0.113328 0.076370
H4    H     H_    0.302606 0.432091 0.101874 0.067610
H5    H     H_    0.513101 0.715809 0.898077 0.173260
H6    H     H_    0.448084 0.285508 0.899377 0.175559
H7    H     H_    0.697478 0.537786 0.094438 0.164692
H8    H     H_    0.658316 0.368103 0.091570 0.180783
H9    H     H_    0.678814 0.555970 0.882487 0.170232
H10   H     H_    0.651780 0.376926 0.879254 0.179492
H11   H     H_    0.114537 0.284661 0.439995 0.155800
H12   H     H_    0.112804 0.720535 0.512942 0.164140
H13   H     H_    0.887730 0.284012 0.445013 0.154122
H14   H     H_    0.887801 0.719891 0.517888 0.154140
H15   H     H_    0.657204 0.127367 0.616896 0.123691
H16   H     H_    0.657401 0.873500 0.616626 0.122240
N1    N     N_R   0.499970 0.857200 0.499970 -0.079037
N2    N     N_R   0.499970 0.142800 0.499970 -0.081361
O1    O     O_R   0.316750 0.614620 0.499990 -0.638154
O2    O     O_R   0.316750 0.385380 0.499990 -0.622369
O3    O     O_R   0.499970 0.614670 0.314790 -0.585120
O4    O     O_R   0.499970 0.385330 0.314790 -0.581115
O5    O     O_R   0.683220 0.614710 0.500010 -0.631224
O6    O     O_R   0.683220 0.385290 0.500010 -0.634546
O7    O     O_R   0.500010 0.614660 0.685200 -0.638479
O8    O     O_R   0.500010 0.385340 0.685200 -0.624365
Zn1   Zn    Zn3+2 0.499980 0.653120 0.500000 0.939531
Zn2   Zn    Zn3+2 0.499980 0.346880 0.500000 0.945353
O9    O     O_3   0.494932 0.767654 0.124437 -0.587366
C23   C     C_3   0.625713 0.785321 0.110404 -0.282805
H17   H     H_    0.665428 0.749745 0.019804 0.130979
H18   H     H_    0.674532 0.738189 0.189909 0.185930
H19   H     H_    0.646017 0.896130 0.115337 0.155837
O10   O     O_3   0.393515 0.260796 0.139321 -0.604602
C24   C     C_3   0.496173 0.171812 0.116947 -0.285794
H20   H     H_    0.558662 0.172710 0.198361 0.196446
H21   H     H_    0.553469 0.190728 0.031829 0.121691
H22   H     H_    0.458963 0.066572 0.108826 0.203015
C25   C     C_R   0.316722 0.713610 0.884749 0.095778
C26   C     C_R   0.325504 0.819894 0.796049 -0.082919
C27   C     C_R   0.218306 0.884566 0.752695 -0.141265
C28   C     C_R   0.100292 0.846695 0.798938 -0.147876
C29   C     C_R   0.089481 0.745787 0.890220 -0.139420
C30   C     C_R   0.196484 0.680758 0.933981 -0.153196
H23   H     H_    0.415709 0.853306 0.759896 0.133422
H24   H     H_    0.226926 0.964630 0.683476 0.135884
H25   H     H_    0.017279 0.896479 0.764889 0.119057
H26   H     H_    0.997861 0.717049 0.926668 0.122508
H27   H     H_    0.183512 0.601233 0.002742 0.114520
C31   C     C_R   0.264505 0.344197 0.882867 0.073288
C32   C     C_R   0.200001 0.422891 0.795452 -0.104539
C33   C     C_R   0.074288 0.395622 0.770441 -0.136686
C34   C     C_R   0.014774 0.281664 0.821686 -0.136629
C35   C     C_R   0.080766 0.194849 0.899113 -0.158240
C36   C     C_R   0.204393 0.225263 0.928999 -0.108748
H28   H     H_    0.243310 0.508784 0.749685 0.130124
H29   H     H_    0.022113 0.463859 0.712316 0.159041
H30   H     H_    0.917933 0.260341 0.800762 0.119533
H31   H     H_    0.035678 0.104877 0.937599 0.133285
H32   H     H_    0.252553 0.155382 0.989291 0.180666

loop_
_geom_bond_atom_site_label_1
_geom_bond_atom_site_label_2
_ccdc_geom_bond_type
C16   C21   S    
C1    C8    S    
C32   C33   A    
C16   O9    S    
C15   O7    A    
C4    C8    A    
O7    Zn1   S    
C20   H8    S    
C31   C36   A    
C26   H23   S    
C17   H4    S    
C24   H21   S    
C3    H11   S    
C29   H26   S    
O10   C24   S    
C2    H10   S    
C25   C30   A    
C15   C22   S    
C2    C22   S    
C32   H28   S    
C34   H30   S    
C23   H19   S    
O8    Zn2   S    
C19   C31   S    
C15   O8    A    
O1    Zn1   S    
C23   H18   S    
C14   O5    A    
C20   H7    S    
C7    C14   S    
C4    H12   S    
C33   C34   A    
C2    C20   S    
O9    C23   S    
C19   C22   S    
C35   C36   A    
C4    C6    A    
C3    C8    A    
C5    C7    A    
O3    Zn1   S    
C24   H22   S    
C9    N2    A    
C17   C21   S    
C10   N1    A    
C14   O6    A    
C12   N2    A    
C34   C35   A    
C26   C27   A    
C30   H27   S    
O5    Zn1   S    
C9    H15   S    
C13   C21   S    
C28   H25   S    
C11   N1    A    
C19   H6    S    
C17   O10   S    
O2    Zn2   S    
C1    O1    A    
N1    Zn1   S    
C33   H29   S    
C13   O3    A    
C23   H17   S    
C9    C10   A    
O4    Zn2   S    
C16   H3    S    
O6    Zn2   S    
C27   H24   S    
C18   C22   S    
C18   H5    S    
C31   C32   A    
C3    C5    A    
C35   H31   S    
C11   C12   A    
C18   C25   S    
C6    C7    A    
C12   H2    S    
C10   H16   S    
C28   C29   A    
C24   H20   S    
C36   H32   S    
N2    Zn2   S    
C5    H13   S    
C11   H1    S    
C17   C19   S    
C6    H14   S    
C25   C26   A    
C27   C28   A    
C1    O2    A    
C20   C21   S    
C16   C18   S    
C29   C30   A    
C2    H9    S    
C13   O4    A    
