data_mof_unit_54475.cif
_audit_creation_date              2012-12-10T20:49:48-0500
_audit_creation_method            fapswitch 2.2
_symmetry_space_group_name_H-M    P1
_symmetry_Int_Tables_number       1
_space_group_crystal_system       triclinic
_cell_length_a                    8.115181
_cell_length_b                    8.914858
_cell_length_c                    16.957196
_cell_angle_alpha                 89.829426
_cell_angle_beta                  83.243645
_cell_angle_gamma                 90.014002
_cell_volume                      1218.25488559

loop_
_atom_site_label
_atom_site_type_symbol
_atom_type_description
_atom_site_fract_x
_atom_site_fract_y
_atom_site_fract_z
_atom_type_partial_charge
C1    C     C_R   0.499862 0.781944 0.500679 0.986333
C2    C     C_R   0.488039 0.611952 0.217555 -0.001561
C3    C     C_R   0.467689 0.613175 0.864192 -0.175688
C4    C     C_R   0.490196 0.595500 0.136435 -0.300826
C5    C     C_R   0.390246 0.489226 0.902648 0.057901
C6    C     C_R   0.551461 0.464830 0.098537 0.122788
C7    C     C_R   0.334759 0.368108 0.860596 0.235580
C8    C     C_R   0.623753 0.350947 0.140000 0.234169
C9    C     C_R   0.362249 0.370327 0.776900 -0.077659
C10   C     C_R   0.622806 0.364334 0.223027 -0.130147
C11   C     C_2   0.391938 0.479518 0.987514 -0.198571
C12   C     C_R   0.499952 0.218048 0.500141 0.890541
C13   C     C_2   0.535735 0.448220 0.014639 -0.177423
C14   C     C_3   0.372792 0.117031 0.910762 -0.692517
C15   C     C_3   0.567058 0.095572 0.102900 -0.758424
C16   C     C_2   0.579270 0.752787 0.742501 0.432408
C17   C     C_2   0.422246 0.755561 0.252989 0.412017
C18   C     C_2   0.686884 0.241396 0.271003 0.447203
C19   C     C_2   0.311899 0.241774 0.728818 0.450758
C20   C     C_1   0.499888 0.934770 0.500680 -0.132562
C21   C     C_1   0.499882 0.065236 0.500463 -0.164918
C22   C     C_R   0.474133 0.499272 0.652868 0.805565
C23   C     C_R   0.525643 0.499555 0.347093 0.933310
C24   C     C_R   0.448332 0.494311 0.738599 -0.208625
C25   C     C_R   0.548000 0.493058 0.261365 -0.159981
C26   C     C_R   0.498136 0.617752 0.781974 -0.024981
H1    H     H_    0.442464 0.685098 0.102063 0.142869
H2    H     H_    0.616337 0.005630 0.061522 0.239807
H3    H     H_    0.445449 0.132801 0.085837 0.249700
H4    H     H_    0.548894 0.049039 0.164093 0.254669
H5    H     H_    0.591363 0.765481 0.678499 0.063475
H6    H     H_    0.348536 0.828187 0.219420 0.064270
H7    H     H_    0.630385 0.220177 0.331125 0.060464
H8    H     H_    0.382888 0.215397 0.672355 0.055129
H9    H     H_    0.508546 0.704596 0.899285 0.189488
H10   H     H_    0.643097 0.412888 0.974462 0.176348
H11   H     H_    0.280981 0.508286 0.026850 0.169737
H12   H     H_    0.145889 0.212655 0.890879 0.275094
H13   H     H_    0.403669 0.061666 0.852382 0.277212
H14   H     H_    0.311554 0.033762 0.953380 0.226932
H15   H     H_    0.489119 0.155132 0.933023 0.251406
H16   H     H_    0.803008 0.189364 0.104577 0.277219
N1    N     N_1   0.926360 0.500000 0.499990 -0.017939
N2    N     N_1   0.073640 0.500000 0.500010 -0.017345
N3    N     N_2   0.262231 0.242518 0.903915 -0.305918
N4    N     N_2   0.682906 0.219588 0.098059 -0.307362
O1    O     O_R   0.363150 0.714660 0.500000 -0.594740
O2    O     O_2   0.453858 0.797657 0.317929 -0.579311
O3    O     O_2   0.805645 0.164968 0.245122 -0.567323
O4    O     O_2   0.189033 0.166551 0.750185 -0.568064
O5    O     O_R   0.636850 0.285340 0.500000 -0.614583
O6    O     O_R   0.636850 0.714660 0.500000 -0.619459
O7    O     O_R   0.363150 0.285340 0.500000 -0.615017
O8    O     O_R   0.346950 0.500000 0.615800 -0.614732
O9    O     O_R   0.653050 0.500000 0.384200 -0.617782
O10   O     O_R   0.620700 0.500000 0.615800 -0.615468
O11   O     O_R   0.379300 0.500000 0.384200 -0.596533
O12   O     O_2   0.633584 0.852712 0.781285 -0.579505
Zn1   Zn    Zn3+2 0.317220 0.500000 0.500010 1.032290
Zn2   Zn    Zn3+2 0.682780 0.500000 0.499990 1.020282

loop_
_geom_bond_atom_site_label_1
_geom_bond_atom_site_label_2
_ccdc_geom_bond_type
C2    C4    A    
N1    N2    T    
C9    C24   A    
C23   O9    A    
C11   H11   S    
C2    C25   A    
C12   O7    A    
C15   N4    S    
C17   O2    D    
C3    H9    S    
C12   O5    A    
O7    Zn1   S    
C22   O8    A    
C16   O12   D    
O9    Zn2   S    
C2    C17   S    
C11   C13   D    
C19   O4    D    
C15   H2    S    
H16   N4    S    
N1    Zn2   S    
C10   C18   S    
C14   H15   S    
C6    C8    A    
C7    N3    S    
C10   C25   A    
C4    C6    A    
C1    O6    A    
C24   C26   A    
C15   H3    S    
C14   N3    S    
C5    C7    A    
O8    Zn1   S    
C23   C25   S    
C5    C11   S    
C16   C26   S    
H12   N3    S    
C18   H7    S    
C22   C24   S    
O11   Zn1   S    
O1    Zn1   S    
N2    Zn1   S    
C14   H14   S    
C7    C9    A    
C4    H1    S    
C20   C21   T    
C13   H10   S    
C8    C10   A    
C15   H4    S    
C23   O11   A    
C17   H6    S    
C1    O1    A    
C1    C20   S    
C22   O10   A    
O5    Zn2   S    
O6    Zn2   S    
C8    N4    S    
C3    C5    A    
C14   H13   S    
C16   H5    S    
C12   C21   S    
C9    C19   S    
C3    C26   A    
O10   Zn2   S    
C18   O3    D    
C6    C13   S    
C19   H8    S    
