data_mof_unit_60935.cif
_audit_creation_date              2012-10-26T20:36:52-0400
_audit_creation_method            fapswitch 2.2
_symmetry_space_group_name_H-M    P1
_symmetry_Int_Tables_number       1
_space_group_crystal_system       triclinic
_cell_length_a                    15.789733
_cell_length_b                    17.01866
_cell_length_c                    27.820322
_cell_angle_alpha                 90.48098
_cell_angle_beta                  92.278957
_cell_angle_gamma                 95.322592
_cell_volume                      7437.20912519

loop_
_atom_site_label
_atom_site_type_symbol
_atom_type_description
_atom_site_fract_x
_atom_site_fract_y
_atom_site_fract_z
_atom_type_partial_charge
C1    C     C_R   0.490457 0.348314 0.500794 0.580909
C2    C     C_R   0.469881 0.430386 0.871577 -0.025510
C3    C     C_R   0.500805 0.503516 0.354726 -0.052688
C4    C     C_R   0.499195 0.496484 0.645274 -0.052688
C5    C     C_R   0.468879 0.429973 0.973635 0.042578
C6    C     C_R   0.531121 0.570026 0.026365 0.042578
C7    C     C_R   0.535982 0.567283 0.975340 -0.017294
C8    C     C_R   0.464018 0.432716 0.024660 -0.017294
C9    C     C_R   0.501703 0.498693 0.949208 -0.027937
C10   C     C_R   0.498297 0.501306 0.050792 -0.027937
C11   C     C_R   0.445601 0.360182 0.945757 0.376957
C12   C     C_R   0.509543 0.651686 0.499206 0.580909
C13   C     C_R   0.554399 0.639818 0.054243 0.376957
C14   C     C_R   0.443141 0.361827 0.895855 -0.021029
C15   C     C_R   0.556859 0.638172 0.104145 -0.021030
C16   C     C_R   0.500300 0.501540 0.407497 0.589437
C17   C     C_R   0.499700 0.498460 0.592503 0.589437
C18   C     C_R   0.421760 0.370715 0.050606 -0.025487
C19   C     C_R   0.578241 0.629285 0.949394 -0.025487
C20   C     C_R   0.487227 0.261917 0.504507 -0.001634
C21   C     C_R   0.512773 0.738083 0.495493 -0.001634
C22   C     C_R   0.560743 0.225235 0.518389 0.400571
C23   C     C_R   0.497525 0.501878 0.101992 -0.099602
C24   C     C_R   0.439257 0.774765 0.481611 0.400572
C25   C     C_R   0.557073 0.143354 0.522670 0.164821
C26   C     C_R   0.442927 0.856646 0.477330 0.164821
C27   C     C_R   0.479752 0.097173 0.511811 0.172257
C28   C     C_R   0.520248 0.902827 0.488189 0.172257
C29   C     C_R   0.406342 0.133750 0.499634 -0.112304
C30   C     C_R   0.593658 0.866250 0.500366 -0.112304
C31   C     C_R   0.409909 0.215476 0.495821 -0.195128
C32   C     C_R   0.590091 0.784524 0.504179 -0.195128
C33   C     C_R   0.752719 0.460179 0.477521 0.547307
C34   C     C_R   0.502475 0.498122 0.898008 -0.099602
C35   C     C_R   0.247281 0.539821 0.522479 0.547307
C36   C     C_R   0.841969 0.462684 0.478964 -0.103398
C37   C     C_R   0.158031 0.537316 0.521036 -0.103398
C38   C     C_R   0.891089 0.516625 0.509985 0.172207
C39   C     C_R   0.108911 0.483375 0.490015 0.172207
C40   C     C_R   0.465743 0.436721 0.177550 0.489768
C41   C     C_R   0.534257 0.563279 0.822450 0.489768
C42   C     C_R   0.847548 0.566424 0.538818 0.379722
C43   C     C_R   0.152452 0.433575 0.461182 0.379723
C44   C     C_R   0.758108 0.561998 0.536253 0.010826
C45   C     C_R   0.462841 0.435283 0.126869 0.036709
C46   C     C_R   0.241891 0.438002 0.463747 0.010825
C47   C     C_R   0.531778 0.568469 0.178869 0.434105
C48   C     C_R   0.468221 0.431531 0.821130 0.434106
C49   C     C_R   0.446106 0.548001 0.277821 -0.110606
C50   C     C_R   0.553894 0.451999 0.722179 -0.110607
C51   C     C_R   0.445358 0.548806 0.327953 0.006478
C52   C     C_R   0.554642 0.451194 0.672046 0.006477
C53   C     C_R   0.557148 0.459223 0.330399 0.393020
C54   C     C_R   0.442852 0.540777 0.669601 0.393020
C55   C     C_R   0.557264 0.458944 0.280245 0.486013
C56   C     C_R   0.537160 0.564717 0.873131 0.036709
C57   C     C_R   0.442737 0.541056 0.719755 0.486013
C58   C     C_R   0.501473 0.503077 0.253858 0.143847
C59   C     C_R   0.498527 0.496923 0.746141 0.143847
C60   C     C_R   0.423293 0.370655 0.100518 0.414884
C61   C     C_R   0.576708 0.629344 0.899482 0.414883
C62   C     C_R   0.530119 0.569614 0.128423 -0.025510
Cu1   Cu    Cu3+1 0.415220 0.496180 0.497670 1.143279
Cu2   Cu    Cu3+1 0.584780 0.503820 0.502330 1.143279
F1    F     F_    0.610593 0.414634 0.355146 -0.497665
F2    F     F_    0.616915 0.692355 0.877426 -0.521603
F3    F     F_    0.432204 0.287673 0.965310 -0.601007
F4    F     F_    0.567795 0.712326 0.034690 -0.601007
F5    F     F_    0.364110 0.731344 0.471144 -0.545384
F6    F     F_    0.635890 0.268656 0.528855 -0.545383
F7    F     F_    0.389407 0.585366 0.644854 -0.497665
F8    F     F_    0.293190 0.592166 0.552467 -0.493779
F9    F     F_    0.706810 0.407834 0.447533 -0.493779
F10   F     F_    0.891667 0.619282 0.569369 -0.559518
F11   F     F_    0.108333 0.380718 0.430631 -0.559518
F12   F     F_    0.611603 0.415713 0.257190 -0.508347
F13   F     F_    0.388397 0.584287 0.742810 -0.508347
F14   F     F_    0.383086 0.307645 0.122574 -0.521604
H1    H     H_    0.346490 0.098545 0.492125 0.183787
H2    H     H_    0.403663 0.582634 0.257241 0.187227
H3    H     H_    0.423084 0.307587 0.876220 0.213133
H4    H     H_    0.576916 0.692412 0.123780 0.213133
H5    H     H_    0.383131 0.322362 0.033468 0.243393
H6    H     H_    0.616869 0.677637 0.966532 0.243392
H7    H     H_    0.653510 0.901455 0.507875 0.183787
H8    H     H_    0.352284 0.242211 0.485665 0.171369
H9    H     H_    0.647716 0.757789 0.514335 0.171369
H10   H     H_    0.128155 0.577313 0.544038 0.205684
H11   H     H_    0.871845 0.422687 0.455962 0.205684
H12   H     H_    0.725403 0.600672 0.558661 0.169565
H13   H     H_    0.274597 0.399328 0.441339 0.169565
H14   H     H_    0.596337 0.417365 0.742759 0.187227
I1    I     I_    0.331588 0.906604 0.451086 -0.071447
I2    I     I_    0.668412 0.093395 0.548914 -0.071447
I3    I     I_    0.637298 0.375755 0.640179 -0.133366
I4    I     I_    0.362701 0.624245 0.359821 -0.133366
N1    N     N_R   0.500604 0.502405 0.202281 -0.384922
N2    N     N_R   0.499396 0.497595 0.797719 -0.384922
N3    N     N_2   0.473807 0.014020 0.513026 -0.186301
N4    N     N_2   0.526193 0.985980 0.486974 -0.186301
N5    N     N_R   0.712130 0.509560 0.505840 -0.279614
N6    N     N_R   0.287870 0.490440 0.494160 -0.279613
N7    N     N_2   0.982651 0.522916 0.513452 -0.155293
N8    N     N_2   0.017349 0.477084 0.486548 -0.155293
O1    O     O_R   0.420530 0.382500 0.497820 -0.553687
O2    O     O_2   0.566426 0.626540 0.797938 -0.330193
O3    O     O_2   0.435512 0.367204 0.795607 -0.446042
O4    O     O_2   0.564487 0.632796 0.204393 -0.446042
O5    O     O_R   0.579470 0.617500 0.502180 -0.553687
O6    O     O_R   0.563720 0.388950 0.501760 -0.372352
O7    O     O_R   0.436280 0.611050 0.498240 -0.372352
O8    O     O_R   0.428410 0.496790 0.428290 -0.507900
O9    O     O_R   0.571590 0.503210 0.571710 -0.507900
O10   O     O_R   0.571600 0.503240 0.432230 -0.418814
O11   O     O_R   0.428400 0.496760 0.567770 -0.418814
O12   O     O_2   0.433575 0.373459 0.202062 -0.330193

loop_
_geom_bond_atom_site_label_1
_geom_bond_atom_site_label_2
_ccdc_geom_bond_type
C36   H11   S    
C45   C60   A    
C34   C56   A    
C23   C45   A    
C27   C29   A    
C37   H10   S    
C35   N6    A    
C47   C62   A    
C17   O9    A    
C39   N8    S    
C46   N6    A    
C27   N3    S    
C4    C52   A    
C33   N5    A    
C50   C59   A    
C33   F9    S    
C35   C37   A    
C24   C26   A    
C38   C42   A    
C11   C14   A    
C57   C59   A    
C48   O3    S    
C33   C36   A    
C52   I3    S    
Cu1   O8    S    
C61   F2    S    
C23   C62   A    
C54   F7    S    
C49   C51   A    
C22   C25   A    
C50   C52   A    
Cu1   O1    S    
C53   F1    S    
C51   I4    S    
Cu1   O11   S    
C2    C34   A    
C26   I1    S    
C25   I2    S    
C31   H8    S    
C40   C45   A    
C58   N1    S    
C42   C44   A    
Cu1   N6    S    
C12   O5    A    
C11   F3    S    
C24   F5    S    
C15   H4    S    
C53   C55   A    
C43   F11   S    
Cu2   N5    S    
C21   C32   A    
C42   F10   S    
Cu2   O10   S    
C41   O2    S    
C57   F13   S    
C40   N1    A    
C3    C51   A    
C39   C43   A    
C46   H13   S    
C2    C48   A    
C32   H9    S    
C12   C21   S    
C8    C18   A    
C49   C58   A    
C41   C56   A    
C5    C9    A    
C38   N7    S    
C1    O6    A    
Cu2   O6    S    
N3    N4    D    
C29   H1    S    
C16   O8    A    
C60   F14   S    
C18   H5    S    
C30   H7    S    
C55   F12   S    
C18   C60   A    
C20   C22   A    
C35   F8    S    
C7    C19   A    
C13   C15   A    
C9    C34   A    
C21   C24   A    
C4    C17   S    
C19   H6    S    
C44   H12   S    
C17   O11   A    
C50   H14   S    
C7    C9    A    
C13   F4    S    
C1    C20   S    
Cu2   O9    S    
C4    C54   A    
C56   C61   A    
C8    C10   A    
C16   O10   A    
C6    C10   A    
C5    C8    A    
C44   N5    A    
C5    C11   A    
C6    C7    A    
C10   C23   A    
C25   C27   A    
C48   N2    A    
C26   C28   A    
C47   N1    A    
C49   H2    S    
C28   C30   A    
C29   C31   A    
C6    C13   A    
C30   C32   A    
C3    C53   A    
C28   N4    S    
Cu2   O5    S    
C40   O12   S    
C19   C61   A    
C36   C38   A    
C15   C62   A    
C22   F6    S    
Cu1   O7    S    
C2    C14   A    
C43   C46   A    
Cu1   Cu2   S    
C37   C39   A    
C47   O4    S    
C55   C58   A    
N7    N8    D    
C59   N2    S    
C41   N2    A    
C14   H3    S    
C54   C57   A    
C12   O7    A    
C3    C16   S    
C1    O1    A    
C20   C31   A    
