data_mof_unit_18230.cif
_audit_creation_date              2012-10-26T19:25:19-0400
_audit_creation_method            fapswitch 2.2
_symmetry_space_group_name_H-M    P1
_symmetry_Int_Tables_number       1
_space_group_crystal_system       triclinic
_cell_length_a                    12.376163
_cell_length_b                    13.265595
_cell_length_c                    19.362627
_cell_angle_alpha                 76.245375
_cell_angle_beta                  101.7524
_cell_angle_gamma                 116.623355
_cell_volume                      2743.02644787

loop_
_atom_site_label
_atom_site_type_symbol
_atom_type_description
_atom_site_fract_x
_atom_site_fract_y
_atom_site_fract_z
_atom_type_partial_charge
C1    C     C_R   0.855209 0.286920 0.510531 0.508946
C2    C     C_R   0.991644 0.485176 0.147304 -0.004713
C3    C     C_R   0.291004 0.018878 0.404284 -0.117542
C4    C     C_R   0.001075 0.500362 0.632724 0.575314
C5    C     C_R   0.227927 0.837366 0.484599 -0.020533
C6    C     C_R   0.802360 0.112580 0.599477 -0.106137
C7    C     C_R   0.711287 0.025667 0.637661 -0.110997
C8    C     C_R   0.590952 0.989070 0.607559 -0.079255
C9    C     C_R   0.560160 0.027735 0.534810 0.051324
C10   C     C_R   0.652785 0.122269 0.497877 0.029371
C11   C     C_R   0.439301 0.982285 0.499105 0.015876
C12   C     C_R   0.000542 0.497384 0.709709 -0.029870
C13   C     C_R   0.410988 0.048209 0.434756 0.006666
C14   C     C_R   0.502799 0.142624 0.400319 -0.111586
C15   C     C_R   0.622771 0.174486 0.429170 -0.097383
C16   C     C_R   0.144893 0.713802 0.492037 0.583095
C17   C     C_R   0.347153 0.872317 0.521911 0.027568
C18   C     C_R   0.198003 0.917194 0.431115 0.032891
C19   C     C_R   0.772899 0.167404 0.532092 0.005014
C20   C     C_R   0.347889 0.325777 0.612903 -0.092855
C21   C     C_R   0.752188 0.634208 0.397564 0.057250
C22   C     C_R   0.642342 0.633679 0.361968 -0.122283
C23   C     C_R   0.985669 0.482051 0.070754 0.372020
C24   C     C_R   0.533780 0.562941 0.392609 0.021034
C25   C     C_R   0.540190 0.511551 0.465837 -0.018414
C26   C     C_R   0.650720 0.499542 0.494536 0.168743
C27   C     C_R   0.440306 0.462171 0.509507 -0.021622
C28   C     C_R   0.000616 0.501700 0.367412 0.574461
C29   C     C_R   0.444175 0.380969 0.571083 -0.041377
C30   C     C_R   0.545731 0.356887 0.592066 -0.148960
C31   C     C_R   0.648109 0.417544 0.556073 -0.082779
C32   C     C_R   0.341287 0.494815 0.498496 0.355342
C33   C     C_R   0.249004 0.353614 0.596534 0.377402
C34   C     C_R   0.976944 0.480554 0.930123 0.397558
C35   C     C_R   0.099514 0.497099 0.761981 0.244103
C36   C     C_R   0.091348 0.489966 0.834756 0.019758
C37   C     C_R   0.985710 0.485943 0.854901 -0.021419
C38   C     C_R   0.889382 0.488498 0.802840 0.220444
C39   C     C_R   0.896947 0.493376 0.731384 -0.137237
C40   C     C_2   0.375474 0.788035 0.579172 0.595241
C41   C     C_2   0.195161 0.490213 0.889380 0.654085
C42   C     C_2   0.419228 0.525782 0.342692 0.650948
C43   C     C_2   0.071842 0.897328 0.400584 0.601570
C44   C     C_R   0.042120 0.422871 0.203028 0.255792
C45   C     C_R   0.044441 0.430181 0.274118 -0.092610
C46   C     C_R   0.998792 0.499590 0.291421 -0.014461
C47   C     C_R   0.952149 0.564503 0.235715 0.229664
C48   C     C_R   0.947981 0.555918 0.164894 -0.093348
Cl1   Cl    Cl    0.239011 0.515821 0.737921 -0.403152
Cl2   Cl    Cl    0.132309 0.279215 0.651921 -0.527073
Cl3   Cl    Cl    0.351523 0.621627 0.439395 -0.489434
Cl4   Cl    Cl    0.755010 0.481495 0.825561 -0.491907
Cl5   Cl    Cl    0.109044 0.338635 0.187803 -0.433680
Cl6   Cl    Cl    0.904402 0.663440 0.250436 -0.531470
Cu1   Cu    Cu3+1 0.098280 0.475420 0.516260 1.156038
Cu2   Cu    Cu3+1 0.901720 0.524580 0.483740 1.002906
H1    H     H_    0.482093 0.189917 0.349483 0.144464
H2    H     H_    0.641071 0.679305 0.307600 0.183738
H3    H     H_    0.722045 0.394687 0.577263 0.173028
H4    H     H_    0.820226 0.493241 0.692653 0.172654
H5    H     H_    0.081830 0.380652 0.316198 0.202754
H6    H     H_    0.910531 0.605872 0.123210 0.198380
H7    H     H_    0.477031 0.698460 0.615616 0.365751
H8    H     H_    0.315310 0.421711 0.931723 0.372390
H9    H     H_    0.352927 0.360200 0.392094 0.289737
H10   H     H_    0.904426 0.866845 0.419143 0.340178
H11   H     H_    0.269620 0.075738 0.358961 0.168506
H12   H     H_    0.893158 0.146252 0.626675 0.199295
H13   H     H_    0.523683 0.934740 0.643567 0.154861
H14   H     H_    0.733133 0.991987 0.692687 0.165012
H15   H     H_    0.691632 0.243575 0.398223 0.142297
H16   H     H_    0.548277 0.293678 0.638890 0.139000
H17   H     H_    0.349985 0.261495 0.659135 0.167589
H18   H     H_    0.833855 0.682845 0.371451 0.210489
N1    N     N_R   0.973649 0.569326 0.951161 -0.123954
N2    N     N_R   0.977571 0.569805 0.020196 -0.193299
N3    N     N_R   0.986679 0.392356 0.049223 -0.109384
N4    N     N_R   0.983279 0.391903 0.980179 -0.164480
N5    N     N_R   0.246290 0.438200 0.540910 -0.220399
N6    N     N_R   0.754310 0.561190 0.459520 -0.243875
O1    O     O_R   0.972510 0.318130 0.520450 -0.474164
O2    O     O_R   0.467801 0.757803 0.573812 -0.636818
O3    O     O_2   0.236247 0.557192 0.931838 -0.451086
O4    O     O_R   0.245384 0.413351 0.892349 -0.587540
O5    O     O_2   0.404811 0.593210 0.290519 -0.388943
O6    O     O_R   0.328288 0.414054 0.352795 -0.641961
O7    O     O_2   0.045242 0.909978 0.335701 -0.442854
O8    O     O_R   0.985314 0.871374 0.446169 -0.663048
O9    O     O_R   0.806530 0.359650 0.492990 -0.544852
O10   O     O_R   0.083010 0.479220 0.613590 -0.393004
O11   O     O_R   0.917030 0.520740 0.586130 -0.543335
O12   O     O_R   0.193470 0.640350 0.507010 -0.425953
O13   O     O_R   0.027490 0.681870 0.479550 -0.471915
O14   O     O_R   0.082970 0.479260 0.413870 -0.473978
O15   O     O_R   0.916990 0.520780 0.386410 -0.475240
O16   O     O_2   0.316664 0.744308 0.630456 -0.468367

loop_
_geom_bond_atom_site_label_1
_geom_bond_atom_site_label_2
_ccdc_geom_bond_type
Cu2   O15   S    
Cu1   Cu2   S    
C27   C29   A    
C34   C37   S    
C24   C42   S    
C35   C36   A    
C23   N2    A    
C7    H14   S    
H9    O6    S    
N3    N4    A    
C6    C19   A    
C28   C46   S    
C16   O13   A    
C37   C38   A    
C28   O15   A    
C43   O8    S    
C36   C37   A    
Cu1   O10   S    
C10   C15   A    
H10   O8    S    
C30   C31   A    
C5    C17   A    
C1    O1    A    
C41   O3    D    
C3    C18   A    
C28   O14   A    
C31   H3    S    
H8    O4    S    
C5    C16   S    
C44   Cl5   S    
Cu2   O11   S    
C2    C44   A    
C8    C9    A    
C35   Cl1   S    
C42   O6    S    
C4    C12   S    
C29   C30   A    
C9    C10   A    
C3    C13   A    
C34   N1    A    
C4    O11   A    
C6    H12   S    
C26   C31   A    
C21   C22   A    
C36   C41   S    
C40   O16   D    
Cu1   O14   S    
C4    O10   A    
C20   C29   A    
Cu2   O13   S    
C1    C19   S    
H7    O2    S    
C40   O2    S    
C7    C8    A    
C24   C25   A    
C33   N5    A    
C5    C18   A    
C2    C48   A    
C25   C26   A    
C45   C46   A    
C41   O4    S    
C21   H18   S    
C26   N6    A    
C17   C40   S    
N1    N2    A    
C32   Cl3   S    
Cu1   O12   S    
Cu1   N5    S    
C48   H6    S    
C47   C48   A    
C10   C19   A    
C8    H13   S    
C42   O5    D    
C23   N3    A    
C12   C35   A    
C9    C11   A    
C47   Cl6   S    
C20   C33   A    
Cu2   O9    S    
C16   O12   A    
C22   C24   A    
Cu1   O1    S    
C44   C45   A    
C14   H1    S    
C46   C47   A    
C11   C17   A    
C1    O9    A    
C27   C32   A    
C3    H11   S    
C22   H2    S    
C30   H16   S    
C6    C7    A    
C25   C27   A    
C15   H15   S    
Cu2   N6    S    
C43   O7    D    
C12   C39   A    
C33   Cl2   S    
C18   C43   S    
C34   N4    A    
C32   N5    A    
C11   C13   A    
C38   C39   A    
C39   H4    S    
C21   N6    A    
C45   H5    S    
C20   H17   S    
C38   Cl4   S    
C2    C23   S    
C14   C15   A    
C13   C14   A    
