data_mof_unit_54938.cif
_audit_creation_date              2012-12-11T16:05:08-0500
_audit_creation_method            fapswitch 2.2
_symmetry_space_group_name_H-M    P1
_symmetry_Int_Tables_number       1
_space_group_crystal_system       triclinic
_cell_length_a                    10.554748
_cell_length_b                    10.686349
_cell_length_c                    16.913005
_cell_angle_alpha                 98.631271
_cell_angle_beta                  98.594449
_cell_angle_gamma                 61.685286
_cell_volume                      1653.66285295

loop_
_atom_site_label
_atom_site_type_symbol
_atom_type_description
_atom_site_fract_x
_atom_site_fract_y
_atom_site_fract_z
_atom_type_partial_charge
C1    C     C_R   0.378959 0.716135 0.385900 0.547704
C2    C     C_3   0.292061 0.729421 0.234081 -0.099756
C3    C     C_3   0.359094 0.777603 0.311656 0.037042
C4    C     C_R   0.370053 0.346878 0.358846 0.532984
C5    C     C_3   0.474326 0.780767 0.267194 -0.097208
C6    C     C_3   0.369784 0.940186 0.254682 -0.155004
C7    C     C_3   0.256204 0.935566 0.301042 -0.124881
C8    C     C_3   0.188905 0.888008 0.222490 -0.133439
C9    C     C_3   0.302312 0.892455 0.177049 0.054465
C10   C     C_3   0.457443 0.240776 0.769045 0.000547
C11   C     C_3   0.419606 0.379456 0.733978 -0.120195
C12   C     C_3   0.698628 0.412801 0.256935 -0.084003
C13   C     C_3   0.334990 0.335542 0.662646 0.043513
C14   C     C_3   0.374962 0.196466 0.697550 -0.123821
C15   C     C_3   0.235159 0.276922 0.741190 -0.119799
C16   C     C_R   0.780515 0.375071 0.403282 0.534173
C17   C     C_3   0.195397 0.416910 0.704766 -0.114642
C18   C     C_3   0.279755 0.459368 0.777749 -0.140258
C19   C     C_3   0.320361 0.319826 0.812701 0.040656
C20   C     C_1   0.817047 0.342392 0.709710 -0.045682
C21   C     C_1   0.843404 0.315069 0.778146 -0.035971
C22   C     C_1   0.357985 0.764719 0.714517 -0.045268
C23   C     C_3   0.822026 0.345909 0.322662 0.049384
C24   C     C_1   0.326968 0.811262 0.782130 -0.047287
C25   C     C_R   0.892072 0.310407 0.090934 0.544970
C26   C     C_R   0.319664 0.299511 0.120188 0.538834
C27   C     C_R   0.261153 0.951385 0.100155 0.541296
C28   C     C_R   0.379679 0.715362 0.631810 0.557160
C29   C     C_R   0.884599 0.299419 0.860982 0.552874
C30   C     C_R   0.308813 0.293232 0.891707 0.543893
C31   C     C_R   0.282879 0.879898 0.859740 0.549220
C32   C     C_R   0.365642 0.345860 0.584646 0.540347
C33   C     C_R   0.773776 0.380039 0.629690 0.536044
C34   C     C_3   0.886186 0.203833 0.271100 -0.135023
C35   C     C_1   0.343578 0.336648 0.275081 -0.066953
C36   C     C_1   0.332265 0.326415 0.203845 -0.057430
C37   C     C_3   0.764032 0.270422 0.203825 -0.113838
C38   C     C_1   0.602656 0.144734 0.803002 0.220306
C39   C     C_3   0.979146 0.256574 0.237232 -0.125804
C40   C     C_3   0.913673 0.398966 0.290236 -0.128032
C41   C     C_3   0.791390 0.465646 0.223696 -0.097949
C42   C     C_3   0.855529 0.324073 0.171664 0.063582
C43   C     C_3   0.403722 0.736735 0.189446 0.108965
Cr1   Cr    Cr6+3 0.608340 0.611040 0.520430 1.025253
Cr2   Cr    Cr6+3 0.287650 0.601120 0.489350 1.016705
Cr3   Cr    Cr6+3 0.604040 0.287870 0.490280 1.024035
Cr4   Cr    Cr6+3 0.054020 0.052700 0.970850 1.048208
Cr5   Cr    Cr6+3 0.059230 0.375120 0.993390 1.025699
Cr6   Cr    Cr6+3 0.374950 0.061200 0.992340 1.031541
H1    H     H_    0.582837 0.474827 0.267922 0.121036
H2    H     H_    0.701978 0.219696 0.166473 0.134184
H3    H     H_    0.922861 0.099712 0.294915 0.118374
H4    H     H_    0.094765 0.195063 0.226014 0.101172
H5    H     H_    0.975869 0.449776 0.327363 0.126815
H6    H     H_    0.755614 0.570859 0.201534 0.132080
H7    H     H_    0.262527 0.641250 0.226571 0.117367
H8    H     H_    0.590317 0.737412 0.288946 0.120881
H9    H     H_    0.541251 0.666473 0.101854 0.245459
H10   H     H_    0.405155 0.623616 0.081248 0.249343
H11   H     H_    0.400101 0.027687 0.261244 0.126571
H12   H     H_    0.196210 0.016086 0.349237 0.132419
H13   H     H_    0.072641 0.930308 0.201362 0.128544
H14   H     H_    0.496370 0.421169 0.729218 0.102955
H15   H     H_    0.412610 0.089758 0.663379 0.137519
H16   H     H_    0.158877 0.234861 0.746292 0.121895
H17   H     H_    0.087712 0.487415 0.675754 0.140781
H18   H     H_    0.242551 0.565672 0.812287 0.132876
N1    N     N_1   0.716897 0.068313 0.829665 -0.270564
N2    N     N_3   0.481663 0.629438 0.126572 -0.643352
O1    O     O_R   0.751220 0.499230 0.435170 -0.527070
O2    O     O_R   0.412990 0.180750 0.091610 -0.520952
O3    O     O_R   0.366620 0.943130 0.065760 -0.504992
O4    O     O_R   0.477220 0.727600 0.436870 -0.490766
O5    O     O_R   0.160510 0.906330 0.879210 -0.496307
O6    O     O_R   0.930190 0.179050 0.889450 -0.469582
O7    O     O_R   0.909140 0.398170 0.896710 -0.510078
O8    O     O_R   0.186190 0.363460 0.918830 -0.497846
O9    O     O_R   0.401670 0.173200 0.913310 -0.505630
O10   O     O_R   0.356120 0.936130 0.900470 -0.488192
O11   O     O_3   0.162740 0.163010 0.985530 -0.280056
O12   O     O_R   0.297880 0.469080 0.560050 -0.516404
O13   O     O_R   0.258650 0.745120 0.411470 -0.507184
O14   O     O_R   0.297070 0.467240 0.395960 -0.517683
O15   O     O_R   0.488830 0.252610 0.387790 -0.506013
O16   O     O_R   0.724400 0.302390 0.420980 -0.499018
O17   O     O_R   0.752100 0.501210 0.612190 -0.515117
O18   O     O_R   0.478040 0.729440 0.600970 -0.484119
O19   O     O_R   0.259530 0.747110 0.588490 -0.493440
O20   O     O_R   0.489720 0.254590 0.564810 -0.507721
O21   O     O_R   0.725220 0.304230 0.585080 -0.492434
O22   O     O_3   0.500010 0.500010 0.500020 -0.292064
O23   O     O_R   0.171830 0.913880 0.057510 -0.518447
O24   O     O_R   0.940690 0.186050 0.054730 -0.516031
O25   O     O_R   0.920470 0.405720 0.075010 -0.517862
O26   O     O_R   0.196690 0.370460 0.084120 -0.498509

loop_
_geom_bond_atom_site_label_1
_geom_bond_atom_site_label_2
_ccdc_geom_bond_type
C11   C18   S    
C25   O24   A    
Cr5   O26   S    
C34   C37   S    
C41   C42   S    
Cr5   O7    S    
C13   C32   S    
C35   C36   T    
C6    C9    S    
C7    C8    S    
Cr3   O20   S    
C15   C19   S    
C32   O12   A    
C12   C23   S    
C17   H17   S    
Cr5   O25   S    
C11   H14   S    
C5    C6    S    
C37   H2    S    
C23   C40   S    
C15   H16   S    
C12   C37   S    
Cr6   O9    S    
C18   C19   S    
Cr4   O23   S    
C37   C42   S    
C41   H6    S    
C30   O8    A    
C7    H12   S    
Cr2   O13   S    
C8    C9    S    
Cr6   O3    S    
C28   O19   A    
Cr1   O1    S    
Cr1   O18   S    
C2    C43   S    
Cr3   O16   S    
C5    C43   S    
C4    C35   S    
C25   O25   A    
C43   N2    S    
C22   C28   S    
C13   C14   S    
C26   O2    A    
Cr2   O14   S    
Cr4   O11   S    
Cr1   O17   S    
C39   C42   S    
Cr2   O12   S    
C9    C43   S    
C34   C39   S    
C6    H11   S    
Cr2   O19   S    
C16   O1    A    
C10   C14   S    
C39   C40   S    
C29   O7    A    
C31   O5    A    
Cr3   O22   S    
C1    O13   A    
C21   C29   S    
Cr6   O10   S    
C1    C3    S    
Cr5   O8    S    
C33   O17   A    
C12   C41   S    
C32   O20   A    
C4    O15   A    
C10   C19   S    
C23   C34   S    
C14   H15   S    
C28   O18   A    
C17   C18   S    
Cr4   O24   S    
C27   O23   A    
Cr1   O22   S    
H10   N2    S    
C29   O6    A    
C20   C33   S    
C26   C36   S    
C40   C41   S    
C38   N1    T    
C16   C23   S    
C40   H5    S    
C16   O16   A    
C22   C24   T    
C9    C27   S    
C26   O26   A    
C15   C17   S    
C34   H3    S    
C2    C8    S    
Cr4   O5    S    
C3    C5    S    
C25   C42   S    
C12   H1    S    
H9    N2    S    
C31   O10   A    
C6    C7    S    
Cr3   O21   S    
C5    H8    S    
C3    C7    S    
Cr6   O11   S    
C13   C17   S    
C10   C38   S    
C1    O4    A    
Cr5   O11   S    
C2    C3    S    
C18   H18   S    
C24   C31   S    
Cr4   O6    S    
C2    H7    S    
C33   O21   A    
C11   C13   S    
C39   H4    S    
C4    O14   A    
Cr3   O15   S    
Cr1   O4    S    
Cr2   O22   S    
C10   C11   S    
C30   O9    A    
C20   C21   T    
Cr6   O2    S    
C14   C15   S    
C19   C30   S    
C27   O3    A    
C8    H13   S    
