data_mof_unit_53856.cif
_audit_creation_date              2013-03-05T15:40:59-0500
_audit_creation_method            fapswitch 2.2
_symmetry_space_group_name_H-M    P1
_symmetry_Int_Tables_number       1
_space_group_crystal_system       triclinic
_cell_length_a                    10.719873
_cell_length_b                    8.677163
_cell_length_c                    7.466073
_cell_angle_alpha                 102.852593
_cell_angle_beta                  94.860978
_cell_angle_gamma                 92.572556
_cell_volume                      673.191200486

loop_
_atom_site_label
_atom_site_type_symbol
_atom_site_description
_atom_site_fract_x
_atom_site_fract_y
_atom_site_fract_z
_atom_type_partial_charge
O1    O     O_R   0.509140 0.286130 0.619770 -0.582408
O2    O     O_R   0.485380 0.256770 0.308360 -0.581914
C1    C     C_R   0.496143 0.199793 0.453334 0.885336
O3    O     O_R   0.329570 0.514650 0.655700 -0.549925
O4    O     O_R   0.305810 0.485300 0.344290 -0.573912
C2    C     C_R   0.259884 0.497145 0.500545 0.797519
Cu1   Cu    Cu3+1 0.514070 0.517380 0.684380 1.029098
Cu2   Cu    Cu3+1 0.485930 0.482620 0.315620 0.994387
O5    O     O_R   0.514620 0.743230 0.691640 -0.567186
O6    O     O_R   0.490860 0.713870 0.380230 -0.591879
O7    O     O_R   0.694190 0.514700 0.655710 -0.542677
O8    O     O_R   0.670430 0.485350 0.344300 -0.604955
C3    C     C_R   0.503799 0.800208 0.546686 0.884261
C4    C     C_R   0.739931 0.501955 0.499134 0.797647
C5    C     C_3   0.068192 0.353757 0.572947 0.212509
H1    H     H_    0.079951 0.243950 0.466647 0.102517
C6    C     C_3   0.926000 0.366583 0.588071 -0.378534
H2    H     H_    0.875612 0.251713 0.515480 0.136365
H3    H     H_    0.904616 0.385791 0.733935 0.247479
H4    H     H_    0.127073 0.676527 0.763366 0.251704
C7    C     C_3   0.086449 0.657845 0.617988 -0.379820
C8    C     C_3   0.058577 0.479333 0.300874 -0.372818
C9    C     C_3   0.121853 0.497013 0.501198 -0.068563
H5    H     H_    0.088909 0.582379 0.245183 0.249079
H6    H     H_    0.086897 0.370007 0.208309 0.236336
C10   C     C_3   0.877699 0.501725 0.499325 -0.048303
C11   C     C_3   0.942281 0.666415 0.604443 0.208525
C12   C     C_3   0.915278 0.469766 0.298558 -0.442404
H7    H     H_    0.876372 0.350370 0.220005 0.214720
H8    H     H_    0.876430 0.558219 0.225351 0.234031
H9    H     H_    0.128481 0.756795 0.565260 0.144059
H10   H     H_    0.918042 0.753200 0.518985 0.103680
C13   C     C_2   0.494279 0.031880 0.427104 -0.356303
H11   H     H_    0.483626 0.960372 0.286522 0.184841
C14   C     C_2   0.505589 0.968127 0.572965 -0.315863
H12   H     H_    0.516233 0.039629 0.713553 0.190893
N1    N     N_2   0.464720 0.456420 0.038520 -0.202389
H13   H     H_    0.401899 0.377014 0.948187 0.275648
N2    N     N_2   0.535280 0.543580 0.961480 -0.212805
H14   H     H_    0.598603 0.622511 0.051727 0.239629
N3    N     N_R   0.133553 0.336388 0.747435 0.127148
O9    O     O_R   0.133894 0.446025 0.897765 -0.372699
O10   O     O_R   0.188731 0.206936 0.754055 -0.397476
N4    N     N_R   0.899126 0.725884 0.787279 0.139822
O11   O     O_R   0.926457 0.657780 0.922881 -0.370914
O12   O     O_R   0.837714 0.853672 0.817571 -0.373485

loop_
_geom_bond_atom_site_label_1
_geom_bond_atom_site_label_2
_geom_bond_distance
_ccdc_geom_bond_type
O4    Cu2   1.961239 S    
C5    C6    1.545109 S    
N1    H13   1.028473 S    
C7    H9    1.113957 S    
N3    O9    1.299519 A    
C10   C12   1.553532 S    
C14   H12   1.087806 S    
Cu2   O8    1.969754 S    
C12   H8    1.112659 S    
C6    H2    1.113878 S    
C7    C11   1.546414 S    
Cu1   Cu2   2.691404 S    
N1    N2    1.300337 D    
C8    C12   1.533084 S    
C4    C10   1.476822 S    
Cu1   O7    1.961239 S    
N3    O10   1.301331 A    
C10   C11   1.567655 S    
O3    Cu1   1.969755 S    
C2    C9    1.480043 S    
Cu1   N2    2.022352 S    
C5    C9    1.564394 S    
C12   H7    1.113861 S    
C6    H3    1.109641 S    
N4    O12   1.301256 A    
C3    C14   1.425324 S    
O2    C1    1.285040 A    
C7    C9    1.553779 S    
O4    C2    1.289367 A    
O7    C4    1.289861 A    
C8    H5    1.113695 S    
Cu2   N1    2.022352 S    
C6    C10   1.556995 S    
C5    H1    1.115766 S    
C13   H11   1.087789 S    
H4    C7    1.108739 S    
C5    N3    1.467277 S    
O3    C2    1.299187 A    
N2    H14   1.029230 S    
Cu1   O5    1.948126 S    
C1    C13   1.425275 S    
C8    C9    1.561155 S    
O5    C3    1.284934 A    
C13   C14   1.326018 D    
C11   H10   1.115754 S    
O1    Cu1   1.953827 S    
C11   N4    1.469278 S    
O6    C3    1.293146 A    
Cu2   O6    1.953827 S    
O2    Cu2   1.948126 S    
N4    O11   1.300566 A    
O8    C4    1.297108 A    
O1    C1    1.293020 A    
C8    H6    1.113299 S    
