data_mof_unit_52705.cif
_audit_creation_date              2012-12-11T16:57:21-0500
_audit_creation_method            fapswitch 2.2
_symmetry_space_group_name_H-M    P1
_symmetry_Int_Tables_number       1
_space_group_crystal_system       triclinic
_cell_length_a                    14.301712
_cell_length_b                    16.452129
_cell_length_c                    6.972272
_cell_angle_alpha                 90.199252
_cell_angle_beta                  98.299859
_cell_angle_gamma                 90.052059
_cell_volume                      1623.33690286

loop_
_atom_site_label
_atom_site_type_symbol
_atom_type_description
_atom_site_fract_x
_atom_site_fract_y
_atom_site_fract_z
_atom_type_partial_charge
O1    O     O_R   0.584990 0.413650 0.534420 -0.535173
O2    O     O_R   0.584990 0.586350 0.534420 -0.540976
O3    O     O_R   0.596190 0.585230 0.208380 -0.542478
O4    O     O_R   0.596190 0.414770 0.208380 -0.543746
O5    O     O_R   0.415010 0.586420 0.976930 -0.546441
O6    O     O_R   0.415010 0.413580 0.976930 -0.549853
C1    C     C_R   0.621214 0.612124 0.384411 0.694416
C2    C     C_R   0.620129 0.387167 0.383252 0.699080
O7    O     O_3   0.440560 0.500000 0.319140 -0.369375
V1    V     V_3+5 0.511030 0.500000 0.068070 1.376219
O8    O     O_R   0.403810 0.414840 0.643540 -0.533928
O9    O     O_R   0.403810 0.585160 0.643540 -0.539425
C3    C     C_R   0.377862 0.388735 0.804553 0.736697
C4    C     C_R   0.383410 0.615114 0.806142 0.716429
V2    V     V_3+5 0.488970 0.500000 0.560620 1.381238
O10   O     O_3   0.559440 0.500000 0.859420 -0.372413
H1    H     H_    0.170978 0.797726 0.809409 0.148619
H2    H     H_    0.176738 0.198321 0.811288 0.152795
H3    H     H_    0.296484 0.679421 0.085133 0.138361
H4    H     H_    0.339671 0.288690 0.082175 0.137147
C5    C     C_2   0.320531 0.687785 0.793107 -0.023823
C6    C     C_2   0.299821 0.326987 0.791148 -0.028518
C7    C     C_2   0.279970 0.712014 0.949162 -0.172733
C8    C     C_2   0.290764 0.280416 0.949058 -0.193694
H5    H     H_    0.229657 0.799367 0.248087 0.133810
H6    H     H_    0.237429 0.195310 0.250081 0.132652
C9    C     C_2   0.193161 0.817880 0.108499 -0.354530
C10   C     C_2   0.198558 0.178534 0.110519 -0.343183
C11   C     C_2   0.211203 0.779938 0.946129 -0.123084
C12   C     C_2   0.217078 0.216173 0.948602 -0.133073
C13   C     C_R   0.753970 0.687577 0.591965 0.063941
C14   C     C_R   0.684132 0.264500 0.563602 0.064615
C15   C     C_R   0.695697 0.676410 0.413945 -0.099497
C16   C     C_R   0.687301 0.317715 0.410672 -0.106259
C17   C     C_R   0.704602 0.733411 0.267349 -0.186505
C18   C     C_R   0.756537 0.302900 0.290376 -0.188899
H7    H     H_    0.660271 0.726957 0.129726 0.133830
H8    H     H_    0.762755 0.343084 0.170361 0.127813
C19   C     C_R   0.764849 0.801966 0.301798 -0.195028
C20   C     C_R   0.822417 0.238715 0.331132 -0.171904
H9    H     H_    0.766943 0.846112 0.188955 0.137101
H10   H     H_    0.877789 0.232550 0.241500 0.115164
C21   C     C_R   0.816746 0.817119 0.485256 -0.099779
C22   C     C_R   0.819297 0.184970 0.488634 -0.128348
C23   C     C_R   0.805119 0.760412 0.630136 0.093129
C24   C     C_R   0.745529 0.198228 0.601419 0.086752
C25   C     C_3   0.760751 0.771793 0.811189 -0.037282
C26   C     C_3   0.747856 0.215132 0.816115 -0.040178
C27   C     C_3   0.723873 0.685695 0.786911 -0.459847
C28   C     C_3   0.683450 0.287154 0.768114 -0.418803
H11   H     H_    0.814455 0.780512 0.940909 0.136944
H12   H     H_    0.819133 0.233447 0.889498 0.134045
H13   H     H_    0.646514 0.679613 0.787304 0.184988
H14   H     H_    0.611399 0.281928 0.809633 0.166815
H15   H     H_    0.766477 0.641707 0.883823 0.158606
H16   H     H_    0.719236 0.346273 0.806509 0.157822
O11   O     O_R   0.921430 0.915960 0.371040 -0.534351
O12   O     O_R   0.921430 0.084040 0.371040 -0.541288
O13   O     O_R   0.910450 0.087500 0.697310 -0.549164
O14   O     O_R   0.910450 0.912500 0.697310 -0.541998
O15   O     O_R   0.091710 0.087460 0.928430 -0.538623
O16   O     O_R   0.091710 0.912540 0.928430 -0.538227
C29   C     C_R   0.888174 0.115061 0.521407 0.686434
C30   C     C_R   0.886366 0.886410 0.519744 0.684674
O17   O     O_3   0.065970 0.000000 0.586140 -0.364420
V3    V     V_3+5 0.995640 0.000000 0.837400 1.371569
O18   O     O_R   0.103020 0.915700 0.261710 -0.540171
O19   O     O_R   0.103020 0.084300 0.261710 -0.541090
C31   C     C_R   0.124513 0.885741 0.099555 0.763976
C32   C     C_R   0.126082 0.113276 0.100239 0.753237
V4    V     V_3+5 0.017940 0.000000 0.344880 1.374834
O20   O     O_3   0.947330 0.000000 0.046180 -0.383935
C33   C     C_3   0.310541 0.735277 0.603984 -0.332472
C34   C     C_3   0.403338 0.777594 0.579351 -0.762362
H17   H     H_    0.424640 0.820098 0.702094 0.226136
H18   H     H_    0.460741 0.732741 0.572767 0.221490
H19   H     H_    0.394057 0.812838 0.442416 0.212771
H20   H     H_    0.290092 0.692916 0.480554 0.171691
H21   H     H_    0.255340 0.782435 0.592004 0.175283
C35   C     C_3   0.226935 0.317202 0.607943 -0.373530
C36   C     C_3   0.229600 0.378443 0.444215 -0.706974
H22   H     H_    0.229266 0.441731 0.500163 0.216523
H23   H     H_    0.291966 0.367798 0.369510 0.237099
H24   H     H_    0.165831 0.370120 0.334425 0.200228
H25   H     H_    0.234036 0.255376 0.547933 0.175368
H26   H     H_    0.155203 0.322326 0.650785 0.184864
C37   C     C_3   0.675085 0.830762 0.785683 -0.328938
C38   C     C_3   0.704548 0.918520 0.797637 -0.767696
H27   H     H_    0.644607 0.956505 0.830298 0.214153
H28   H     H_    0.765064 0.924953 0.915037 0.237002
H29   H     H_    0.724410 0.939362 0.657986 0.220572
H30   H     H_    0.628998 0.820293 0.644861 0.201437
H31   H     H_    0.630800 0.819906 0.901046 0.170762
C39   C     C_3   0.697398 0.150830 0.923098 -0.391345
C40   C     C_3   0.766165 0.086037 0.000113 -0.683031
H32   H     H_    0.786927 0.053381 0.875661 0.248863
H33   H     H_    0.830355 0.114322 0.076883 0.247523
H34   H     H_    0.734549 0.044596 0.098589 0.198054
H35   H     H_    0.669152 0.179120 0.047795 0.208041
H36   H     H_    0.637036 0.123097 0.826176 0.186774

loop_
_geom_bond_atom_site_label_1
_geom_bond_atom_site_label_2
_ccdc_geom_bond_type
O15   C32   A    
C37   C38   S    
C9    C11   D    
O1    C2    A    
H1    C11   S    
C33   C34   S    
C17   C19   A    
O2    C1    A    
O4    C2    A    
C36   H22   S    
C40   H34   S    
C25   C27   S    
C28   H14   S    
C34   H18   S    
C7    C11   S    
C4    C5    S    
C17   H7    S    
O3    C1    A    
O13   V3    S    
O12   V4    S    
V2    O10   S    
C5    C33   S    
C35   H26   S    
O8    V2    S    
O15   V3    S    
V3    O20   S    
H4    C8    S    
C34   H19   S    
C33   H20   S    
C13   C15   A    
H2    C12   S    
O7    V1    S    
C20   C22   A    
C16   C18   A    
C9    C31   S    
C26   C28   S    
O14   V3    S    
C37   H30   S    
C1    C15   S    
C13   C27   S    
C36   H23   S    
C22   C24   A    
C21   C30   S    
C23   C25   S    
C22   C29   S    
C24   C26   S    
C34   H17   S    
O16   V3    S    
C18   C20   A    
C19   H9    S    
C25   H11   S    
C27   H15   S    
C28   H16   S    
O16   C31   A    
O18   C31   A    
C14   C16   A    
H3    C7    S    
C35   H25   S    
C38   H29   S    
C39   H36   S    
C33   H21   S    
C2    C16   S    
O11   V4    S    
O2    V2    S    
C21   C23   A    
C14   C28   S    
O5    C4    A    
C26   C39   S    
O1    V2    S    
C38   H28   S    
O9    V2    S    
C5    C7    D    
C6    C8    D    
O13   C29   A    
O4    V1    S    
C18   H8    S    
C36   H24   S    
O11   C30   A    
O12   C29   A    
C14   C24   A    
C10   C32   S    
O9    C4    A    
C35   C36   S    
O6    V1    S    
C19   C21   A    
C40   H33   S    
H5    C9    S    
H6    C10   S    
O14   C30   A    
C10   C12   D    
O7    V2    S    
C6    C35   S    
O5    V1    S    
O3    V1    S    
O17   V4    S    
O6    C3    A    
O8    C3    A    
C39   H35   S    
O19   V4    S    
C27   H13   S    
C37   H31   S    
C20   H10   S    
C15   C17   A    
C3    C6    S    
O18   V4    S    
C39   C40   S    
C8    C12   S    
C26   H12   S    
V4    O20   S    
C38   H27   S    
O19   C32   A    
O17   V3    S    
C13   C23   A    
C40   H32   S    
V1    O10   S    
C25   C37   S    
