data_mof_unit_58990.cif
_audit_creation_date              2012-12-10T20:49:47-0500
_audit_creation_method            fapswitch 2.2
_symmetry_space_group_name_H-M    P1
_symmetry_Int_Tables_number       1
_space_group_crystal_system       triclinic
_cell_length_a                    8.130022
_cell_length_b                    8.926941
_cell_length_c                    15.796428
_cell_angle_alpha                 90.707702
_cell_angle_beta                  89.047132
_cell_angle_gamma                 89.817977
_cell_volume                      1146.1926022

loop_
_atom_site_label
_atom_site_type_symbol
_atom_type_description
_atom_site_fract_x
_atom_site_fract_y
_atom_site_fract_z
_atom_type_partial_charge
C1    C     C_R   0.499834 0.781941 0.500029 0.922653
C2    C     C_R   0.373097 0.390745 0.216424 0.574276
C3    C     C_R   0.637815 0.384423 0.869932 -0.095667
C4    C     C_R   0.376093 0.302884 0.141862 -0.097455
C5    C     C_R   0.493989 0.318981 0.904109 -0.260257
C6    C     C_R   0.527098 0.275195 0.099198 -0.247455
C7    C     C_R   0.341820 0.358672 0.869200 0.599490
C8    C     C_R   0.672009 0.333007 0.133392 0.573604
C9    C     C_R   0.334765 0.450274 0.796911 -0.086535
C10   C     C_R   0.669707 0.428767 0.204814 -0.085404
C11   C     C_2   0.508064 0.174599 0.949596 0.569898
C12   C     C_R   0.500169 0.218045 0.499840 0.936457
C13   C     C_2   0.539947 0.156855 0.032516 0.563358
C14   C     C_3   0.220722 0.223013 0.115457 -0.317993
C15   C     C_3   0.209510 0.065047 0.152332 -0.336837
C16   C     C_3   0.075397 0.973799 0.109306 -0.758796
C17   C     C_3   0.799696 0.379322 0.914598 -0.297765
C18   C     C_3   0.827711 0.531309 0.959519 -0.300149
C19   C     C_3   0.995774 0.543868 0.000577 -0.764363
C20   C     C_3   0.831180 0.499526 0.231943 -0.266544
C21   C     C_3   0.820007 0.671325 0.238930 -0.381185
C22   C     C_3   0.967043 0.735155 0.286072 -0.792790
C23   C     C_1   0.499764 0.934773 0.499917 -0.183548
C24   C     C_3   0.173129 0.521023 0.771418 -0.300208
C25   C     C_3   0.187355 0.692749 0.766442 -0.389068
C26   C     C_3   0.025953 0.764974 0.740337 -0.699273
C27   C     C_1   0.500238 0.065203 0.499849 -0.178034
C28   C     C_R   0.482514 0.500901 0.657126 0.914254
C29   C     C_R   0.517582 0.494183 0.342880 0.905679
C30   C     C_R   0.481789 0.475580 0.750240 -0.276709
C31   C     C_R   0.519744 0.447528 0.251543 -0.294811
C32   C     C_R   0.631858 0.455746 0.791383 0.598482
F1    F     F_    0.201605 0.297709 0.900784 -0.716947
F2    F     F_    0.818247 0.281092 0.103225 -0.728488
F3    F     F_    0.774617 0.499727 0.753598 -0.699417
F4    F     F_    0.227166 0.408934 0.258590 -0.694113
F5    F     F_    0.581096 0.017111 0.058461 -0.640954
F6    F     F_    0.510140 0.049316 0.899680 -0.618482
H1    H     H_    0.952036 0.020020 0.125996 0.320386
H2    H     H_    0.992157 0.633719 0.049657 0.228060
H3    H     H_    0.815312 0.624393 0.914023 0.241457
H4    H     H_    0.730813 0.547677 0.009250 0.221876
H5    H     H_    0.803452 0.286827 0.959711 0.247961
H6    H     H_    0.898361 0.351026 0.868403 0.265290
H7    H     H_    0.965718 0.695969 0.352518 0.273854
H8    H     H_    0.084187 0.699371 0.254666 0.277205
H9    H     H_    0.960441 0.859418 0.286830 0.246573
H10   H     H_    0.816650 0.719128 0.174356 0.232267
H11   H     H_    0.706190 0.708307 0.272871 0.229853
H12   H     H_    0.093149 0.973638 0.039414 0.284858
H13   H     H_    0.873206 0.448770 0.291568 0.252314
H14   H     H_    0.931069 0.474535 0.185317 0.243666
H15   H     H_    0.985697 0.718005 0.678627 0.275463
H16   H     H_    0.929031 0.746295 0.789269 0.282445
H17   H     H_    0.043485 0.887606 0.733688 0.245973
H18   H     H_    0.222334 0.738838 0.829324 0.244290
H19   H     H_    0.284047 0.725219 0.719859 0.233339
H20   H     H_    0.127884 0.471368 0.711580 0.251491
H21   H     H_    0.077353 0.497783 0.818845 0.253212
H22   H     H_    0.081818 0.856248 0.130537 0.226783
H23   H     H_    0.327754 0.004311 0.143795 0.270683
H24   H     H_    0.182188 0.072925 0.221444 0.234897
H25   H     H_    0.111310 0.286935 0.137434 0.271488
H26   H     H_    0.215441 0.217605 0.045615 0.242312
H27   H     H_    0.030193 0.437720 0.030552 0.305184
H28   H     H_    0.092179 0.573706 0.953582 0.256927
N1    N     N_1   0.926360 0.500000 0.499990 -0.026995
N2    N     N_1   0.073640 0.500000 0.500010 -0.021670
O1    O     O_R   0.363150 0.714660 0.500000 -0.617753
O2    O     O_R   0.636850 0.285340 0.500000 -0.608987
O3    O     O_R   0.636850 0.714660 0.500000 -0.613149
O4    O     O_R   0.363150 0.285340 0.500000 -0.602700
O5    O     O_R   0.346950 0.500000 0.615800 -0.627371
O6    O     O_R   0.653050 0.500000 0.384200 -0.624267
O7    O     O_R   0.620700 0.500000 0.615800 -0.539093
O8    O     O_R   0.379300 0.500000 0.384200 -0.536758
Zn1   Zn    Zn3+2 0.317220 0.500000 0.500010 1.005980
Zn2   Zn    Zn3+2 0.682780 0.500000 0.499990 1.003752

loop_
_geom_bond_atom_site_label_1
_geom_bond_atom_site_label_2
_ccdc_geom_bond_type
C11   F6    S    
C2    C4    A    
C24   C25   S    
C17   H5    S    
C9    C24   S    
C1    C23   S    
O4    Zn1   S    
C3    C17   S    
C23   C27   T    
O2    Zn2   S    
C11   C13   D    
C32   F3    S    
O6    Zn2   S    
O1    Zn1   S    
C25   H18   S    
O3    Zn2   S    
C21   H10   S    
C14   H26   S    
C26   H17   S    
C28   C30   S    
C17   C18   S    
C15   H23   S    
C17   H6    S    
C20   H14   S    
C29   O8    A    
C8    F2    S    
C21   C22   S    
O8    Zn1   S    
C6    C13   S    
C30   C32   A    
C7    F1    S    
C1    O3    A    
N1    Zn2   S    
C25   H19   S    
C9    C30   A    
C24   H21   S    
C28   O5    A    
C26   H16   S    
C21   H11   S    
C22   H8    S    
C15   H24   S    
C16   H12   S    
C19   H27   S    
C20   H13   S    
C5    C7    A    
C26   H15   S    
C18   H4    S    
C5    C11   S    
C4    C14   S    
C3    C32   A    
C12   O4    A    
O7    Zn2   S    
C22   H9    S    
C4    C6    A    
C19   H2    S    
C14   H25   S    
C12   C27   S    
N1    N2    T    
C24   H20   S    
C22   H7    S    
C20   C21   S    
C19   H28   S    
C29   C31   S    
C18   C19   S    
C16   H22   S    
C18   H3    S    
C2    F4    S    
N2    Zn1   S    
C7    C9    A    
C12   O2    A    
C14   C15   S    
C6    C8    A    
C29   O6    A    
C16   H1    S    
C25   C26   S    
C28   O7    A    
C13   F5    S    
C10   C31   A    
O5    Zn1   S    
C8    C10   A    
C1    O1    A    
C15   C16   S    
C10   C20   S    
C2    C31   A    
C3    C5    A    
