data_mof_unit_9569.cif
_audit_creation_date              2012-12-10T20:31:06-0500
_audit_creation_method            fapswitch 2.2
_symmetry_space_group_name_H-M    P1
_symmetry_Int_Tables_number       1
_space_group_crystal_system       triclinic
_cell_length_a                    15.004877
_cell_length_b                    10.615309
_cell_length_c                    9.887991
_cell_angle_alpha                 90.586369
_cell_angle_beta                  90.343577
_cell_angle_gamma                 90.509225
_cell_volume                      1574.79924477

loop_
_atom_site_label
_atom_site_type_symbol
_atom_type_description
_atom_site_fract_x
_atom_site_fract_y
_atom_site_fract_z
_atom_type_partial_charge
C1    C     C_R   0.498393 0.260559 0.499584 0.948692
C2    C     C_R   0.907555 0.529446 0.624930 -0.021387
C3    C     C_R   0.952419 0.440563 0.264717 -0.129193
C4    C     C_R   0.044732 0.440264 0.264690 -0.128241
C5    C     C_R   0.091761 0.470811 0.383201 0.131338
C6    C     C_R   0.046365 0.501532 0.504022 0.026975
C7    C     C_R   0.093896 0.532854 0.623698 -0.006197
C8    C     C_R   0.048232 0.561348 0.744522 0.229823
C9    C     C_R   0.954744 0.559372 0.745208 0.245476
C10   C     C_R   0.183788 0.470340 0.382727 -0.154000
C11   C     C_R   0.230787 0.502044 0.500134 -0.063711
C12   C     C_R   0.326692 0.500496 0.499785 0.929264
C13   C     C_R   0.186458 0.534487 0.619045 -0.157293
C14   C     C_R   0.558506 0.066324 0.572906 0.024353
C15   C     C_R   0.493248 0.128718 0.500951 -0.222009
C16   C     C_R   0.419112 0.063865 0.446230 0.231079
C17   C     C_R   0.419345 0.932262 0.447039 0.221862
C18   C     C_R   0.493567 0.871217 0.503219 -0.180485
C19   C     C_R   0.559296 0.938154 0.573168 0.012668
C20   C     C_3   0.659075 0.934155 0.563410 0.046938
C21   C     C_3   0.657463 0.077429 0.562796 0.046834
C22   C     C_R   0.449895 0.413886 0.069612 0.224305
C23   C     C_R   0.499201 0.739474 0.500593 0.987124
C24   C     C_R   0.555058 0.577394 0.074258 -0.117845
C25   C     C_R   0.555101 0.578053 0.930937 0.313867
C26   C     C_R   0.450145 0.413586 0.927116 0.180949
C27   C     C_3   0.351445 0.399158 0.919915 -0.459842
C28   C     C_3   0.350998 0.400552 0.073121 -0.461936
C29   C     C_R   0.673297 0.499723 0.500378 0.919174
C30   C     C_R   0.814921 0.527475 0.621596 -0.109213
C31   C     C_R   0.769190 0.499347 0.501536 -0.076557
C32   C     C_R   0.814748 0.470886 0.382938 -0.187035
C33   C     C_R   0.906789 0.470611 0.383464 0.133425
C34   C     C_R   0.953624 0.500636 0.504396 0.029065
H1    H     H_    0.777406 0.548744 0.711565 0.227319
H2    H     H_    0.690777 0.894193 0.654940 0.221052
H3    H     H_    0.679502 0.121051 0.466672 0.163159
H4    H     H_    0.330680 0.307040 0.874899 0.227778
H5    H     H_    0.329190 0.309467 0.116701 0.245218
H6    H     H_    0.079365 0.416397 0.172138 0.187945
H7    H     H_    0.218631 0.443979 0.291385 0.164254
N1    N     N_R   0.499390 0.499140 0.142800 -0.138255
N2    N     N_R   0.499390 0.499180 0.857150 -0.141121
O1    O     O_R   0.500010 0.316790 0.614690 -0.593788
O2    O     O_R   0.500000 0.316760 0.385350 -0.602313
O3    O     O_R   0.367850 0.499990 0.614680 -0.641987
O4    O     O_R   0.367840 0.499950 0.385340 -0.607053
O5    O     O_R   0.500000 0.683240 0.614650 -0.589750
O6    O     O_R   0.499990 0.683210 0.385310 -0.584272
O7    O     O_R   0.632160 0.500050 0.614660 -0.588878
O8    O     O_R   0.632150 0.500010 0.385320 -0.624331
Zn1   Zn    Zn3+2 0.500010 0.500020 0.653130 1.026888
Zn2   Zn    Zn3+2 0.499990 0.499980 0.346870 1.014921
Br1   Br    Br    0.320597 0.837297 0.370713 -0.390452
Br2   Br    Br    0.702303 0.862506 0.394239 -0.448893
Br3   Br    Br    0.708755 0.154587 0.724514 -0.417349
H8    H     H_    0.598079 0.641634 0.130495 0.207870
Br4   Br    Br    0.632487 0.696308 0.846198 -0.437314
H9    H     H_    0.318549 0.482680 0.876073 0.232532
H10   H     H_    0.318409 0.485505 0.115992 0.233165
H11   H     H_    0.778658 0.447948 0.290382 0.176393
H12   H     H_    0.916691 0.416946 0.172171 0.191243
H13   H     H_    0.225043 0.561748 0.707094 0.191858
Br5   Br    Br    0.112223 0.601127 0.910451 -0.456035
Br6   Br    Br    0.892910 0.598008 0.911681 -0.395791
Br7   Br    Br    0.319364 0.153690 0.371819 -0.462279

loop_
_geom_bond_atom_site_label_1
_geom_bond_atom_site_label_2
_ccdc_geom_bond_type
C32   H11   S    
C21   Br3   S    
O7    Zn1   S    
C11   C12   S    
C4    H6    S    
C6    C7    A    
C1    C15   S    
C24   N1    A    
C1    O1    A    
C19   C20   S    
C13   H13   S    
O4    Zn2   S    
C30   C31   A    
C2    C30   A    
C32   C33   A    
O1    Zn1   S    
C28   H10   S    
C17   C18   A    
O2    Zn2   S    
C5    C10   A    
C29   C31   S    
C22   C28   S    
C20   C21   S    
C10   H7    S    
C25   Br4   S    
C4    C5    A    
C11   C13   A    
C1    O2    A    
C26   C27   S    
C22   N1    A    
C30   H1    S    
C8    Br5   S    
C12   O4    A    
O6    Zn2   S    
C15   C16   A    
C14   C19   A    
C14   C21   S    
C25   N2    A    
C26   N2    A    
C33   C34   A    
C29   O7    A    
C20   Br2   S    
N1    Zn2   S    
C22   C26   A    
C5    C6    A    
C9    Br6   S    
N2    Zn1   S    
C23   O6    A    
C16   Br7   S    
C10   C11   A    
C3    C33   A    
C27   H4    S    
C18   C23   S    
C20   H2    S    
O3    Zn1   S    
C23   O5    A    
O5    Zn1   S    
C21   H3    S    
C24   C25   A    
C12   O3    A    
C7    C8    A    
C29   O8    A    
C3    H12   S    
C27   C28   S    
C18   C19   A    
C14   C15   A    
C8    C9    A    
C27   H9    S    
C7    C13   A    
C28   H5    S    
C2    C34   A    
C2    C9    A    
C17   Br1   S    
C31   C32   A    
C3    C4    A    
C6    C34   A    
C16   C17   A    
C24   H8    S    
O8    Zn2   S    
