data_mof_unit_46005.cif
_audit_creation_date              2012-12-10T16:47:48-0500
_audit_creation_method            fapswitch 2.2
_symmetry_space_group_name_H-M    P1
_symmetry_Int_Tables_number       1
_space_group_crystal_system       triclinic
_cell_length_a                    7.856745
_cell_length_b                    8.562304
_cell_length_c                    10.713556
_cell_angle_alpha                 92.193085
_cell_angle_beta                  84.788366
_cell_angle_gamma                 93.46879
_cell_volume                      716.036731792

loop_
_atom_site_label
_atom_site_type_symbol
_atom_type_description
_atom_site_fract_x
_atom_site_fract_y
_atom_site_fract_z
_atom_type_partial_charge
Br1   Br    Br    0.040140 0.306164 0.352198 -0.401924
Br2   Br    Br    0.960077 0.694827 0.646950 -0.407680
C1    C     C_R   0.545296 0.794344 0.496958 0.954935
C2    C     C_2   0.569109 0.957869 0.495144 -0.348061
C3    C     C_2   0.430898 0.042132 0.504846 -0.348026
C4    C     C_R   0.499758 0.495697 0.736885 0.926390
C5    C     C_R   0.454706 0.205654 0.503031 0.952147
C6    C     C_R   0.500191 0.502199 0.262952 0.924312
C7    C     C_2   0.639116 0.471504 0.057021 -0.146209
C8    C     C_2   0.502550 0.513861 0.131220 -0.299387
C9    C     C_2   0.642528 0.480617 0.922990 -0.133746
C10   C     C_2   0.496829 0.477355 0.867951 -0.311128
H1    H     H_    0.752552 0.432157 0.094560 0.197702
H2    H     H_    0.391837 0.561946 0.096853 0.161123
H3    H     H_    0.766955 0.489798 0.869721 0.205234
H4    H     H_    0.371736 0.457389 0.918187 0.161437
H5    H     H_    0.699893 0.008363 0.485819 0.211667
H6    H     H_    0.300113 0.991638 0.514172 0.211843
N1    N     N_2   0.950320 0.457950 0.466680 0.079091
N2    N     N_2   0.049680 0.542050 0.533320 0.078727
O1    O     O_R   0.389250 0.738570 0.508180 -0.603349
O2    O     O_R   0.678390 0.711630 0.486820 -0.589381
O3    O     O_R   0.355470 0.513470 0.691600 -0.605758
O4    O     O_R   0.644610 0.486520 0.670240 -0.596562
O5    O     O_R   0.321610 0.288370 0.513180 -0.591612
O6    O     O_R   0.610750 0.261430 0.491820 -0.604683
O7    O     O_R   0.355390 0.513480 0.329760 -0.591313
O8    O     O_R   0.644530 0.486530 0.308400 -0.608216
Zn1   Zn    Zn3+2 0.306940 0.517990 0.514260 1.063303
Zn2   Zn    Zn3+2 0.693060 0.482010 0.485740 1.059124

loop_
_geom_bond_atom_site_label_1
_geom_bond_atom_site_label_2
_ccdc_geom_bond_type
C9    C10   D    
O7    Zn1   S    
C7    C8    D    
N1    N2    D    
C5    O5    A    
C4    O4    A    
O8    Zn2   S    
C4    C10   S    
C7    C9    S    
C5    O6    A    
C9    H3    S    
C4    O3    A    
O3    Zn1   S    
O6    Zn2   S    
N2    Zn1   S    
O5    Zn1   S    
C6    O8    A    
O4    Zn2   S    
Br1   N1    S    
C1    O1    A    
C2    H5    S    
Br2   N2    S    
C1    C2    S    
C6    C8    S    
C8    H2    S    
C3    C5    S    
C6    O7    A    
C7    H1    S    
C1    O2    A    
C3    H6    S    
O2    Zn2   S    
N1    Zn2   S    
O1    Zn1   S    
C10   H4    S    
C2    C3    D    
