data_mof_unit_33558.cif
_audit_creation_date              2012-12-10T19:08:09-0500
_audit_creation_method            fapswitch 2.2
_symmetry_space_group_name_H-M    P1
_symmetry_Int_Tables_number       1
_space_group_crystal_system       triclinic
_cell_length_a                    9.061681
_cell_length_b                    10.815786
_cell_length_c                    9.59032
_cell_angle_alpha                 89.759617
_cell_angle_beta                  89.611081
_cell_angle_gamma                 90.461836
_cell_volume                      939.878936386

loop_
_atom_site_label
_atom_site_type_symbol
_atom_type_description
_atom_site_fract_x
_atom_site_fract_y
_atom_site_fract_z
_atom_type_partial_charge
Br1   Br    Br    0.851928 0.429936 0.115265 -0.466490
Br2   Br    Br    0.270770 0.312178 0.843935 -0.497117
C1    C     C_R   0.497415 0.262437 0.500172 0.818551
C2    C     C_R   0.584714 0.583336 0.925061 0.141270
C3    C     C_3   0.747491 0.600354 0.912632 -0.479258
C4    C     C_R   0.220833 0.499942 0.500265 0.855364
C5    C     C_3   0.755231 0.585598 0.069725 0.082470
C6    C     C_R   0.497698 0.737533 0.499789 0.780823
C7    C     C_R   0.779150 0.500136 0.499768 0.845778
C8    C     C_1   0.065595 0.500015 0.500439 -0.130868
C9    C     C_1   0.934377 0.500097 0.499724 -0.141109
C10   C     C_R   0.485972 0.062946 0.625403 0.164795
C11   C     C_R   0.483143 0.129158 0.500299 -0.100743
C12   C     C_R   0.460138 0.935810 0.374852 -0.210654
C13   C     C_R   0.459817 0.064717 0.375117 -0.195697
C14   C     C_R   0.483648 0.870623 0.499776 -0.097519
C15   C     C_R   0.486248 0.935723 0.625118 0.131979
C16   C     C_3   0.593002 0.929352 0.742937 -0.483848
C17   C     C_3   0.592688 0.069752 0.743269 -0.422222
C18   C     C_R   0.589562 0.579122 0.071761 0.164024
C19   C     C_R   0.405173 0.427571 0.076474 -0.050438
C20   C     C_R   0.405557 0.426065 0.928525 0.340617
Cu1   Cu    Cu3+1 0.499990 0.499980 0.640670 0.993814
Cu2   Cu    Cu3+1 0.500010 0.500020 0.359330 0.987394
H1    H     H_    0.448258 0.113257 0.276802 0.178104
H2    H     H_    0.802960 0.525164 0.854626 0.260330
H3    H     H_    0.777396 0.695032 0.876173 0.160989
H4    H     H_    0.799825 0.668585 0.123418 0.126573
H5    H     H_    0.448829 0.887982 0.276433 0.169968
H6    H     H_    0.542460 0.887880 0.838376 0.205063
H7    H     H_    0.700955 0.889575 0.711429 0.197985
H8    H     H_    0.541970 0.109196 0.838951 0.228170
H9    H     H_    0.700464 0.111707 0.712016 0.205400
H10   H     H_    0.330612 0.367243 0.133937 0.171457
N1    N     N_R   0.500920 0.500930 0.147930 -0.191940
N2    N     N_R   0.500930 0.500890 0.852020 -0.195053
O1    O     O_R   0.500000 0.319640 0.618810 -0.546168
O2    O     O_R   0.500020 0.319680 0.381230 -0.579724
O3    O     O_R   0.288380 0.499980 0.618770 -0.540588
O4    O     O_R   0.288400 0.500020 0.381190 -0.580604
O5    O     O_R   0.499980 0.680320 0.618770 -0.579394
O6    O     O_R   0.500000 0.680360 0.381190 -0.594532
O7    O     O_R   0.711600 0.499980 0.618810 -0.593255
O8    O     O_R   0.711620 0.500020 0.381230 -0.533699

loop_
_geom_bond_atom_site_label_1
_geom_bond_atom_site_label_2
_ccdc_geom_bond_type
C10   C15   A    
C4    C8    S    
Cu2   O2    S    
Cu1   Cu2   S    
C2    N2    A    
Br2   C20   S    
C19   N1    A    
Cu1   O1    S    
C20   N2    A    
Cu1   O5    S    
C12   C13   A    
C15   C16   S    
C6    C14   S    
Br1   C5    S    
C19   C20   A    
C10   C11   A    
Cu2   O6    S    
C7    C9    S    
Cu1   O3    S    
C17   H8    S    
C10   C17   S    
Cu2   O4    S    
C6    O6    A    
C16   C17   S    
C19   H10   S    
C12   C14   A    
C11   C13   A    
C16   H6    S    
Cu2   O8    S    
C4    O4    A    
C7    O7    A    
Cu2   N1    S    
C13   H1    S    
C8    C9    T    
C12   H5    S    
C3    H2    S    
C2    C18   A    
Cu1   O7    S    
C6    O5    A    
C1    O1    A    
Cu1   N2    S    
C17   H9    S    
C3    C5    S    
C4    O3    A    
C2    C3    S    
C7    O8    A    
C16   H7    S    
C3    H3    S    
C18   N1    A    
C5    C18   S    
C5    H4    S    
C1    O2    A    
C14   C15   A    
C1    C11   S    
