data_mof_unit_8585.cif
_audit_creation_date              2012-10-26T20:38:27-0400
_audit_creation_method            fapswitch 2.2
_symmetry_space_group_name_H-M    P1
_symmetry_Int_Tables_number       1
_space_group_crystal_system       triclinic
_cell_length_a                    15.860687
_cell_length_b                    11.043444
_cell_length_c                    9.873262
_cell_angle_alpha                 111.35755
_cell_angle_beta                  98.37462
_cell_angle_gamma                 91.064851
_cell_volume                      1588.6085755

loop_
_atom_site_label
_atom_site_type_symbol
_atom_type_description
_atom_site_fract_x
_atom_site_fract_y
_atom_site_fract_z
_atom_type_partial_charge
C1    C     C_R   0.493857 0.254061 0.440468 0.550391
C2    C     C_3   0.028010 0.604977 0.481656 0.308630
C3    C     C_3   0.016773 0.392014 0.388629 -0.135401
C4    C     C_3   0.983235 0.607853 0.611270 -0.133560
C5    C     C_1   0.250379 0.499549 0.502480 -0.024696
C6    C     C_1   0.749626 0.500389 0.497475 -0.008580
C7    C     C_3   0.038938 0.499376 0.631576 -0.131512
C8    C     C_3   0.961070 0.500491 0.368323 -0.132406
C9    C     C_3   0.083045 0.498549 0.501608 0.024322
C10   C     C_3   0.916961 0.501316 0.498290 0.025111
C11   C     C_1   0.174824 0.499121 0.502615 -0.024935
C12   C     C_R   0.506179 0.745935 0.559531 0.549018
C13   C     C_1   0.825180 0.500773 0.497304 -0.013687
C14   C     C_2   0.490579 0.114427 0.406987 -0.129318
C15   C     C_2   0.509563 0.885561 0.593014 -0.125631
C16   C     C_3   0.000306 0.202925 0.550937 -0.119062
C17   C     C_3   0.999746 0.797061 0.449216 -0.120825
C18   C     C_3   0.626625 0.732993 0.943352 -0.029606
C19   C     C_3   0.345109 0.310796 0.066999 -0.034773
C20   C     C_2   0.501608 0.069628 0.516306 -0.152911
C21   C     C_2   0.498647 0.930361 0.483690 -0.156093
C22   C     C_2   0.504788 0.514403 0.082420 0.118268
C23   C     C_2   0.490663 0.492733 0.919427 0.115629
C24   C     C_R   0.339942 0.499814 0.500811 0.541528
C25   C     C_R   0.660060 0.500178 0.499182 0.543455
C26   C     C_3   0.971997 0.394888 0.518243 0.311281
Cu1   Cu    Cu3+1 0.514700 0.521810 0.644910 0.979965
Cu2   Cu    Cu3+1 0.485300 0.478190 0.355090 0.979862
H1    H     H_    0.031875 0.303605 0.299239 0.103933
H2    H     H_    0.547139 0.596977 0.158244 0.128437
H3    H     H_    0.050653 0.253205 0.647959 0.110496
H4    H     H_    0.028975 0.163663 0.448673 0.106862
H5    H     H_    0.971145 0.118716 0.568222 0.134465
H6    H     H_    0.971326 0.836522 0.551728 0.108264
H7    H     H_    0.949204 0.746838 0.352492 0.116962
H8    H     H_    0.028879 0.881122 0.431610 0.133084
H9    H     H_    0.567807 0.787087 0.953410 0.116611
H10   H     H_    0.652811 0.727404 0.843371 0.162993
H11   H     H_    0.675394 0.790114 0.039597 0.097330
H12   H     H_    0.968136 0.696261 0.700663 0.106050
H13   H     H_    0.310432 0.401241 0.092082 0.120822
H14   H     H_    0.347733 0.272097 0.156319 0.161875
H15   H     H_    0.307535 0.236247 0.966635 0.093180
H16   H     H_    0.928164 0.502513 0.262031 0.116453
H17   H     H_    0.071851 0.497363 0.737869 0.107977
H18   H     H_    0.487345 0.864051 0.368926 0.151948
H19   H     H_    0.512941 0.135937 0.631067 0.172056
H20   H     H_    0.520921 0.952126 0.707595 0.108168
H21   H     H_    0.479203 0.047847 0.292412 0.101648
H22   H     H_    0.435879 0.429525 0.848502 0.128468
N1    N     N_2   0.463210 0.445420 0.137360 -0.068143
N2    N     N_2   0.536790 0.554580 0.862640 -0.068919
O1    O     O_R   0.507840 0.332340 0.577400 -0.500384
O2    O     O_3   0.064181 0.714117 0.462432 -0.551035
O3    O     O_3   0.613071 0.608066 0.946462 -0.501501
O4    O     O_3   0.427451 0.329345 0.037884 -0.507426
O5    O     O_R   0.492160 0.667660 0.422600 -0.517338
O6    O     O_R   0.483020 0.295500 0.332650 -0.479357
O7    O     O_R   0.516980 0.704500 0.667350 -0.522384
O8    O     O_R   0.391490 0.518400 0.622350 -0.514759
O9    O     O_R   0.608510 0.481600 0.377650 -0.494980
O10   O     O_R   0.366660 0.481570 0.377600 -0.517165
O11   O     O_R   0.633340 0.518430 0.622400 -0.472465
O12   O     O_3   0.935832 0.285725 0.537426 -0.546690

loop_
_geom_bond_atom_site_label_1
_geom_bond_atom_site_label_2
_ccdc_geom_bond_type
C19   O4    S    
C2    C4    S    
C18   H11   S    
Cu1   O1    S    
C3    C9    S    
C17   H8    S    
Cu2   O6    S    
C16   H5    S    
C16   H4    S    
C17   H7    S    
C16   O12   S    
C26   O12   S    
C12   C15   S    
C24   O8    A    
N1    O4    S    
Cu2   O9    S    
C10   C26   S    
C5    C24   S    
C18   H10   S    
Cu1   O7    S    
C1    O6    A    
C20   C21   S    
C6    C13   T    
C24   O10   A    
C9    C11   S    
C19   H14   S    
C3    H1    S    
C23   N2    D    
C7    C26   S    
Cu1   O11   S    
C18   O3    S    
C4    C7    S    
C12   O5    A    
C7    H17   S    
N2    O3    S    
C19   H15   S    
C5    C11   T    
Cu1   O8    S    
C12   O7    A    
C2    O2    S    
C8    H16   S    
Cu2   N1    S    
C3    C8    S    
C14   H21   S    
C17   H6    S    
C4    C10   S    
C6    C25   S    
C19   H13   S    
C15   C21   D    
Cu1   N2    S    
C14   C20   D    
C8    C10   S    
C21   H18   S    
C25   O11   A    
Cu1   Cu2   S    
C7    C9    S    
C1    O1    A    
C22   C23   S    
C23   H22   S    
C25   O9    A    
C1    C14   S    
C22   H2    S    
Cu2   O5    S    
C2    C9    S    
C15   H20   S    
C17   O2    S    
C18   H9    S    
C3    C26   S    
C2    C8    S    
C20   H19   S    
C4    H12   S    
C22   N1    D    
C16   H3    S    
C10   C13   S    
Cu2   O10   S    
