data_mof_unit_62197.cif
_audit_creation_date              2012-12-10T16:58:24-0500
_audit_creation_method            fapswitch 2.2
_symmetry_space_group_name_H-M    P1
_symmetry_Int_Tables_number       1
_space_group_crystal_system       triclinic
_cell_length_a                    30.143911
_cell_length_b                    31.402739
_cell_length_c                    24.258344
_cell_angle_alpha                 89.918187
_cell_angle_beta                  127.17997
_cell_angle_gamma                 89.999928
_cell_volume                      18295.524853

loop_
_atom_site_label
_atom_site_type_symbol
_atom_type_description
_atom_site_fract_x
_atom_site_fract_y
_atom_site_fract_z
_atom_type_partial_charge
C1    C     C_R   0.808613 0.808852 0.496421 0.841059
C2    C     C_R   0.526751 0.737498 0.070211 0.260972
C3    C     C_R   0.909139 0.280645 0.824108 -0.085432
C4    C     C_R   0.565662 0.739484 0.145835 -0.054210
C5    C     C_R   0.422435 0.740270 0.854953 -0.052655
C6    C     C_R   0.065678 0.239462 0.145821 -0.054090
C7    C     C_R   0.922455 0.240259 0.854938 -0.052570
C8    C     C_R   0.590582 0.702710 0.187372 -0.004673
C9    C     C_R   0.401143 0.703333 0.813521 -0.005590
C10   C     C_R   0.090709 0.202702 0.187355 -0.004350
C11   C     C_R   0.901293 0.203317 0.813505 -0.005963
C12   C     C_R   0.630231 0.707689 0.258913 -0.130451
C13   C     C_R   0.958387 0.238241 0.930490 0.259636
C14   C     C_R   0.367390 0.708039 0.741573 -0.130050
C15   C     C_R   0.130344 0.207693 0.258897 -0.131504
C16   C     C_R   0.867528 0.208027 0.741557 -0.129342
C17   C     C_2   0.635875 0.828565 0.277309 0.436601
C18   C     C_2   0.359447 0.829011 0.722005 0.431117
C19   C     C_2   0.135619 0.328562 0.277283 0.436136
C20   C     C_2   0.859137 0.328997 0.721966 0.431157
C21   C     C_2   0.853171 0.745960 0.866971 0.512351
C22   C     C_2   0.989462 0.757219 0.138109 0.524743
C23   C     C_2   0.510739 0.257079 0.861567 0.524100
C24   C     C_R   0.026773 0.237473 0.070197 0.260917
C25   C     C_2   0.647344 0.246044 0.133326 0.511650
C26   C     C_2   0.010037 0.755405 0.847126 0.445489
C27   C     C_2   0.161010 0.752875 0.147221 0.446819
C28   C     C_2   0.339460 0.252757 0.853039 0.447625
C29   C     C_2   0.490144 0.255508 0.152544 0.446330
C30   C     C_2   0.744797 0.619839 0.604335 0.365894
C31   C     C_2   0.255175 0.620125 0.395598 0.373423
C32   C     C_2   0.244790 0.119844 0.604233 0.373920
C33   C     C_2   0.755163 0.120089 0.395537 0.365415
C34   C     C_2   0.573698 0.659083 0.157883 0.437667
C35   C     C_2   0.849614 0.907092 0.447110 -0.226224
C36   C     C_2   0.411134 0.660028 0.843902 0.438438
C37   C     C_2   0.073956 0.159068 0.157862 0.437587
C38   C     C_2   0.911430 0.159998 0.843886 0.439170
C39   C     C_2   0.912819 0.914078 0.575808 0.464792
C40   C     C_2   0.087354 0.914363 0.424342 0.461733
C41   C     C_2   0.412650 0.414287 0.575745 0.462724
C42   C     C_2   0.587157 0.414124 0.424267 0.463826
C43   C     C_2   0.772366 0.750284 0.713541 0.549929
C44   C     C_2   0.062009 0.751401 0.291604 0.548982
C45   C     C_2   0.437986 0.251303 0.708093 0.548972
C46   C     C_2   0.150335 0.906871 0.553002 -0.227941
C47   C     C_2   0.727928 0.250381 0.286750 0.549697
C48   C     C_2   0.349720 0.406961 0.447089 -0.228606
C49   C     C_2   0.650448 0.407012 0.552973 -0.225570
C50   C     C_2   0.898451 0.919928 0.505378 -0.151540
C51   C     C_2   0.101599 0.919949 0.494735 -0.150358
C52   C     C_2   0.398438 0.419952 0.505363 -0.150153
C53   C     C_R   0.191355 0.808843 0.503517 0.823649
C54   C     C_2   0.601579 0.419918 0.494715 -0.151753
C55   C     C_2   0.814931 0.875505 0.449836 0.461049
C56   C     C_2   0.185009 0.875337 0.550195 0.464087
C57   C     C_2   0.315045 0.375385 0.449830 0.463656
C58   C     C_2   0.685130 0.375467 0.550182 0.461535
C59   C     C_2   0.839398 0.839383 0.486095 0.260174
C60   C     C_2   0.160534 0.839337 0.513791 0.261255
C61   C     C_2   0.339561 0.339373 0.486420 0.262304
C62   C     C_2   0.660710 0.339346 0.514142 0.259025
C63   C     C_R   0.833552 0.750399 0.749690 -0.048588
C64   C     C_R   0.308668 0.308849 0.496535 0.824068
C65   C     C_R   0.085805 0.752498 0.252836 -0.066602
C66   C     C_R   0.414313 0.252385 0.747000 -0.066380
C67   C     C_R   0.666721 0.250496 0.250452 -0.048219
C68   C     C_R   0.872034 0.750868 0.822884 -0.015877
C69   C     C_R   0.051197 0.753887 0.179575 -0.017118
C70   C     C_R   0.449022 0.253757 0.820257 -0.016838
C71   C     C_R   0.628338 0.250954 0.177246 -0.015410
C72   C     C_R   0.929828 0.753286 0.854738 -0.094550
C73   C     C_R   0.075831 0.753002 0.144973 -0.094175
C74   C     C_R   0.424507 0.252871 0.855001 -0.094100
C75   C     C_R   0.691414 0.308846 0.503638 0.840486
C76   C     C_R   0.570511 0.253354 0.145234 -0.094590
C77   C     C_R   0.949526 0.752785 0.814720 0.007876
C78   C     C_R   0.134254 0.752472 0.182521 -0.000931
C79   C     C_R   0.366098 0.252348 0.817595 -0.001358
C80   C     C_R   0.550692 0.252882 0.185119 0.007406
C81   C     C_R   0.683287 0.750292 0.365147 0.828740
C82   C     C_R   0.316668 0.750194 0.634841 0.829371
C83   C     C_R   0.183287 0.250295 0.365144 0.829097
C84   C     C_R   0.816669 0.250190 0.634838 0.829032
C85   C     C_R   0.911126 0.750244 0.742921 -0.127561
C86   C     C_R   0.644367 0.748137 0.289534 -0.164123
C87   C     C_R   0.167661 0.752661 0.254633 -0.097130
C88   C     C_R   0.332588 0.252549 0.745480 -0.097382
C89   C     C_R   0.589001 0.250352 0.256943 -0.127480
C90   C     C_R   0.853960 0.749737 0.710392 -0.159165
C91   C     C_R   0.144221 0.752264 0.289693 -0.166725
C92   C     C_R   0.355913 0.252165 0.710285 -0.166854
C93   C     C_R   0.646190 0.249831 0.289614 -0.159018
C94   C     C_R   0.040166 0.753840 0.069394 0.205746
C95   C     C_R   0.969717 0.753877 0.930136 0.207185
C96   C     C_R   0.530714 0.253868 0.069826 0.207044
C97   C     C_R   0.354074 0.748435 0.710566 -0.162499
C98   C     C_R   0.460267 0.253731 0.930573 0.205582
C99   C     C_2   0.648564 0.595145 0.555387 -0.190273
C100  C     C_2   0.351391 0.595283 0.444488 -0.193462
C101  C     C_2   0.148577 0.095108 0.555323 -0.192241
C102  C     C_2   0.851399 0.095311 0.444430 -0.191402
C103  C     C_2   0.598950 0.584406 0.497373 -0.231173
C104  C     C_2   0.400979 0.584386 0.502496 -0.230080
C105  C     C_2   0.098952 0.084373 0.497337 -0.231166
C106  C     C_2   0.900984 0.084421 0.502461 -0.230084
C107  C     C_2   0.683646 0.626542 0.553781 -0.048438
C108  C     C_R   0.144365 0.248138 0.289524 -0.164407
C109  C     C_2   0.316333 0.626675 0.446163 -0.047379
C110  C     C_2   0.183630 0.126514 0.553676 -0.047454
C111  C     C_2   0.816312 0.126692 0.446065 -0.048467
C112  C     C_2   0.659238 0.660802 0.511327 0.264101
C113  C     C_2   0.340768 0.660811 0.488695 0.267171
C114  C     C_2   0.159204 0.160775 0.511223 0.266792
C115  C     C_2   0.840725 0.160838 0.488574 0.264411
C116  C     C_R   0.438640 0.557434 0.500565 0.934893
C117  C     C_R   0.561329 0.557439 0.499375 0.934378
C118  C     C_R   0.938645 0.057445 0.500560 0.934252
C119  C     C_R   0.854077 0.248428 0.710555 -0.162383
C120  C     C_R   0.061333 0.057429 0.499371 0.935015
C121  C     C_R   0.938140 0.943124 0.501011 0.867163
C122  C     C_R   0.061878 0.943121 0.499042 0.867364
C123  C     C_R   0.438140 0.443128 0.501011 0.867240
C124  C     C_R   0.561877 0.443115 0.499042 0.867300
C125  C     C_R   0.691151 0.691179 0.503022 0.840604
C126  C     C_R   0.308862 0.691181 0.497007 0.857310
C127  C     C_R   0.191125 0.191174 0.502964 0.856033
C128  C     C_R   0.808832 0.191186 0.496943 0.841692
C129  C     C_R   0.816612 0.749656 0.634728 0.885424
C130  C     C_R   0.458360 0.738255 0.930504 0.259659
C131  C     C_R   0.182261 0.750797 0.365315 0.890226
C132  C     C_R   0.317770 0.250758 0.634678 0.889680
C133  C     C_R   0.683424 0.249696 0.365276 0.886146
C134  C     C_R   0.619345 0.784896 0.247951 -0.043728
C135  C     C_R   0.374966 0.785422 0.752127 -0.044910
C136  C     C_R   0.119228 0.284884 0.247938 -0.043240
C137  C     C_R   0.874829 0.285417 0.752109 -0.045143
C138  C     C_R   0.579827 0.779907 0.176452 -0.087112
C139  C     C_R   0.409262 0.780650 0.824125 -0.085204
C140  C     C_R   0.079721 0.279882 0.176440 -0.087231
H1    H     H_    0.925657 0.750035 0.711504 0.189837
H2    H     H_    0.413993 0.595149 0.552839 0.190689
H3    H     H_    0.085889 0.095262 0.446980 0.189402
H4    H     H_    0.913988 0.095204 0.552790 0.190598
H5    H     H_    0.561150 0.807878 0.143760 0.196124
H6    H     H_    0.425706 0.808648 0.856876 0.195640
H7    H     H_    0.060959 0.307845 0.143747 0.196037
H8    H     H_    0.925480 0.308647 0.856855 0.195481
H9    H     H_    0.648930 0.679720 0.291607 0.193863
H10   H     H_    0.350601 0.679964 0.709019 0.193505
H11   H     H_    0.149125 0.179729 0.291585 0.193722
H12   H     H_    0.212617 0.752350 0.284200 0.197329
H13   H     H_    0.850834 0.179951 0.709000 0.193691
H14   H     H_    0.837162 0.916374 0.396401 0.158076
H15   H     H_    0.162701 0.915921 0.603717 0.157852
H16   H     H_    0.337371 0.416110 0.396376 0.157139
H17   H     H_    0.662929 0.416211 0.603685 0.158773
H18   H     H_    0.672517 0.833690 0.329878 0.129918
H19   H     H_    0.327037 0.833900 0.667402 0.136228
H20   H     H_    0.172256 0.333728 0.329838 0.130780
H21   H     H_    0.826712 0.333851 0.667356 0.135269
H22   H     H_    0.874829 0.762153 0.916321 0.071998
H23   H     H_    0.287643 0.252251 0.716018 0.197405
H24   H     H_    0.962807 0.741056 0.088688 0.063967
H25   H     H_    0.537496 0.240917 0.911073 0.063596
H26   H     H_    0.625703 0.262229 0.083881 0.072199
H27   H     H_    0.040582 0.759579 0.902520 0.081352
H28   H     H_    0.136132 0.755050 0.091349 0.082024
H29   H     H_    0.364410 0.254942 0.908905 0.082095
H30   H     H_    0.459661 0.259689 0.097116 0.081322
H31   H     H_    0.760719 0.587871 0.622873 0.094048
H32   H     H_    0.239213 0.588207 0.377043 0.088582
H33   H     H_    0.260751 0.087874 0.622701 0.088577
H34   H     H_    0.574377 0.250148 0.288258 0.189933
H35   H     H_    0.739253 0.088167 0.376941 0.094125
H36   H     H_    0.591010 0.693352 0.446879 0.347419
H37   H     H_    0.409014 0.693178 0.553229 0.347496
H38   H     H_    0.090973 0.193314 0.446756 0.346653
H39   H     H_    0.908968 0.193227 0.553051 0.348289
H40   H     H_    0.536683 0.654021 0.105417 0.082531
H41   H     H_    0.429721 0.655827 0.898202 0.083114
H42   H     H_    0.036959 0.153976 0.105394 0.083591
H43   H     H_    0.930018 0.155772 0.898182 0.083982
H44   H     H_    0.956074 0.913632 0.621201 0.095647
H45   H     H_    0.663651 0.581152 0.604926 0.171477
H46   H     H_    0.044128 0.914047 0.378875 0.098523
H47   H     H_    0.455866 0.413985 0.621241 0.098785
H48   H     H_    0.543887 0.413645 0.378919 0.095427
H49   H     H_    0.749495 0.910930 0.392944 0.349821
H50   H     H_    0.250413 0.910664 0.607107 0.350638
H51   H     H_    0.249488 0.410610 0.392312 0.349249
H52   H     H_    0.750394 0.411015 0.606400 0.351153
H53   H     H_    0.906812 0.804593 0.540209 0.353965
H54   H     H_    0.093068 0.804748 0.459330 0.351054
H55   H     H_    0.407076 0.304748 0.541237 0.350824
H56   H     H_    0.336320 0.581434 0.394934 0.170441
H57   H     H_    0.593360 0.304573 0.460453 0.354171
H58   H     H_    0.745132 0.731961 0.666455 0.070290
H59   H     H_    0.081769 0.769180 0.339405 0.027697
H60   H     H_    0.418123 0.269111 0.660207 0.027567
H61   H     H_    0.755156 0.232049 0.333945 0.070179
H62   H     H_    0.163684 0.081120 0.604873 0.170793
H63   H     H_    0.836341 0.081448 0.394889 0.171151
H64   H     H_    0.585904 0.595306 0.447029 0.189320
N1    N     N_R   0.537983 0.712782 0.034192 -0.160198
N2    N     N_R   0.010120 0.789174 0.034611 -0.143253
N3    N     N_R   0.490202 0.289083 0.965081 -0.143164
N4    N     N_R   0.500511 0.218604 0.035354 -0.142649
N5    N     N_R   0.034785 0.718605 0.033618 -0.150090
N6    N     N_R   0.975428 0.789219 0.965886 -0.155150
N7    N     N_R   0.524894 0.289177 0.033806 -0.155195
N8    N     N_R   0.465768 0.218525 0.966618 -0.149878
N9    N     N_R   0.504269 0.713095 0.965412 -0.158614
N10   N     N_R   0.038085 0.212845 0.034175 -0.162383
N11   N     N_R   0.004374 0.213163 0.965396 -0.160849
N12   N     N_R   0.447694 0.763549 0.966476 -0.143000
N13   N     N_R   0.481348 0.763187 0.035201 -0.142168
N14   N     N_R   0.947639 0.263449 0.966464 -0.140719
N15   N     N_R   0.981292 0.263082 0.035188 -0.139937
N16   N     N_R   0.000041 0.718635 0.964880 -0.142960
O1    O     O_R   0.820760 0.769680 0.499980 -0.637773
O2    O     O_R   0.073990 0.954760 0.557490 -0.606708
O3    O     O_R   0.426010 0.454760 0.442510 -0.606948
O4    O     O_R   0.573990 0.454760 0.557490 -0.605299
O5    O     O_R   0.983520 0.954760 0.557520 -0.635570
O6    O     O_R   0.016480 0.954760 0.442480 -0.634605
O7    O     O_R   0.483520 0.454760 0.557520 -0.634273
O8    O     O_R   0.516480 0.454760 0.442480 -0.635905
O9    O     O_R   0.769670 0.820760 0.499990 -0.554377
O10   O     O_R   0.230330 0.820760 0.500010 -0.557987
O11   O     O_R   0.269670 0.320760 0.499990 -0.557496
O12   O     O_R   0.179240 0.769680 0.500020 -0.642990
O13   O     O_R   0.730330 0.320760 0.500010 -0.554854
O14   O     O_R   0.724610 0.724460 0.398130 -0.605585
O15   O     O_R   0.275390 0.724460 0.601870 -0.607558
O16   O     O_R   0.224610 0.224460 0.398130 -0.605688
O17   O     O_R   0.775390 0.224460 0.601870 -0.607463
O18   O     O_R   0.673520 0.775530 0.398150 -0.621529
O19   O     O_R   0.326480 0.775530 0.601850 -0.622706
O20   O     O_R   0.173520 0.275530 0.398150 -0.621745
O21   O     O_R   0.826480 0.275530 0.601850 -0.622456
O22   O     O_R   0.730310 0.679220 0.500010 -0.591783
O23   O     O_R   0.320760 0.269680 0.499980 -0.642913
O24   O     O_R   0.269690 0.679220 0.499990 -0.594094
O25   O     O_R   0.230310 0.179220 0.500010 -0.594318
O26   O     O_R   0.769690 0.179220 0.499990 -0.591509
O27   O     O_R   0.679220 0.730290 0.500020 -0.621532
O28   O     O_R   0.320780 0.730290 0.499980 -0.613702
O29   O     O_R   0.179220 0.230290 0.500020 -0.613755
O30   O     O_R   0.820780 0.230290 0.499980 -0.621509
O31   O     O_R   0.826460 0.724450 0.601850 -0.572389
O32   O     O_R   0.173540 0.724450 0.398150 -0.583528
O33   O     O_R   0.326460 0.224450 0.601850 -0.583880
O34   O     O_R   0.679240 0.269680 0.500020 -0.637830
O35   O     O_R   0.673540 0.224450 0.398150 -0.571956
O36   O     O_R   0.775370 0.775520 0.601870 -0.624914
O37   O     O_R   0.224630 0.775520 0.398130 -0.610622
O38   O     O_R   0.275370 0.275520 0.601870 -0.610601
O39   O     O_R   0.724630 0.275520 0.398130 -0.624981
O40   O     O_R   0.425990 0.545230 0.442510 -0.615746
O41   O     O_R   0.574010 0.545230 0.557490 -0.613827
O42   O     O_R   0.925990 0.045230 0.442510 -0.614679
O43   O     O_R   0.074010 0.045230 0.557490 -0.614869
O44   O     O_2   0.608978 0.859649 0.242594 -0.538130
O45   O     O_R   0.483490 0.545220 0.557520 -0.613524
O46   O     O_2   0.382484 0.860380 0.758324 -0.538768
O47   O     O_2   0.108609 0.359613 0.242568 -0.537665
O48   O     O_2   0.882042 0.360391 0.758272 -0.538996
O49   O     O_2   0.814828 0.722168 0.850107 -0.510386
O50   O     O_2   0.967875 0.779606 0.157040 -0.513737
O51   O     O_2   0.532194 0.279458 0.842404 -0.513911
O52   O     O_2   0.685793 0.222264 0.150443 -0.511839
O53   O     O_2   0.026687 0.753096 0.812150 -0.545651
O54   O     O_2   0.211564 0.750893 0.180301 -0.540438
O55   O     O_2   0.288922 0.250771 0.820086 -0.539492
O56   O     O_R   0.516510 0.545220 0.442480 -0.615891
O57   O     O_2   0.473395 0.253199 0.187418 -0.544687
O58   O     O_2   0.777492 0.649565 0.628824 -0.569030
O59   O     O_2   0.222521 0.649934 0.371113 -0.548304
O60   O     O_2   0.277444 0.149600 0.628809 -0.547914
O61   O     O_2   0.722452 0.149858 0.371134 -0.569393
O62   O     O_3   0.603660 0.669686 0.480428 -0.746540
O63   O     O_3   0.396361 0.669604 0.519647 -0.745468
O64   O     O_3   0.103614 0.169637 0.480285 -0.746103
O65   O     O_3   0.896299 0.169660 0.519454 -0.745868
O66   O     O_2   0.600676 0.627957 0.192358 -0.540013
O67   O     O_R   0.983490 0.045220 0.557520 -0.614533
O68   O     O_2   0.398049 0.628223 0.808230 -0.542488
O69   O     O_2   0.101025 0.127969 0.192336 -0.540943
O70   O     O_2   0.898463 0.128207 0.808216 -0.542337
O71   O     O_2   0.876750 0.911502 0.584068 -0.551145
O72   O     O_2   0.123497 0.911858 0.416205 -0.553888
O73   O     O_2   0.376485 0.411699 0.583836 -0.553862
O74   O     O_2   0.623191 0.411632 0.415937 -0.551191
O75   O     O_3   0.758798 0.882725 0.415937 -0.783579
O76   O     O_3   0.241110 0.882548 0.584002 -0.783454
O77   O     O_3   0.258832 0.382476 0.415521 -0.783720
O78   O     O_R   0.016510 0.045220 0.442480 -0.614894
O79   O     O_3   0.741138 0.382821 0.583532 -0.783252
O80   O     O_3   0.893287 0.829995 0.509774 -0.786785
O81   O     O_3   0.106595 0.830009 0.489925 -0.787361
O82   O     O_3   0.393594 0.330056 0.510604 -0.787317
O83   O     O_3   0.606933 0.329938 0.490829 -0.786807
O84   O     O_2   0.751650 0.771942 0.734384 -0.512197
O85   O     O_2   0.021686 0.729278 0.272169 -0.508336
O86   O     O_2   0.478328 0.229163 0.727521 -0.509364
O87   O     O_2   0.748663 0.272049 0.265894 -0.512360
O88   O     O_R   0.926010 0.954760 0.442510 -0.605542
Zn1   Zn    Zn3+2 0.784100 0.715890 0.499990 1.048409
Zn2   Zn    Zn3+2 0.538410 0.499990 0.576790 1.010345
Zn3   Zn    Zn3+2 0.961590 0.999990 0.423210 1.007260
Zn4   Zn    Zn3+2 0.038410 0.999990 0.576790 1.004700
Zn5   Zn    Zn3+2 0.215900 0.715890 0.500010 1.048359
Zn6   Zn    Zn3+2 0.284100 0.215890 0.499990 1.050071
Zn7   Zn    Zn3+2 0.715900 0.215890 0.500010 1.046872
Zn8   Zn    Zn3+2 0.715880 0.784090 0.500010 1.060499
Zn9   Zn    Zn3+2 0.284120 0.784090 0.499990 1.058628
Zn10  Zn    Zn3+2 0.215880 0.284090 0.500010 1.060088
Zn11  Zn    Zn3+2 0.784120 0.284090 0.499990 1.059099
Zn12  Zn    Zn3+2 0.461590 0.499990 0.423210 1.001588

loop_
_geom_bond_atom_site_label_1
_geom_bond_atom_site_label_2
_ccdc_geom_bond_type
C99   C103  D    
C87   C91   A    
C107  C112  D    
C35   H14   S    
C136  C140  A    
C75   O34   A    
C15   H11   S    
C43   C63   S    
O30   Zn11  S    
C45   H60   S    
C135  C139  A    
C46   H15   S    
O3    Zn12  S    
C62   O83   S    
C55   C59   D    
C96   N4    A    
C91   C131  S    
C31   H32   S    
C138  H5    S    
C29   O57   D    
C100  C104  D    
C121  O5    A    
C81   O18   A    
C41   H47   S    
C1    O1    A    
C18   H19   S    
C104  C116  S    
C86   C134  A    
H38   O64   S    
C70   C74   A    
C130  N12   A    
C33   C111  S    
O24   Zn5   S    
C22   C69   S    
C81   C86   S    
O88   Zn3   S    
H52   O79   S    
C100  C109  S    
O31   Zn1   S    
C96   N7    A    
C82   O15   A    
C106  C118  S    
C102  C111  S    
C103  C117  S    
C50   C121  S    
C89   H34   S    
C100  H56   S    
C39   O71   D    
C18   O46   D    
C132  O38   A    
C19   C136  S    
C123  O3    A    
C126  O28   A    
O33   Zn6   S    
C127  O29   A    
C20   C137  S    
O56   Zn12  S    
C102  H63   S    
C129  O36   A    
C68   C72   A    
C23   O51   D    
C112  O62   S    
C118  O67   A    
C94   N5    A    
C5    C130  S    
C74   C79   A    
C126  O24   A    
C62   C75   S    
C36   O68   D    
C99   H45   S    
C32   H33   S    
C65   C91   A    
C95   N6    A    
O37   Zn9   S    
C64   O11   A    
C85   C90   A    
C57   C61   D    
O39   Zn11  S    
C25   H26   S    
O22   Zn1   S    
C43   O84   D    
C12   C86   A    
C13   N11   A    
C76   C96   S    
C66   C70   A    
C29   C80   S    
O2    Zn4   S    
C115  O65   S    
C84   C119  S    
C38   H43   S    
H53   O80   S    
C59   O80   S    
C7    C13   S    
C123  O7    A    
C122  O2    A    
C47   O87   D    
C36   H41   S    
H49   O75   S    
C41   O73   D    
C78   C87   A    
H50   O76   S    
C129  O31   A    
C30   C107  S    
O13   Zn11  S    
C84   O17   A    
C94   N2    A    
C133  O35   A    
C48   C57   S    
C74   C98   S    
C64   O23   A    
C19   H20   S    
O34   Zn7   S    
C92   C132  S    
C57   O77   S    
C40   H46   S    
H36   O62   S    
O36   Zn8   S    
C90   C129  S    
O1    Zn1   S    
C124  O4    A    
C9    C36   S    
C105  C120  S    
C25   C71   S    
C13   N14   A    
O9    Zn8   S    
C110  C114  D    
C39   H44   S    
C55   O75   S    
C53   O10   A    
C56   O76   S    
C77   C85   A    
N3    N7    A    
C23   C70   S    
C49   H17   S    
C44   C65   S    
C140  H7    S    
N4    N8    A    
C53   C60   S    
H37   O63   S    
C5    C139  A    
C26   H27   S    
C30   O58   D    
C85   H1    S    
C28   O55   D    
C66   C92   A    
C113  C126  S    
C46   C51   D    
H39   O65   S    
C115  C128  S    
C2    C4    S    
O14   Zn1   S    
C5    C9    A    
C22   H24   S    
N2    N6    A    
C48   C52   D    
C8    C12   A    
C120  O43   A    
C6    C24   S    
C82   O19   A    
C125  O22   A    
C8    C34   S    
C87   H12   S    
C21   C68   S    
C97   C135  A    
C19   O47   D    
O16   Zn6   S    
C63   C68   A    
C21   H22   S    
C76   C80   A    
C26   O53   D    
C40   C51   S    
C17   O44   D    
C34   O66   D    
C89   C93   A    
C53   O12   A    
O20   Zn10  S    
C37   O69   D    
C46   C56   S    
C67   C93   A    
O38   Zn10  S    
C58   C62   D    
C139  H6    S    
C34   H40   S    
C27   C78   S    
C20   O48   D    
C21   O49   D    
O17   Zn7   S    
O18   Zn8   S    
C32   C110  S    
C45   O86   D    
C3    C7    A    
O25   Zn6   S    
C1    C59   S    
C71   C76   A    
H55   O82   S    
C122  O6    A    
C83   C108  S    
C80   C89   A    
C28   C79   S    
C103  H64   S    
C83   O20   A    
C69   C73   A    
C84   O21   A    
C3    C137  A    
O67   Zn4   S    
C15   C108  A    
C27   H28   S    
C117  O41   A    
C48   H16   S    
N1    N9    A    
O8    Zn12  S    
C73   C94   S    
C79   C88   A    
O41   Zn2   S    
C98   N8    A    
C128  O30   A    
C61   O82   S    
C56   C60   D    
C61   C64   S    
C9    C14   A    
C105  H3    S    
O12   Zn5   S    
O78   Zn3   S    
C11   C16   A    
C14   H10   S    
C95   N16   A    
C31   C109  S    
C132  O33   A    
O32   Zn5   S    
C82   C97   S    
C104  H2    S    
C98   N3    A    
C125  O27   A    
O5    Zn4   S    
C42   H48   S    
C54   C124  S    
O27   Zn8   S    
C12   H9    S    
O4    Zn2   S    
C6    C10   A    
O35   Zn7   S    
O26   Zn7   S    
H54   O81   S    
C108  C136  A    
C99   C107  S    
C93   C133  S    
C101  H62   S    
C128  O26   A    
C101  C110  S    
C42   C54   S    
C114  C127  S    
C65   C69   A    
C37   H42   S    
C40   O72   D    
C43   H58   S    
C67   C71   A    
C6    C140  A    
C4    C138  A    
C24   N15   A    
C28   H29   S    
C133  O39   A    
C83   O16   A    
C17   C134  S    
C51   C122  S    
C81   O14   A    
O45   Zn2   S    
C44   O85   D    
C11   C38   S    
O42   Zn3   S    
C4    C8    A    
C58   O79   S    
O11   Zn10  S    
C7    C11   A    
C60   O81   S    
C10   C37   S    
O19   Zn9   S    
C10   C15   A    
C52   C123  S    
H51   O77   S    
C49   C54   D    
C38   O70   D    
C47   H61   S    
C130  N9    A    
C131  O37   A    
C72   C95   S    
C88   C92   A    
C2    N13   A    
C73   C78   A    
C102  C106  D    
C127  O25   A    
C29   H30   S    
C31   O59   D    
O15   Zn5   S    
C41   C52   S    
C116  O40   A    
C109  C113  D    
C22   O50   D    
C3    H8    S    
C23   H25   S    
O28   Zn9   S    
C24   N10   A    
O43   Zn4   S    
C117  O56   A    
C47   C67   S    
C124  O8    A    
C101  C105  D    
O21   Zn11  S    
C33   O61   D    
C26   C77   S    
C35   C55   S    
C119  C137  A    
C42   O74   D    
N12   N13   A    
C116  O45   A    
C16   C119  A    
O29   Zn10  S    
N10   N11   A    
H57   O83   S    
C49   C58   S    
C72   C77   A    
C118  O42   A    
C35   C50   D    
C112  C125  S    
C18   C135  S    
C2    N1    A    
C17   H18   S    
C120  O78   A    
C113  O63   S    
C27   O54   D    
C114  O64   S    
C121  O88   A    
C16   H13   S    
O10   Zn9   S    
C131  O32   A    
C14   C97   A    
O6    Zn3   S    
O7    Zn2   S    
N5    N16   A    
C32   O60   D    
C134  C138  A    
C106  H4    S    
C88   H23   S    
O40   Zn12  S    
N14   N15   A    
C20   H21   S    
C63   C90   A    
C75   O13   A    
C33   H35   S    
C30   H31   S    
C25   O52   D    
C1    O9    A    
C39   C50   S    
C44   H59   S    
C45   C66   S    
O23   Zn6   S    
C111  C115  D    
