data_mof_unit_65505.cif
_audit_creation_date              2012-12-11T18:31:57-0500
_audit_creation_method            fapswitch 2.2
_symmetry_space_group_name_H-M    P1
_symmetry_Int_Tables_number       1
_space_group_crystal_system       triclinic
_cell_length_a                    8.200666
_cell_length_b                    14.4545
_cell_length_c                    18.889176
_cell_angle_alpha                 95.005416
_cell_angle_beta                  93.104832
_cell_angle_gamma                 91.509675
_cell_volume                      2226.15757363

loop_
_atom_site_label
_atom_site_type_symbol
_atom_type_description
_atom_site_fract_x
_atom_site_fract_y
_atom_site_fract_z
_atom_type_partial_charge
Ba1   Ba    Ba6+2 0.841340 0.543980 0.464170 1.680906
Ba2   Ba    Ba6+2 0.348470 0.456100 0.535830 1.715879
C1    C     C_3   0.573719 0.872875 0.265563 -0.379171
C2    C     C_3   0.592863 0.779434 0.295769 0.334462
C3    C     C_3   0.529518 0.299872 0.318576 0.650463
C4    C     C_3   0.579761 0.270607 0.243444 -0.379379
C5    C     C_3   0.126402 0.259881 0.740559 0.358644
C6    C     C_3   0.149016 0.232582 0.816308 -0.345786
C7    C     C_3   0.601830 0.210340 0.703111 0.348798
C8    C     C_3   0.590320 0.115065 0.731169 -0.340807
C9    C     C_2   0.295946 0.516828 0.290650 -0.237850
C10   C     C_3   0.439885 0.509868 0.243864 -0.010009
C11   C     C_2   0.380201 0.515064 0.166814 -0.174746
C12   C     C_3   0.105007 0.746723 0.263848 0.283847
C13   C     C_2   0.226529 0.484020 0.144139 -0.056254
C14   C     C_2   0.114702 0.451078 0.199773 0.328100
C15   C     C_1   0.161244 0.467975 0.269447 0.101936
C16   C     C_R   0.066873 0.480768 0.925402 0.457816
C17   C     C_R   0.173030 0.481367 0.065896 0.502878
C18   C     C_R   0.090688 0.525239 0.798000 -0.170512
C19   C     C_R   0.029997 0.521384 0.726151 0.045990
C20   C     C_R   0.788279 0.436616 0.756212 0.060114
C21   C     C_R   0.849912 0.437376 0.827035 -0.183431
C22   C     C_R   0.002971 0.481166 0.849181 -0.065824
C23   C     C_3   0.081346 0.770474 0.186977 0.182047
C24   C     C_R   0.881222 0.475455 0.706017 0.128665
C25   C     C_R   0.697051 0.936207 0.540641 -0.044988
C26   C     C_R   0.510642 0.800031 0.498451 0.066532
C27   C     C_R   0.364318 0.767186 0.462615 -0.288710
C28   C     C_R   0.257655 0.828149 0.433037 0.009185
C29   C     C_R   0.302757 0.920791 0.432536 -0.152975
C30   C     C_R   0.453459 0.955619 0.464779 -0.060829
C31   C     C_R   0.555596 0.896600 0.501927 -0.055069
C32   C     C_R   0.636690 0.090364 0.502830 0.000908
C33   C     C_R   0.738869 0.031664 0.541135 -0.021434
C34   C     C_3   0.190767 0.740733 0.610679 0.296665
C35   C     C_R   0.681526 0.186830 0.505611 0.059338
C36   C     C_R   0.824315 0.221101 0.542849 -0.268864
C37   C     C_R   0.931247 0.162808 0.575009 0.034391
C38   C     C_R   0.886868 0.068396 0.576378 -0.084817
C39   C     C_R   0.498386 0.049651 0.461570 0.387142
C40   C     C_3   0.194586 0.846166 0.624857 -0.402841
C41   C     C_3   0.005776 0.254797 0.386877 0.358524
C42   C     C_3   0.970691 0.150888 0.364195 0.582243
C43   C     C_3   0.680229 0.674673 0.678762 0.345107
C44   C     C_3   0.644370 0.702079 0.757488 0.977454
H1    H     H_    0.719643 0.775973 0.318506 0.119950
H2    H     H_    0.282122 0.868748 0.670342 0.122014
H3    H     H_    0.232541 0.879363 0.577523 0.074883
H4    H     H_    0.071151 0.870241 0.637177 0.104582
H5    H     H_    0.901883 0.284380 0.414962 -0.133680
H6    H     H_    0.117504 0.263428 0.422484 0.077902
H7    H     H_    0.846889 0.142602 0.336695 0.051038
H8    H     H_    0.811010 0.659648 0.674172 -0.051716
H9    H     H_    0.606310 0.610907 0.660219 0.079053
H10   H     H_    0.659825 0.879837 0.222798 0.133966
H11   H     H_    0.506500 0.774905 0.338431 -0.009397
H12   H     H_    0.600797 0.929728 0.308396 0.091978
H13   H     H_    0.591117 0.367872 0.336367 0.036715
H14   H     H_    0.524844 0.201173 0.224459 0.122146
H15   H     H_    0.536976 0.321312 0.206228 0.061530
H16   H     H_    0.714697 0.266158 0.243431 0.101127
H17   H     H_    0.446621 0.879123 0.243441 0.109513
H18   H     H_    0.190907 0.327811 0.737434 0.074665
H19   H     H_    0.993743 0.267115 0.728242 -0.092252
H20   H     H_    0.280942 0.226653 0.831161 0.150187
H21   H     H_    0.097275 0.285946 0.853751 0.082387
H22   H     H_    0.085105 0.164818 0.820798 0.112684
H23   H     H_    0.731637 0.225490 0.693434 -0.082693
H24   H     H_    0.527443 0.208034 0.652053 0.080629
H25   H     H_    0.634719 0.061721 0.691488 0.066359
H26   H     H_    0.461587 0.097219 0.741198 0.150195
H27   H     H_    0.058712 0.674261 0.266703 0.065561
H28   H     H_    0.666599 0.114755 0.781551 0.116934
H29   H     H_    0.466226 0.536375 0.129154 0.100570
H30   H     H_    0.205894 0.561568 0.813551 0.136815
H31   H     H_    0.776806 0.405398 0.864820 0.100134
H32   H     H_    0.296339 0.568470 0.336059 0.030985
H33   H     H_    0.328826 0.694393 0.461268 0.061213
H34   H     H_    0.216722 0.965263 0.407930 0.151668
H35   H     H_    0.970141 0.023340 0.602238 0.059042
H36   H     H_    0.237561 0.751868 0.279718 -0.037891
H37   H     H_    0.860087 0.293092 0.540940 0.032550
H38   H     H_    0.776434 0.893744 0.570771 0.104761
H39   H     H_    0.948948 0.765779 0.170681 0.110659
H40   H     H_    0.126247 0.842964 0.182266 0.056196
H41   H     H_    0.313392 0.717947 0.597233 0.000866
H42   H     H_    0.101206 0.720657 0.565419 0.067643
N1    N     N_R   0.194788 0.537014 0.953093 -0.243333
N2    N     N_R   0.246416 0.537339 0.021645 -0.225482
N3    N     N_R   0.048358 0.423798 0.037446 -0.235449
N4    N     N_R   0.996104 0.423747 0.969284 -0.260585
O1    O     O_2   0.878750 0.447310 0.330740 -0.496704
O2    O     O_3   0.641535 0.749069 0.638746 -0.684577
O3    O     O_3   0.017644 0.809089 0.307507 -0.623101
O4    O     O_2   0.310950 0.552720 0.669300 -0.444053
O5    O     O_3   0.058670 0.551200 0.581940 -0.471641
O6    O     O_3   0.562310 0.381900 0.632830 -0.443914
O7    O     O_3   0.147100 0.701668 0.672349 -0.636301
O8    O     O_3   0.636050 0.386930 0.468580 -0.476198
O9    O     O_3   0.150490 0.333430 0.599380 -0.513222
O10   O     O_2   0.268991 0.167412 0.562051 -0.481802
O11   O     O_3   0.192171 0.191324 0.694016 -0.598834
O12   O     O_3   0.131030 0.448880 0.418060 -0.481706
O13   O     O_3   0.553640 0.613150 0.531430 -0.475440
O14   O     O_2   0.393070 0.270760 0.474720 -0.401473
O15   O     O_3   0.575362 0.230502 0.362244 -0.638698
O16   O     O_2   0.448354 0.449182 0.755884 -0.475163
O17   O     O_3   0.542350 0.277036 0.753133 -0.609180
O18   O     O_3   0.627390 0.618170 0.367170 -0.485459
O19   O     O_2   0.772248 0.579355 0.248270 -0.517691
O20   O     O_3   0.026976 0.299180 0.325257 -0.619339
O21   O     O_3   0.557990 0.707639 0.241643 -0.615359
O22   O     O_2   0.796630 0.729270 0.525320 -0.468024
O23   O     O_3   0.039210 0.666640 0.400620 -0.498005
O24   O     O_2   0.917776 0.831428 0.437136 -0.472227
P1    P     P_3+3 0.053470 0.419720 0.342720 1.074351
P2    P     P_3+3 0.625250 0.715650 0.546950 0.982163
P3    P     P_3+3 0.056937 0.785657 0.395979 0.957043
P4    P     P_3+3 0.136230 0.580350 0.657290 1.032301
P5    P     P_3+3 0.135036 0.212954 0.606631 0.934096
P6    P     P_3+3 0.600989 0.600722 0.274838 0.939554
P7    P     P_3+3 0.575064 0.269714 0.452748 1.047265
P8    P     P_3+3 0.584277 0.387443 0.725922 1.005318
O25   O     O_3   0.970184 0.099214 0.423349 -0.756976
H43   H     H_    0.083058 0.102661 0.445261 0.330140
O26   O     O_3   0.087959 0.115705 0.318215 -0.723613
H44   H     H_    0.050931 0.128910 0.269298 0.298531
O27   O     O_3   0.713365 0.791646 0.782327 -0.665017
C45   C     C_3   0.885564 0.795905 0.781012 0.137552
H45   H     H_    0.944943 0.733409 0.799581 0.062035
H46   H     H_    0.932643 0.856521 0.817051 0.073872
H47   H     H_    0.921512 0.807742 0.726796 0.070537
O28   O     O_3   0.705534 0.632704 0.799815 -0.714787
C46   C     C_3   0.655204 0.645773 0.870374 0.232542
H48   H     H_    0.524241 0.624974 0.872489 0.101206
H49   H     H_    0.677902 0.718295 0.894339 0.073471
H50   H     H_    0.726751 0.600195 0.903762 0.039548
O29   O     O_3   0.473287 0.704574 0.761136 -0.731514
H51   H     H_    0.437282 0.763029 0.742142 0.307831
O30   O     O_3   0.360667 0.309114 0.317587 -0.759285
H52   H     H_    0.311064 0.246431 0.303398 0.339689
O31   O     O_3   0.163168 0.707751 0.141684 -0.738141
H53   H     H_    0.280984 0.725998 0.147746 0.324799
O32   O     O_3   0.007517 0.376738 0.179078 -0.637012
C47   C     C_3   0.853079 0.409793 0.158745 0.222226
H54   H     H_    0.791957 0.358254 0.118258 0.065705
H55   H     H_    0.857541 0.477903 0.135261 0.048231
H56   H     H_    0.775989 0.415146 0.204814 0.057084
O33   O     O_3   0.819627 0.474813 0.637251 -0.716536
H57   H     H_    0.878298 0.425479 0.610483 0.296664
O34   O     O_3   0.406803 0.100789 0.417070 -0.695097
H58   H     H_    0.394579 0.064966 0.369719 0.311978

loop_
_geom_bond_atom_site_label_1
_geom_bond_atom_site_label_2
_ccdc_geom_bond_type
C46   H50   S    
C19   C24   A    
C42   O26   S    
C6    H20   S    
C36   H37   S    
C32   C35   A    
C8    H28   S    
C34   C40   S    
O15   P7    S    
C44   O27   S    
O32   C47   S    
O6    P8    S    
C5    C6    S    
C39   O34   S    
C43   C44   S    
C25   C31   A    
C13   C17   S    
C10   C11   S    
C35   C36   A    
C16   C22   S    
C4    H15   S    
C26   C27   A    
C7    H23   S    
C32   C33   A    
C19   P4    S    
O20   P1    S    
C41   H6    S    
C5    H19   S    
C28   P3    S    
O31   H53   S    
C18   H30   S    
Ba1   Ba2   S    
C41   O20   S    
O7    P4    S    
C35   P7    S    
C42   H7    S    
C9    C15   D    
O21   P6    S    
C18   C22   A    
Ba2   O5    S    
C14   C15   D    
C2    H11   S    
C21   C22   A    
O10   P5    D    
C7    C8    S    
C15   P1    S    
C8    H25   S    
C46   H48   S    
Ba2   O8    S    
C5    O11   S    
O19   P6    D    
C23   O31   S    
C32   C39   A    
O1    P1    D    
O16   P8    D    
C43   O2    S    
Ba1   O8    S    
C47   H55   S    
C34   H41   S    
C7    O17   S    
C36   C37   A    
C42   O25   S    
C13   C14   S    
C3    H13   S    
C12   H27   S    
C11   H29   S    
C2    O21   S    
C24   O33   S    
C7    H24   S    
C29   H34   S    
Ba1   O5    S    
C37   C38   A    
Ba2   P4    S    
C40   H2    S    
Ba2   O9    S    
C25   C33   A    
Ba2   O14   S    
O9    P5    S    
C14   O32   S    
O14   P7    D    
C45   H46   S    
C41   C42   S    
C27   C28   A    
C9    H32   S    
C4    H14   S    
Ba1   O18   S    
C44   O28   S    
C47   H56   S    
C1    H10   S    
C3    O30   S    
C29   C30   A    
C27   H33   S    
Ba2   O12   S    
C28   C29   A    
C30   C39   A    
C23   H39   S    
Ba1   P1    S    
C21   H31   S    
Ba1   O12   S    
C43   H9    S    
O22   P2    D    
C40   H4    S    
C43   H8    S    
C6    H22   S    
O23   P3    S    
C11   C13   D    
O25   H43   S    
O13   P2    S    
C45   H47   S    
Ba1   O22   S    
C12   H36   S    
C1    C2    S    
O11   P5    S    
C12   O3    S    
N3    N4    A    
C47   H54   S    
C3    O15   S    
C46   H49   S    
C25   H38   S    
O33   H57   S    
C16   N1    A    
C38   H35   S    
O4    P4    D    
C26   C31   A    
O29   H51   S    
O17   P8    S    
C20   P8    S    
O28   C46   S    
C1    H17   S    
O12   P1    S    
Ba2   O13   S    
C37   P5    S    
O24   P3    D    
O8    P7    S    
O3    P3    S    
C30   C31   A    
C4    H16   S    
O5    P4    S    
Ba2   O4    S    
C33   C38   A    
O27   C45   S    
C16   N4    A    
C34   H42   S    
C17   N2    A    
C26   P2    S    
O30   H52   S    
O18   P6    S    
O2    P2    S    
C41   H5    S    
C3    C4    S    
C23   H40   S    
C45   H45   S    
C34   O7    S    
Ba1   P2    S    
C12   C23   S    
C5    H18   S    
C17   N3    A    
C40   H3    S    
C1    H12   S    
C10   P6    S    
C18   C19   A    
Ba2   O6    S    
C6    H21   S    
Ba1   O1    S    
C20   C24   A    
C20   C21   A    
O34   H58   S    
Ba1   O23   S    
N1    N2    A    
O26   H44   S    
C9    C10   S    
Ba1   O13   S    
C44   O29   S    
C2    H1    S    
C8    H26   S    
