data_mof_unit_57213.cif
_audit_creation_date              2012-10-26T20:51:11-0400
_audit_creation_method            fapswitch 2.2
_symmetry_space_group_name_H-M    P1
_symmetry_Int_Tables_number       1
_space_group_crystal_system       triclinic
_cell_length_a                    12.923487
_cell_length_b                    10.865475
_cell_length_c                    9.625141
_cell_angle_alpha                 89.877623
_cell_angle_beta                  97.182698
_cell_angle_gamma                 91.013821
_cell_volume                      1340.74432511

loop_
_atom_site_label
_atom_site_type_symbol
_atom_type_description
_atom_site_fract_x
_atom_site_fract_y
_atom_site_fract_z
_atom_type_partial_charge
Br1   Br    Br    0.494995 0.143098 0.901046 -0.375977
Br2   Br    Br    0.961535 0.752834 0.250426 -0.428517
Br3   Br    Br    0.217873 0.732928 0.284600 -0.275848
C1    C     C_R   0.497548 0.262756 0.499803 0.557174
C2    C     C_R   0.462579 0.940307 0.360133 0.247403
C3    C     C_R   0.478477 0.870700 0.488458 -0.015519
C4    C     C_R   0.300785 0.505240 0.473134 0.575374
C5    C     C_R   0.478368 0.935412 0.614145 -0.022326
C6    C     C_3   0.548564 0.925844 0.748938 -0.228772
C7    C     C_3   0.555870 0.065644 0.750105 0.061133
C8    C     C_R   0.590811 0.513844 0.088318 0.128385
C9    C     C_R   0.413934 0.459440 0.055732 0.380998
C10   C     C_R   0.413903 0.467809 0.908782 0.075202
C11   C     C_R   0.590590 0.514838 0.942131 0.151069
C12   C     C_R   0.025703 0.463859 0.545228 0.018225
C13   C     C_3   0.667194 0.619512 0.950091 -0.251257
C14   C     C_3   0.670271 0.614704 0.108836 -0.252066
C15   C     C_R   0.494653 0.737557 0.497166 0.554632
C16   C     C_R   0.699183 0.498754 0.527307 0.524076
C17   C     C_R   0.812015 0.493579 0.543773 0.002773
C18   C     C_R   0.187946 0.519236 0.458606 -0.007753
C19   C     C_R   0.029890 0.628070 0.371050 0.178971
C20   C     C_R   0.138023 0.613509 0.376057 0.207709
C21   C     C_R   0.131727 0.446088 0.543300 -0.153951
C22   C     C_R   0.973547 0.553480 0.456579 0.025063
C23   C     C_R   0.866273 0.566662 0.457014 -0.099214
C24   C     C_R   0.864538 0.409100 0.635592 -0.117047
C25   C     C_R   0.971179 0.393546 0.635590 -0.087891
C26   C     C_R   0.482166 0.062190 0.618246 0.056791
C27   C     C_R   0.483700 0.130130 0.496598 -0.062445
C28   C     C_R   0.466113 0.068904 0.368419 -0.084664
Cu1   Cu    Cu3+1 0.499990 0.499980 0.640670 0.996118
Cu2   Cu    Cu3+1 0.500010 0.500020 0.359330 1.122451
H1    H     H_    0.823236 0.633280 0.390404 0.153383
H2    H     H_    0.010763 0.325725 0.704822 0.155426
H3    H     H_    0.171506 0.376638 0.610320 0.150885
H4    H     H_    0.462656 0.121788 0.272527 0.239785
H5    H     H_    0.504758 0.885505 0.830368 0.194848
H6    H     H_    0.249095 0.261360 0.258339 0.364541
H7    H     H_    0.578085 0.874943 0.047780 0.346378
H8    H     H_    0.623799 0.881511 0.736781 0.112732
H9    H     H_    0.634373 0.102639 0.734391 0.126327
H10   H     H_    0.344622 0.443255 0.839353 0.176905
H11   H     H_    0.742071 0.593157 0.913755 0.162762
H12   H     H_    0.632569 0.704853 0.902616 0.135403
H13   H     H_    0.745869 0.581146 0.161459 0.158389
H14   H     H_    0.641016 0.697156 0.157109 0.203025
H15   H     H_    0.822388 0.351943 0.702707 0.133279
N1    N     N_R   0.500660 0.500930 0.148010 -0.229799
N2    N     N_R   0.500660 0.500890 0.852110 -0.267865
O1    O     O_R   0.500000 0.319640 0.618810 -0.476087
O2    O     O_2   0.253244 0.302985 0.980044 -0.274608
O3    O     O_3   0.319487 0.289770 0.240479 -0.501541
O4    O     O_2   0.424425 0.756387 0.155062 -0.239548
O5    O     O_2   0.382979 0.967011 0.092563 -0.187255
O6    O     O_3   0.578307 0.912712 0.140843 -0.531691
O7    O     O_R   0.500010 0.319680 0.381230 -0.465133
O8    O     O_R   0.348990 0.499960 0.599490 -0.530081
O9    O     O_R   0.349000 0.500000 0.361910 -0.395194
O10   O     O_R   0.499990 0.680320 0.618770 -0.512240
O11   O     O_R   0.500000 0.680360 0.381190 -0.441731
O12   O     O_R   0.651000 0.500000 0.638090 -0.511001
O13   O     O_R   0.651010 0.500040 0.400510 -0.520597
O14   O     O_2   0.219798 0.477205 0.123980 -0.252820
S1    S     S_3+6 0.299135 0.382601 0.100755 0.072246
S2    S     S_3+6 0.457613 0.887737 0.183842 0.050574

loop_
_geom_bond_atom_site_label_1
_geom_bond_atom_site_label_2
_ccdc_geom_bond_type
C24   H15   S    
Br2   C19   S    
C3    C5    A    
C15   O11   A    
C26   C27   A    
C8    N1    A    
C17   C24   A    
C7    H9    S    
O3    S1    S    
C6    C7    S    
C13   H11   S    
C4    O8    A    
C6    H8    S    
C16   C17   S    
Cu1   O8    S    
C27   C28   A    
Cu2   O13   S    
O14   S1    D    
C1    O1    A    
C9    N1    A    
Cu2   O9    S    
Cu1   O12   S    
Cu1   O1    S    
C2    S2    S    
H6    O3    S    
C9    C10   A    
C7    C26   S    
Cu1   N2    S    
C12   C25   A    
C21   H3    S    
C17   C23   A    
O6    S2    S    
C5    C26   A    
C4    O9    A    
C12   C21   A    
C18   C20   A    
C2    C3    A    
C3    C15   S    
C8    C11   A    
C11   C13   S    
C12   C22   A    
C13   C14   S    
C11   N2    A    
C13   H12   S    
Cu2   N1    S    
C10   N2    A    
C28   H4    S    
C10   H10   S    
O5    S2    D    
C14   H13   S    
C25   H2    S    
Cu2   O11   S    
Cu1   Cu2   S    
C9    S1    S    
C18   C21   A    
C15   O10   A    
C24   C25   A    
O2    S1    D    
Cu1   O10   S    
C19   C20   A    
C6    H5    S    
Cu2   O7    S    
C16   O12   A    
O4    S2    D    
C2    C28   A    
C22   C23   A    
C4    C18   S    
Br3   C20   S    
C23   H1    S    
C1    C27   S    
Br1   C7    S    
C14   H14   S    
C1    O7    A    
C16   O13   A    
C5    C6    S    
H7    O6    S    
C19   C22   A    
C8    C14   S    
