data_mof_unit_58891.cif
_audit_creation_date              2012-12-10T17:42:44-0500
_audit_creation_method            fapswitch 2.2
_symmetry_space_group_name_H-M    P1
_symmetry_Int_Tables_number       1
_space_group_crystal_system       triclinic
_cell_length_a                    9.905579
_cell_length_b                    10.691414
_cell_length_c                    13.099974
_cell_angle_alpha                 91.772528
_cell_angle_beta                  69.614587
_cell_angle_gamma                 89.673866
_cell_volume                      1299.63644326

loop_
_atom_site_label
_atom_site_type_symbol
_atom_type_description
_atom_site_fract_x
_atom_site_fract_y
_atom_site_fract_z
_atom_type_partial_charge
C1    C     C_R   0.503062 0.739676 0.491164 0.845657
C2    C     C_R   0.368528 0.472085 0.823474 -0.322933
C3    C     C_R   0.270715 0.890811 0.449340 -0.168043
C4    C     C_R   0.419635 0.490839 0.704565 0.893900
C5    C     C_R   0.138641 0.953275 0.473751 -0.242148
C6    C     C_R   0.110066 0.062271 0.538983 -0.226702
C7    C     C_R   0.218232 0.115620 0.570998 0.549073
C8    C     C_R   0.360741 0.063057 0.528874 -0.036782
C9    C     C_R   0.378620 0.940580 0.486084 0.042284
C10   C     C_R   0.503668 0.873525 0.483490 -0.092273
C11   C     C_R   0.621866 0.936099 0.494128 -0.232456
C12   C     C_R   0.441730 0.467252 0.981586 0.055310
C13   C     C_R   0.615682 0.063377 0.509532 -0.214862
C14   C     C_R   0.487185 0.127950 0.523706 -0.133829
C15   C     C_R   0.800250 0.678513 0.630856 -0.115841
C16   C     C_R   0.495002 0.260860 0.510430 0.893163
C17   C     C_R   0.844208 0.772035 0.687999 -0.222505
C18   C     C_R   0.984732 0.772663 0.686042 -0.222279
C19   C     C_R   0.080837 0.678088 0.628754 -0.100156
C20   C     C_R   0.043063 0.588208 0.563146 0.147893
C21   C     C_R   0.898474 0.588175 0.563657 0.056874
C22   C     C_R   0.956185 0.415249 0.437195 0.552558
C23   C     C_R   0.470146 0.436196 0.871391 0.027619
C24   C     C_R   0.100677 0.415212 0.439274 -0.237073
C25   C     C_R   0.580574 0.497540 0.295641 0.894459
C26   C     C_R   0.777849 0.353416 0.018372 0.566689
C27   C     C_R   0.631495 0.475075 0.178527 -0.169239
C28   C     C_R   0.223448 0.498428 0.891108 0.419581
C29   C     C_R   0.189448 0.508639 0.005527 0.501179
C30   C     C_R   0.299930 0.499361 0.048295 -0.413984
C31   C     C_3   0.201384 0.180743 0.742502 -0.243298
C32   C     C_3   0.018189 0.268340 0.290233 -0.363192
C33   C     C_3   0.870833 0.156520 0.001702 -0.393788
C34   C     C_R   0.552769 0.454084 0.024567 0.070531
C35   C     C_3   0.019281 0.594682 0.877936 -0.211340
C36   C     C_3   0.019594 0.614993 0.149462 -0.375987
C37   C     C_R   0.678678 0.382812 0.966705 0.011152
C38   C     C_R   0.698482 0.337853 0.861081 -0.212018
C39   C     C_R   0.596626 0.365433 0.813518 -0.167058
C40   C     C_R   0.539079 0.508842 0.125353 -0.289664
C41   C     C_R   0.752108 0.398664 0.125253 -0.235866
H1    H     H_    0.822572 0.369887 0.167785 0.218307
H2    H     H_    0.792288 0.281309 0.814941 0.199691
H3    H     H_    0.180464 0.346657 0.392489 0.161498
H4    H     H_    0.451942 0.574317 0.166536 0.161988
H5    H     H_    0.719913 0.887153 0.489833 0.170893
H6    H     H_    0.317398 0.181050 0.732456 0.124745
H7    H     H_    0.154165 0.088052 0.770258 0.119599
H8    H     H_    0.146653 0.250842 0.807875 0.271621
H9    H     H_    0.074531 0.196806 0.321326 0.162819
H10   H     H_    0.094590 0.336609 0.239088 0.182804
H11   H     H_    0.968978 0.218071 0.236996 0.196270
H12   H     H_    0.288056 0.805536 0.399607 0.168789
H13   H     H_    0.777543 0.117113 0.983496 0.163030
H14   H     H_    0.852554 0.151766 0.090232 0.164280
H15   H     H_    0.966421 0.096648 0.957676 0.183380
H16   H     H_    0.075746 0.685507 0.870393 0.101290
H17   H     H_    0.938680 0.585257 0.960209 0.208678
H18   H     H_    0.952923 0.593349 0.825487 0.192657
H19   H     H_    0.269841 0.502618 0.135822 0.170217
H20   H     H_    0.075158 0.701009 0.111087 0.142035
H21   H     H_    0.048662 0.592338 0.221443 0.177917
H22   H     H_    0.902250 0.636211 0.179580 0.203109
H23   H     H_    0.055943 0.913674 0.446727 0.164397
H24   H     H_    0.614253 0.324347 0.733320 0.166271
H25   H     H_    0.003414 0.104854 0.565699 0.161012
H26   H     H_    0.712193 0.110979 0.509092 0.189341
H27   H     H_    0.688286 0.679379 0.643288 0.205827
H28   H     H_    0.767453 0.841936 0.736991 0.147379
H29   H     H_    0.017263 0.842380 0.734197 0.143206
H30   H     H_    0.180711 0.673915 0.642433 0.204539
N1    N     N_R   0.856860 0.501200 0.500990 -0.157246
N2    N     N_R   0.142450 0.501280 0.501020 -0.123100
O1    O     O_R   0.385310 0.683220 0.500000 -0.653341
O2    O     O_3   0.907234 0.328473 0.376911 -0.575172
O3    O     O_3   0.898594 0.279763 0.965422 -0.581289
O4    O     O_3   0.116620 0.491996 0.844875 -0.561398
O5    O     O_3   0.047283 0.511136 0.075154 -0.600751
O6    O     O_R   0.614640 0.683250 0.500010 -0.646122
O7    O     O_R   0.328400 0.499950 0.653610 -0.551693
O8    O     O_R   0.557730 0.499970 0.653620 -0.645549
O9    O     O_R   0.385360 0.316750 0.499990 -0.573159
O10   O     O_R   0.614690 0.316780 0.500000 -0.584585
O11   O     O_R   0.442270 0.500030 0.346380 -0.623835
O12   O     O_R   0.671600 0.500050 0.346390 -0.580364
O13   O     O_3   0.179949 0.215406 0.646079 -0.582085
Zn1   Zn    Zn3+2 0.346880 0.499980 0.499990 0.967922
Zn2   Zn    Zn3+2 0.653120 0.500020 0.500010 0.959575

loop_
_geom_bond_atom_site_label_1
_geom_bond_atom_site_label_2
_ccdc_geom_bond_type
C33   H14   S    
C18   H29   S    
C34   C37   A    
C3    H12   S    
C41   H1    S    
C19   H30   S    
C19   C20   A    
O11   Zn1   S    
C32   O2    S    
C7    C8    A    
C17   H28   S    
C12   C23   A    
C37   C38   A    
C35   H17   S    
C34   C40   A    
C1    O1    A    
C28   C29   A    
C4    O7    A    
O7    Zn1   S    
C5    C6    A    
C24   N2    A    
C7    O13   S    
O9    Zn1   S    
C35   H18   S    
C18   C19   A    
N2    Zn1   S    
C32   H11   S    
C4    O8    A    
C8    C9    A    
C30   H19   S    
C25   O11   A    
C26   O3    S    
O1    Zn1   S    
C36   H22   S    
C9    C10   A    
C33   H15   S    
O10   Zn2   S    
C31   O13   S    
C31   H6    S    
C13   C14   A    
C39   H24   S    
C22   O2    S    
C31   H8    S    
C36   H21   S    
C22   N1    A    
O6    Zn2   S    
N1    Zn2   S    
C40   H4    S    
C29   O5    S    
C21   N1    A    
C35   O4    S    
C16   O10   A    
C5    H23   S    
C2    C4    S    
C32   H10   S    
C29   C30   A    
C3    C9    A    
C27   C41   A    
C33   O3    S    
C6    H25   S    
C27   C40   A    
C25   O12   A    
C17   C18   A    
C28   O4    S    
C32   H9    S    
C31   H7    S    
C24   H3    S    
C14   C16   S    
C12   C34   A    
C36   H20   S    
C1    O6    A    
C13   H26   S    
O12   Zn2   S    
C33   H13   S    
C15   C17   A    
C8    C14   A    
C12   C30   A    
C1    C10   S    
C3    C5    A    
C26   C37   A    
C6    C7    A    
C25   C27   S    
C35   H16   S    
C38   H2    S    
C36   O5    S    
C11   C13   A    
C38   C39   A    
C23   C39   A    
C15   H27   S    
C20   N2    A    
C22   C24   A    
O8    Zn2   S    
C10   C11   A    
C15   C21   A    
C20   C21   A    
C16   O9    A    
C2    C23   A    
C11   H5    S    
C2    C28   A    
C26   C41   A    
