data_mof_unit_34440.cif
_audit_creation_date              2012-12-11T15:34:44-0500
_audit_creation_method            fapswitch 2.2
_symmetry_space_group_name_H-M    P1
_symmetry_Int_Tables_number       1
_space_group_crystal_system       triclinic
_cell_length_a                    16.941618
_cell_length_b                    17.136008
_cell_length_c                    17.107998
_cell_angle_alpha                 89.99998
_cell_angle_beta                  90.000243
_cell_angle_gamma                 90.000019
_cell_volume                      4966.65200998

loop_
_atom_site_label
_atom_site_type_symbol
_atom_type_description
_atom_site_fract_x
_atom_site_fract_y
_atom_site_fract_z
_atom_type_partial_charge
C1    C     C_R   0.800017 0.106737 0.400892 -0.084821
C2    C     C_R   0.170539 0.077508 0.354695 -0.073899
C3    C     C_R   0.920838 0.170989 0.644633 -0.163270
C4    C     C_R   0.108380 0.801786 0.398945 -0.165881
C5    C     C_R   0.199982 0.106736 0.599111 -0.084795
C6    C     C_R   0.829460 0.922492 0.354695 -0.073918
C7    C     C_R   0.079162 0.829012 0.644634 -0.163264
C8    C     C_R   0.891621 0.198215 0.398948 -0.165863
C9    C     C_R   0.300018 0.606736 0.900889 -0.084798
C10   C     C_R   0.670543 0.422489 0.145303 -0.073886
C11   C     C_R   0.420838 0.329012 0.855366 -0.163270
C12   C     C_R   0.170540 0.922492 0.645305 -0.073899
C13   C     C_R   0.608376 0.698214 0.101056 -0.165906
C14   C     C_R   0.699982 0.393264 0.900889 -0.084802
C15   C     C_R   0.329460 0.577508 0.145305 -0.073904
C16   C     C_R   0.579162 0.670988 0.855366 -0.163274
C17   C     C_R   0.391621 0.301786 0.101056 -0.165879
C18   C     C_R   0.300018 0.393264 0.099111 -0.084796
C19   C     C_R   0.670539 0.577508 0.854695 -0.073905
C20   C     C_R   0.420837 0.670989 0.144633 -0.163279
C21   C     C_R   0.608379 0.301786 0.898945 -0.165878
C22   C     C_R   0.699981 0.606738 0.099114 -0.084759
C23   C     C_R   0.920837 0.829012 0.355365 -0.163234
C24   C     C_R   0.329460 0.422492 0.854695 -0.073898
C25   C     C_R   0.579165 0.329009 0.144632 -0.163286
C26   C     C_R   0.391621 0.698214 0.898945 -0.165883
C27   C     C_R   0.250293 0.245530 0.629689 -0.263632
C28   C     C_R   0.838116 0.838757 0.229503 -0.256166
C29   C     C_R   0.838118 0.161248 0.770493 -0.256225
C30   C     C_R   0.250295 0.754472 0.370312 -0.263638
C31   C     C_R   0.749706 0.754472 0.629690 -0.263636
C32   C     C_R   0.161881 0.161247 0.229506 -0.256218
C33   C     C_R   0.161882 0.838753 0.770494 -0.256210
C34   C     C_R   0.108379 0.198214 0.601055 -0.165883
C35   C     C_R   0.749707 0.245531 0.370319 -0.263594
C36   C     C_R   0.750287 0.745536 0.129689 -0.263602
C37   C     C_R   0.338119 0.338754 0.729505 -0.256220
C38   C     C_R   0.338118 0.661249 0.270493 -0.256232
C39   C     C_R   0.750294 0.254471 0.870312 -0.263626
C40   C     C_R   0.249707 0.254471 0.129690 -0.263630
C41   C     C_R   0.661881 0.661247 0.729506 -0.256223
C42   C     C_R   0.661888 0.338747 0.270490 -0.256233
C43   C     C_R   0.249707 0.745530 0.870311 -0.263628
C44   C     C_R   0.811185 0.185814 0.387899 0.183295
C45   C     C_R   0.199982 0.893265 0.400890 -0.084805
C46   C     C_R   0.136863 0.864058 0.691221 0.171008
C47   C     C_R   0.863136 0.864059 0.308778 0.171014
C48   C     C_R   0.188815 0.185812 0.612107 0.183337
C49   C     C_R   0.188815 0.814188 0.387894 0.183325
C50   C     C_R   0.863137 0.135943 0.691221 0.171005
C51   C     C_R   0.136863 0.135942 0.308779 0.171007
C52   C     C_R   0.811185 0.814189 0.612107 0.183329
C53   C     C_R   0.311185 0.685812 0.887893 0.183345
C54   C     C_R   0.636868 0.364054 0.191218 0.171009
C55   C     C_R   0.363137 0.364058 0.808779 0.171008
C56   C     C_R   0.829460 0.077508 0.645305 -0.073884
C57   C     C_R   0.688812 0.685815 0.112109 0.183383
C58   C     C_R   0.688815 0.314188 0.887894 0.183332
C59   C     C_R   0.363136 0.635943 0.191220 0.171009
C60   C     C_R   0.636862 0.635942 0.808779 0.171004
C61   C     C_R   0.311185 0.314188 0.112107 0.183340
C62   C     C_R   0.270844 0.370764 0.693157 0.466997
C63   C     C_R   0.828862 0.723942 0.147185 0.471627
C64   C     C_R   0.729194 0.175034 0.861194 0.304209
C65   C     C_R   0.374913 0.725909 0.306496 0.298931
C66   C     C_R   0.729155 0.629238 0.693158 0.466993
C67   C     C_R   0.079162 0.170988 0.355366 -0.163268
C68   C     C_R   0.171139 0.276075 0.147210 0.471662
C69   C     C_R   0.270808 0.824967 0.861193 0.304199
C70   C     C_R   0.625093 0.274088 0.306495 0.298926
C71   C     C_R   0.270844 0.629238 0.306843 0.466999
C72   C     C_R   0.828860 0.276077 0.852788 0.471647
C73   C     C_R   0.729181 0.824971 0.138816 0.304177
C74   C     C_R   0.374914 0.274094 0.693500 0.298935
C75   C     C_R   0.729160 0.370760 0.306840 0.467001
C76   C     C_R   0.171139 0.723926 0.852792 0.471650
C77   C     C_R   0.270807 0.175034 0.138808 0.304204
C78   C     C_R   0.891620 0.801786 0.601056 -0.165881
C79   C     C_R   0.625086 0.725907 0.693502 0.298932
C80   C     C_R   0.770837 0.870767 0.193163 0.466966
C81   C     C_R   0.328861 0.223925 0.647210 0.471664
C82   C     C_R   0.229195 0.675035 0.361195 0.304214
C83   C     C_R   0.874913 0.225908 0.806498 0.298939
C84   C     C_R   0.229156 0.129237 0.193159 0.466994
C85   C     C_R   0.671139 0.776078 0.647216 0.471664
C86   C     C_R   0.770808 0.324967 0.361197 0.304224
C87   C     C_R   0.125086 0.774095 0.806501 0.298928
C88   C     C_R   0.770844 0.129237 0.806842 0.466997
C89   C     C_R   0.800018 0.893265 0.599111 -0.084801
C90   C     C_R   0.328860 0.776079 0.352784 0.471663
C91   C     C_R   0.229193 0.324967 0.638807 0.304205
C92   C     C_R   0.874914 0.774105 0.193486 0.298942
C93   C     C_R   0.229157 0.870764 0.806842 0.466992
C94   C     C_R   0.671143 0.223924 0.352792 0.471606
C95   C     C_R   0.770805 0.675035 0.638807 0.304209
C96   C     C_R   0.125086 0.225907 0.193500 0.298935
H1    H     H_    0.745060 0.076011 0.407304 0.175249
H2    H     H_    0.218347 0.038902 0.340235 0.170351
H3    H     H_    0.957318 0.220575 0.658320 0.163662
H4    H     H_    0.077815 0.746678 0.400295 0.161268
H5    H     H_    0.254938 0.076008 0.592699 0.175269
H6    H     H_    0.781653 0.961099 0.340237 0.170350
H7    H     H_    0.042682 0.779425 0.658320 0.163666
H8    H     H_    0.922186 0.253323 0.400299 0.161258
H9    H     H_    0.245062 0.576008 0.907300 0.175266
H10   H     H_    0.718351 0.461094 0.159762 0.170361
H11   H     H_    0.457318 0.279426 0.841679 0.163663
H12   H     H_    0.218347 0.961098 0.659765 0.170355
H13   H     H_    0.577809 0.753321 0.099706 0.161265
H14   H     H_    0.754938 0.423992 0.907302 0.175260
H15   H     H_    0.281653 0.538903 0.159765 0.170353
H16   H     H_    0.542681 0.720574 0.841679 0.163660
H17   H     H_    0.422186 0.246678 0.099706 0.161259
H18   H     H_    0.245062 0.423992 0.092700 0.175265
H19   H     H_    0.718347 0.538902 0.840234 0.170347
H20   H     H_    0.457317 0.720576 0.158320 0.163660
H21   H     H_    0.577815 0.246678 0.900295 0.161260
H22   H     H_    0.754939 0.576011 0.092710 0.175287
H23   H     H_    0.957318 0.779426 0.341678 0.163687
H24   H     H_    0.281653 0.461098 0.840234 0.170353
H25   H     H_    0.542685 0.279422 0.158318 0.163654
H26   H     H_    0.422186 0.753322 0.900295 0.161262
H27   H     H_    0.198477 0.459311 0.683363 0.377509
H28   H     H_    0.913106 0.646069 0.138424 0.379364
H29   H     H_    0.668293 0.168123 0.956075 0.331404
H30   H     H_    0.481498 0.690755 0.287207 0.335291
H31   H     H_    0.801527 0.540694 0.683372 0.377504
H32   H     H_    0.086977 0.354062 0.138656 0.379258
H33   H     H_    0.331709 0.831878 0.956074 0.331402
H34   H     H_    0.077814 0.253322 0.599706 0.161263
H35   H     H_    0.518507 0.309243 0.287206 0.335294
H36   H     H_    0.198479 0.540690 0.316640 0.377511
H37   H     H_    0.913006 0.354080 0.861314 0.379252
H38   H     H_    0.668276 0.831889 0.043938 0.331399
H39   H     H_    0.481500 0.309248 0.712792 0.335289
H40   H     H_    0.801526 0.459309 0.316635 0.377526
H41   H     H_    0.086971 0.645945 0.861357 0.379251
H42   H     H_    0.331708 0.168122 0.043927 0.331406
H43   H     H_    0.518500 0.690753 0.712791 0.335290
H44   H     H_    0.698461 0.959309 0.183387 0.377498
H45   H     H_    0.254938 0.923993 0.407303 0.175263
H46   H     H_    0.413021 0.145936 0.638660 0.379260
H47   H     H_    0.168296 0.668125 0.456077 0.331409
H48   H     H_    0.981499 0.190756 0.787207 0.335284
H49   H     H_    0.301522 0.040689 0.183365 0.377501
H50   H     H_    0.586993 0.854084 0.638701 0.379243
H51   H     H_    0.831709 0.331881 0.456078 0.331412
H52   H     H_    0.018501 0.809248 0.787208 0.335281
H53   H     H_    0.698478 0.040689 0.816637 0.377504
H54   H     H_    0.413000 0.854095 0.361285 0.379231
H55   H     H_    0.168291 0.331877 0.543925 0.331408
H56   H     H_    0.781653 0.038903 0.659765 0.170352
H57   H     H_    0.981499 0.809251 0.212793 0.335272
H58   H     H_    0.301522 0.959312 0.816638 0.377508
H59   H     H_    0.587020 0.145904 0.361263 0.379207
H60   H     H_    0.831704 0.668125 0.543924 0.331414
H61   H     H_    0.018501 0.190753 0.212792 0.335283
H62   H     H_    0.042681 0.220574 0.341679 0.163666
H63   H     H_    0.922185 0.746678 0.599706 0.161263
H64   H     H_    0.745062 0.923993 0.592697 0.175268
N1    N     N_R   0.868470 0.074730 0.422590 -0.062799
N2    N     N_R   0.131530 0.074730 0.422590 -0.062392
N3    N     N_R   0.925270 0.131530 0.577410 -0.047913
N4    N     N_R   0.074730 0.868470 0.422590 -0.048076
N5    N     N_R   0.131530 0.074730 0.577410 -0.062809
N6    N     N_R   0.868470 0.925270 0.422590 -0.062392
N7    N     N_R   0.074730 0.868470 0.577410 -0.047914
N8    N     N_R   0.925270 0.131530 0.422590 -0.048073
N9    N     N_R   0.368470 0.574730 0.922590 -0.062808
N10   N     N_R   0.631530 0.425270 0.077410 -0.062395
N11   N     N_R   0.425270 0.368470 0.922590 -0.047913
N12   N     N_R   0.131530 0.925270 0.577410 -0.062393
N13   N     N_R   0.574730 0.631530 0.077410 -0.048074
N14   N     N_R   0.631530 0.425270 0.922590 -0.062805
N15   N     N_R   0.368470 0.574730 0.077410 -0.062393
N16   N     N_R   0.574730 0.631530 0.922590 -0.047912
N17   N     N_R   0.425270 0.368470 0.077410 -0.048072
N18   N     N_R   0.368470 0.425270 0.077410 -0.062807
N19   N     N_R   0.631530 0.574730 0.922590 -0.062392
N20   N     N_R   0.425270 0.631530 0.077410 -0.047911
N21   N     N_R   0.574730 0.368470 0.922590 -0.048073
N22   N     N_R   0.631530 0.574730 0.077410 -0.062816
N23   N     N_R   0.925270 0.868470 0.422590 -0.047921
N24   N     N_R   0.368470 0.425270 0.922590 -0.062393
N25   N     N_R   0.574730 0.368470 0.077410 -0.047911
N26   N     N_R   0.425270 0.631530 0.922590 -0.048072
N27   N     N_R   0.074730 0.131530 0.577410 -0.048074
N28   N     N_R   0.131530 0.925270 0.422590 -0.062806
N29   N     N_R   0.868470 0.074730 0.577410 -0.062391
N30   N     N_R   0.074730 0.131530 0.422590 -0.047915
N31   N     N_R   0.925270 0.868470 0.577410 -0.048074
N32   N     N_R   0.868470 0.925270 0.577410 -0.062808
Ni1   Ni    Ni4+2 0.869670 0.000000 0.500000 0.228428
Ni2   Ni    Ni4+2 0.130330 0.000000 0.500000 0.228423
Ni3   Ni    Ni4+2 0.000000 0.869670 0.500000 0.222366
Ni4   Ni    Ni4+2 0.000000 0.130330 0.500000 0.222364
Ni5   Ni    Ni4+2 0.369670 0.500000 0.000000 0.228419
Ni6   Ni    Ni4+2 0.630330 0.500000 0.000000 0.228422
Ni7   Ni    Ni4+2 0.500000 0.369670 0.000000 0.222364
Ni8   Ni    Ni4+2 0.500000 0.630330 0.000000 0.222361
O1    O     O_3   0.249282 0.446883 0.709070 -0.748892
O2    O     O_3   0.859921 0.344075 0.883284 -0.749111
O3    O     O_3   0.670269 0.859170 0.095052 -0.742054
O4    O     O_3   0.454448 0.259024 0.702094 -0.746580
O5    O     O_3   0.750722 0.446878 0.290925 -0.748874
O6    O     O_3   0.140080 0.655929 0.883290 -0.749133
O7    O     O_3   0.329715 0.140835 0.095037 -0.742058
O8    O     O_3   0.545552 0.740977 0.702094 -0.746574
O9    O     O_3   0.749275 0.946885 0.209078 -0.748913
O10   O     O_3   0.359920 0.155927 0.616714 -0.749096
O11   O     O_3   0.170290 0.640835 0.404968 -0.742044
O12   O     O_3   0.859922 0.655956 0.116659 -0.749237
O13   O     O_3   0.954446 0.240979 0.797905 -0.746578
O14   O     O_3   0.250716 0.053118 0.209070 -0.748904
O15   O     O_3   0.640081 0.844079 0.616726 -0.749084
O16   O     O_3   0.829715 0.359168 0.404968 -0.742046
O17   O     O_3   0.045553 0.759024 0.797906 -0.746610
O18   O     O_3   0.749283 0.053119 0.790929 -0.748901
O19   O     O_3   0.359920 0.844079 0.383275 -0.749075
O20   O     O_3   0.170286 0.359166 0.595035 -0.742050
O21   O     O_3   0.954445 0.759028 0.202093 -0.746663
O22   O     O_3   0.250718 0.946882 0.790929 -0.748898
O23   O     O_3   0.670287 0.140834 0.904965 -0.742056
O24   O     O_3   0.640077 0.155939 0.383304 -0.749030
O25   O     O_3   0.829711 0.640836 0.595034 -0.742044
O26   O     O_3   0.045553 0.240977 0.202094 -0.746587
O27   O     O_3   0.454447 0.740979 0.297905 -0.746568
O28   O     O_3   0.750718 0.553119 0.709070 -0.748893
O29   O     O_3   0.140080 0.344073 0.116713 -0.749108
O30   O     O_3   0.329715 0.859166 0.904964 -0.742057
O31   O     O_3   0.545558 0.259019 0.297904 -0.746566
O32   O     O_3   0.249282 0.553120 0.290929 -0.748892

loop_
_geom_bond_atom_site_label_1
_geom_bond_atom_site_label_2
_ccdc_geom_bond_type
C27   C48   S    
H60   O25   S    
C94   O24   S    
C37   C74   A    
C6    N6    A    
C28   C47   S    
H58   O22   S    
H32   O29   S    
C31   C85   A    
N27   Ni4   S    
C24   N24   A    
C26   N26   A    
N12   Ni2   S    
H30   O27   S    
N22   Ni6   S    
N6    Ni1   S    
N2    N30   A    
C31   C52   S    
C30   C90   A    
N5    Ni2   S    
C18   H18   S    
C22   C57   A    
C37   C62   A    
C52   C89   A    
C67   N30   A    
C17   H17   S    
H38   O3    S    
C12   N12   A    
C24   C55   A    
C21   N21   A    
C39   C64   A    
C73   O3    S    
C42   C75   A    
C68   C96   A    
N9    Ni5   S    
C92   O21   S    
C70   C94   A    
N9    N26   A    
C29   C83   A    
C69   C93   A    
C77   O7    S    
C23   H23   S    
H48   O13   S    
C35   C86   A    
C28   C80   A    
C12   H12   S    
C13   C57   A    
C9    H9    S    
C79   O8    S    
C42   C70   A    
C65   O27   S    
C22   H22   S    
C16   C60   A    
C91   O20   S    
C70   O31   S    
N15   Ni5   S    
C29   C88   A    
C13   H13   S    
C8    N8    A    
C17   C61   A    
C56   N29   A    
C9    N9    A    
C43   C53   S    
N16   N19   A    
C76   O6    S    
C63   C92   A    
C21   H21   S    
C39   C72   A    
C4    N4    A    
C27   C91   A    
C93   O22   S    
C19   H19   S    
C56   H56   S    
C36   C63   A    
H52   O17   S    
C63   O12   S    
H50   O15   S    
N30   Ni4   S    
H41   O6    S    
C71   C82   A    
C16   N16   A    
C87   O17   S    
C81   O10   S    
C1    N1    A    
C43   C69   A    
C7    H7    S    
N13   Ni8   S    
C45   H45   S    
C33   C46   S    
N26   Ni8   S    
H59   O24   S    
N7    Ni3   S    
N16   Ni8   S    
C52   C78   A    
H36   O32   S    
N14   N21   A    
C89   N32   A    
C83   O13   S    
C3    C50   A    
C84   O14   S    
H44   O9    S    
N11   Ni7   S    
C29   C50   S    
H29   O23   S    
C65   C90   A    
C14   C58   A    
C5    C48   A    
C5    H5    S    
N14   Ni6   S    
C23   C47   A    
C6    C47   A    
H27   O1    S    
C24   H24   S    
C40   C68   A    
N31   N32   A    
C72   C83   A    
C7    C46   A    
C15   H15   S    
N11   N24   A    
C27   C81   A    
C25   C54   A    
C41   C60   S    
C20   N20   A    
H51   O16   S    
C36   C73   A    
C1    H1    S    
C20   H20   S    
C28   C92   A    
H47   O11   S    
H28   O12   S    
C77   C84   A    
C39   C58   S    
H33   O30   S    
C45   N28   A    
C50   C56   A    
C40   C61   S    
H49   O14   S    
C64   O23   S    
C96   O26   S    
C30   C82   A    
C13   N13   A    
C95   O25   S    
C62   O1    S    
H57   O21   S    
N20   Ni8   S    
N29   Ni1   S    
C75   C86   A    
N23   Ni3   S    
C38   C65   A    
C45   C49   A    
H54   O19   S    
C1    C44   A    
C62   C91   A    
N2    Ni2   S    
C90   O19   S    
N1    Ni1   S    
N3    N29   A    
C51   C67   A    
N25   Ni7   S    
C20   C59   A    
C35   C44   S    
C8    H8    S    
C76   C87   A    
C2    H2    S    
C23   N23   A    
C41   C66   A    
C25   N25   A    
H61   O26   S    
C12   C46   A    
N7    N12   A    
C32   C96   A    
N18   Ni5   S    
N13   N22   A    
C36   C57   S    
C5    N5    A    
C4    H4    S    
C11   H11   S    
H31   O28   S    
C10   H10   S    
C34   C48   A    
N5    N27   A    
H46   O10   S    
C74   C81   A    
N21   Ni7   S    
C26   C53   A    
C19   N19   A    
C11   N11   A    
C79   C85   A    
C11   C55   A    
C68   O29   S    
C16   H16   S    
C89   H64   S    
C72   O2    S    
C82   O11   S    
C35   C94   A    
H35   O31   S    
H37   O2    S    
C14   H14   S    
C7    N7    A    
C38   C71   A    
N31   Ni3   S    
C40   C77   A    
C15   C59   A    
C30   C49   S    
N6    N23   A    
C8    C44   A    
C32   C84   A    
N4    N28   A    
C33   C93   A    
C41   C79   A    
N4    Ni3   S    
H42   O7    S    
C18   C61   A    
H39   O4    S    
N19   Ni6   S    
C3    N3    A    
C19   C60   A    
C10   N10   A    
C15   N15   A    
C4    C49   A    
N32   Ni1   S    
C85   O15   S    
C78   N31   A    
C21   C58   A    
C22   N22   A    
C69   O30   S    
C32   C51   S    
N10   Ni6   S    
C75   O5    S    
H40   O5    S    
C74   O4    S    
N3    Ni4   S    
N24   Ni5   S    
C31   C95   A    
N10   N25   A    
C80   O9    S    
C73   C80   A    
C88   O18   S    
C66   C95   A    
C67   H62   S    
H53   O18   S    
C6    H6    S    
C33   C87   A    
C34   N27   A    
C10   C54   A    
C86   O16   S    
N1    N8    A    
C2    C51   A    
N17   Ni7   S    
N15   N20   A    
N28   Ni2   S    
C38   C59   S    
C37   C55   S    
C3    H3    S    
C78   H63   S    
C9    C53   A    
C34   H34   S    
C14   N14   A    
N17   N18   A    
N8    Ni4   S    
C66   O28   S    
H43   O8    S    
H55   O20   S    
C43   C76   A    
C17   N17   A    
C26   H26   S    
C71   O32   S    
C25   H25   S    
C64   C88   A    
C42   C54   S    
C2    N2    A    
C18   N18   A    
