data_mof_unit_15249.cif
_audit_creation_date              2012-12-10T18:57:48-0500
_audit_creation_method            fapswitch 2.2
_symmetry_space_group_name_H-M    P1
_symmetry_Int_Tables_number       1
_space_group_crystal_system       triclinic
_cell_length_a                    10.66508
_cell_length_b                    10.074154
_cell_length_c                    8.853793
_cell_angle_alpha                 91.522259
_cell_angle_beta                  93.120709
_cell_angle_gamma                 88.993886
_cell_volume                      949.396586213

loop_
_atom_site_label
_atom_site_type_symbol
_atom_type_description
_atom_site_fract_x
_atom_site_fract_y
_atom_site_fract_z
_atom_type_partial_charge
C1    C     C_R   0.260591 0.500762 0.499570 0.832278
C2    C     C_R   0.739246 0.499337 0.501243 0.838561
C3    C     C_R   0.499409 0.498918 0.219446 0.930016
C4    C     C_R   0.500181 0.501084 0.780533 0.924906
C5    C     C_1   0.499314 0.498388 0.065588 -0.216661
C6    C     C_1   0.499571 0.501521 0.934351 -0.225896
C7    C     C_R   0.061174 0.409378 0.407397 -0.190742
C8    C     C_R   0.937974 0.590926 0.594838 -0.200339
C9    C     C_R   0.932481 0.408679 0.407815 -0.217219
C10   C     C_R   0.066961 0.591332 0.594478 -0.197574
C11   C     C_R   0.871863 0.498914 0.502044 -0.001009
C12   C     C_R   0.127659 0.501454 0.499611 0.002829
C13   C     C_R   0.579220 0.072329 0.598988 0.143981
C14   C     C_R   0.423397 0.928055 0.400623 0.161950
C15   C     C_R   0.436790 0.068270 0.387011 0.118750
C16   C     C_R   0.574136 0.929357 0.604377 0.120942
H1    H     H_    0.108058 0.339446 0.334309 0.128864
H2    H     H_    0.890031 0.660348 0.668471 0.131633
H3    H     H_    0.880359 0.339392 0.333918 0.136474
H4    H     H_    0.119274 0.659056 0.669763 0.147086
N1    N     N_R   0.500000 0.857200 0.500000 -0.138219
N2    N     N_R   0.500000 0.142800 0.500000 -0.136766
O1    O     O_R   0.316770 0.614620 0.499990 -0.628208
O2    O     O_R   0.683230 0.385380 0.500010 -0.646699
O3    O     O_R   0.683230 0.614620 0.500010 -0.631403
O4    O     O_R   0.316770 0.385380 0.499990 -0.616174
O5    O     O_R   0.500010 0.614640 0.285340 -0.630822
O6    O     O_R   0.499990 0.385360 0.714660 -0.632472
O7    O     O_R   0.499990 0.614640 0.714660 -0.630035
O8    O     O_R   0.500010 0.385360 0.285340 -0.629250
Zn1   Zn    Zn3+2 0.500000 0.653120 0.500000 0.899900
Zn2   Zn    Zn3+2 0.500000 0.346880 0.500000 0.905104
C17   C     C_3   0.690192 0.142007 0.679774 -0.376133
C18   C     C_3   0.804421 0.143580 0.580232 -0.307037
C19   C     C_3   0.881663 0.015380 0.577791 -0.935479
H5    H     H_    0.918482 0.991521 0.693749 0.255006
H6    H     H_    0.825972 0.932175 0.526313 0.272890
H7    H     H_    0.962278 0.029805 0.506718 0.258252
H8    H     H_    0.773292 0.164719 0.461417 0.239456
H9    H     H_    0.867691 0.224011 0.623771 0.224985
H10   H     H_    0.665517 0.244593 0.708678 0.228138
H11   H     H_    0.716761 0.102831 0.792785 0.168176
C20   C     C_3   0.308565 0.863253 0.324458 -0.362402
C21   C     C_3   0.189373 0.886596 0.414282 -0.328095
C22   C     C_3   0.213181 0.907246 0.586064 -0.809631
H12   H     H_    0.278574 0.830863 0.634208 0.279016
H13   H     H_    0.252876 0.006960 0.612133 0.247560
H14   H     H_    0.123793 0.900981 0.643204 0.225027
H15   H     H_    0.137792 0.975212 0.370488 0.187772
H16   H     H_    0.126180 0.800936 0.392331 0.220105
H17   H     H_    0.288182 0.898669 0.208259 0.135657
H18   H     H_    0.324954 0.756998 0.304409 0.237861
C23   C     C_3   0.423593 0.116873 0.225801 -0.364097
C24   C     C_3   0.298534 0.188244 0.185420 -0.312815
C25   C     C_3   0.278558 0.203757 0.014602 -0.917528
H19   H     H_    0.358394 0.256611 0.969595 0.282949
H20   H     H_    0.270072 0.104784 0.956854 0.256409
H21   H     H_    0.190821 0.261830 0.989250 0.250932
H22   H     H_    0.219048 0.132018 0.225390 0.201059
H23   H     H_    0.296690 0.287772 0.239857 0.251546
H24   H     H_    0.506298 0.174363 0.199852 0.218849
H25   H     H_    0.433786 0.031466 0.145191 0.162584
C26   C     C_3   0.641674 0.859889 0.736400 -0.366777
C27   C     C_3   0.568943 0.879049 0.880924 -0.375933
C28   C     C_3   0.643235 0.824200 0.018425 -0.868114
H26   H     H_    0.669525 0.718423 0.998078 0.268753
H27   H     H_    0.730013 0.882155 0.042530 0.247782
H28   H     H_    0.585373 0.831895 0.118895 0.261780
H29   H     H_    0.549515 0.986343 0.903045 0.207426
H30   H     H_    0.476962 0.829000 0.866806 0.244603
H31   H     H_    0.659456 0.755089 0.711105 0.249982
H32   H     H_    0.738188 0.894600 0.758731 0.185703

loop_
_geom_bond_atom_site_label_1
_geom_bond_atom_site_label_2
_ccdc_geom_bond_type
C21   H15   S    
O3    Zn1   S    
C3    O8    A    
O8    Zn2   S    
C25   H19   S    
O2    Zn2   S    
O4    Zn2   S    
C16   N1    A    
C16   C26   S    
C27   H30   S    
N1    Zn1   S    
C23   H25   S    
C19   H5    S    
C14   C15   A    
C20   C21   S    
C28   H28   S    
C17   H10   S    
C27   C28   S    
C3    C5    S    
C3    O5    A    
C17   C18   S    
O7    Zn1   S    
C24   H23   S    
C27   H29   S    
C21   C22   S    
C13   C17   S    
C9    C11   A    
C20   H17   S    
C5    C6    T    
C1    C12   S    
N2    Zn2   S    
C8    C11   A    
C18   H9    S    
C17   H11   S    
C10   C12   A    
C14   N1    A    
C8    C10   A    
C19   H6    S    
C26   H31   S    
C13   N2    A    
C1    O1    A    
C2    O3    A    
C24   H22   S    
C25   H20   S    
C2    O2    A    
C7    C12   A    
C18   C19   S    
C20   H18   S    
C1    O4    A    
C2    C11   S    
O5    Zn1   S    
C26   C27   S    
C15   C23   S    
O6    Zn2   S    
C19   H7    S    
C22   H13   S    
C26   H32   S    
C4    C6    S    
C28   H26   S    
C13   C16   A    
C21   H16   S    
C7    C9    A    
C25   H21   S    
C24   C25   S    
C22   H14   S    
C4    O6    A    
C22   H12   S    
C23   H24   S    
C18   H8    S    
C9    H3    S    
C15   N2    A    
C8    H2    S    
C4    O7    A    
C23   C24   S    
C10   H4    S    
C14   C20   S    
C28   H27   S    
O1    Zn1   S    
C7    H1    S    
