data_mof_unit_36368.cif
_audit_creation_date              2012-12-11T16:56:18-0500
_audit_creation_method            fapswitch 2.2
_symmetry_space_group_name_H-M    P1
_symmetry_Int_Tables_number       1
_space_group_crystal_system       triclinic
_cell_length_a                    6.979932
_cell_length_b                    14.527494
_cell_length_c                    16.21442
_cell_angle_alpha                 90.43426
_cell_angle_beta                  90.048479
_cell_angle_gamma                 90.010814
_cell_volume                      1644.10926518

loop_
_atom_site_label
_atom_site_type_symbol
_atom_type_description
_atom_site_fract_x
_atom_site_fract_y
_atom_site_fract_z
_atom_type_partial_charge
O1    O     O_R   0.505830 0.583360 0.413880 -0.538781
O2    O     O_R   0.175830 0.595460 0.585520 -0.547381
O3    O     O_R   0.005520 0.416640 0.586120 -0.536822
C1    C     C_R   0.345210 0.618857 0.613176 0.692952
O4    O     O_R   0.176120 0.594390 0.414490 -0.544992
O5    O     O_R   0.005810 0.415570 0.413870 -0.539430
C2    C     C_R   0.344915 0.616296 0.386030 0.694438
O6    O     O_R   0.505540 0.584430 0.586130 -0.542006
O7    O     O_3   0.339200 0.441330 0.500000 -0.362700
V1    V     V_3+5 0.064350 0.510880 0.500000 1.395553
O8    O     O_R   0.676100 0.404540 0.414480 -0.537778
C3    C     C_R   0.845057 0.382468 0.385871 0.703229
O9    O     O_R   0.675810 0.405610 0.585510 -0.535828
C4    C     C_R   0.845431 0.381535 0.611656 0.701147
V2    V     V_3+5 0.564340 0.489120 0.500000 1.414591
O10   O     O_3   0.839360 0.558670 0.500000 -0.382500
C5    C     C_2   0.725524 0.209019 0.785740 -0.096780
C6    C     C_2   0.884618 0.187490 0.828506 -0.291004
H1    H     H_    0.591378 0.174611 0.799672 0.158887
H2    H     H_    0.015780 0.226054 0.819306 0.135679
C7    C     C_2   0.719230 0.283934 0.723519 -0.175940
C8    C     C_2   0.862386 0.304574 0.670497 -0.192080
H3    H     H_    0.586292 0.322616 0.720261 0.143872
C9    C     C_R   0.733384 0.178464 0.245041 0.118038
C10   C     C_R   0.882980 0.180355 0.187512 -0.140772
C11   C     C_R   0.031551 0.244272 0.201751 -0.189666
H4    H     H_    0.152228 0.247431 0.160108 0.131137
C12   C     C_R   0.020077 0.308838 0.266944 -0.172617
H5    H     H_    0.132737 0.359527 0.273510 0.126682
C13   C     C_R   0.859050 0.311911 0.319517 -0.099828
C14   C     C_R   0.720928 0.242838 0.308979 0.058738
C15   C     C_3   0.508086 0.249190 0.302210 -0.450339
C16   C     C_3   0.521615 0.178372 0.232274 0.036753
H6    H     H_    0.461446 0.318148 0.280929 0.153856
H7    H     H_    0.434602 0.224162 0.358568 0.186225
H8    H     H_    0.478575 0.204294 0.170649 0.133955
C17   C     C_R   0.524675 0.696659 0.728757 0.080765
C18   C     C_R   0.356969 0.686500 0.682344 -0.063438
C19   C     C_R   0.203334 0.744302 0.702759 -0.181799
H9    H     H_    0.080684 0.745179 0.663215 0.127474
C20   C     C_R   0.214164 0.806446 0.769774 -0.152878
H10   H     H_    0.098677 0.853968 0.780485 0.131615
C21   C     C_R   0.379309 0.812894 0.818931 -0.093769
C22   C     C_R   0.535632 0.758101 0.795846 0.020762
C23   C     C_3   0.731225 0.789435 0.771901 -0.232989
C24   C     C_3   0.717509 0.724034 0.697704 -0.018544
H11   H     H_    0.838244 0.768014 0.818639 0.108881
H12   H     H_    0.819500 0.665247 0.698837 0.109951
C25   C     C_R   0.505517 0.680697 0.259724 0.087571
C26   C     C_R   0.353101 0.681608 0.316016 -0.099763
C27   C     C_R   0.203373 0.744449 0.301154 -0.176533
H13   H     H_    0.081611 0.747392 0.342222 0.128802
C28   C     C_R   0.215275 0.808545 0.236395 -0.145675
H14   H     H_    0.101950 0.858689 0.229595 0.119807
C29   C     C_R   0.376792 0.811597 0.184190 -0.110125
C30   C     C_R   0.517161 0.743971 0.195548 0.066815
C31   C     C_3   0.728375 0.754154 0.205638 -0.223737
C32   C     C_3   0.716109 0.684298 0.275144 -0.431758
H15   H     H_    0.771076 0.824417 0.225992 0.124097
H16   H     H_    0.749786 0.714239 0.336754 0.167757
H17   H     H_    0.786499 0.617063 0.261930 0.167028
O11   O     O_R   0.229930 0.912420 0.917160 -0.539668
O12   O     O_R   0.559420 0.902500 0.088780 -0.540968
O13   O     O_R   0.729660 0.081330 0.089380 -0.532046
C33   C     C_R   0.390468 0.880998 0.117586 0.730055
O14   O     O_R   0.559650 0.901420 0.917750 -0.540589
O15   O     O_R   0.729880 0.080250 0.917130 -0.538132
C34   C     C_R   0.390890 0.880409 0.888211 0.706795
O16   O     O_R   0.229700 0.913500 0.089410 -0.536184
O17   O     O_3   0.396250 0.055540 0.003280 -0.374128
V3    V     V_3+5 0.671130 0.986010 0.003260 1.455915
O18   O     O_R   0.059600 0.091310 0.917720 -0.545934
C35   C     C_R   0.890665 0.114389 0.890936 0.759619
O19   O     O_R   0.059370 0.092380 0.088750 -0.545164
C36   C     C_R   0.890696 0.114441 0.117323 0.690292
V4    V     V_3+5 0.171120 0.007820 0.003230 1.436832
O20   O     O_3   0.896130 0.938240 0.003240 -0.369830
N1    N     N_3   0.436336 0.089106 0.252070 -0.651770
H18   H     H_    0.480425 0.067905 0.310656 0.235623
H19   H     H_    0.287740 0.097510 0.254333 0.239283
C37   C     C_1   0.739097 0.888673 0.751864 0.384421
N2    N     N_1   0.745299 0.966171 0.736078 -0.360381
N3    N     N_3   0.704832 0.770374 0.617519 -0.632230
H20   H     H_    0.824645 0.812380 0.609483 0.226719
H21   H     H_    0.714491 0.720503 0.571070 0.245529
C38   C     C_1   0.832885 0.720186 0.132808 0.364608
N4    N     N_1   0.915396 0.693666 0.075496 -0.370128
C39   C     C_1   0.033789 0.248443 0.664254 0.340627
N5    N     N_1   0.170696 0.203835 0.658918 -0.357975

loop_
_geom_bond_atom_site_label_1
_geom_bond_atom_site_label_2
_ccdc_geom_bond_type
O14   C34   A    
C29   C30   A    
O12   C33   A    
C20   H10   S    
C1    O6    A    
C37   N2    T    
C19   C20   A    
C28   H14   S    
C31   C38   S    
C11   H4    S    
O19   V4    S    
C12   H5    S    
O5    C3    A    
C18   C19   A    
N1    H19   S    
C16   N1    S    
C31   H15   S    
C32   H16   S    
V2    O10   S    
C16   H8    S    
C30   C31   S    
O16   V4    S    
O13   V3    S    
O8    V2    S    
N3    H20   S    
C21   C34   S    
O17   V3    S    
O15   C35   A    
C8    C39   S    
O7    V1    S    
O15   V3    S    
O18   V4    S    
C32   H17   S    
C23   H11   S    
O9    C4    A    
C20   C21   A    
O11   V4    S    
C29   C33   S    
C5    C6    D    
C28   C29   A    
C24   H12   S    
O19   C36   A    
C27   H13   S    
C15   H7    S    
C9    C10   A    
C19   H9    S    
O4    C2    A    
C38   N4    T    
C10   C11   A    
C23   C24   S    
C5    C7    S    
C25   C32   S    
C10   C36   S    
C15   H6    S    
O2    C1    A    
C21   C22   A    
C17   C18   A    
O14   V3    S    
C26   C27   A    
V4    O20   S    
O3    C4    A    
O1    V2    S    
N3    H21   S    
O12   V3    S    
C6    C35   S    
O9    V2    S    
O17   V4    S    
O2    V1    S    
V3    O20   S    
C22   C23   S    
C3    C13   S    
O1    C2    A    
C14   C15   S    
C23   C37   S    
C2    C26   S    
C1    C18   S    
O18   C35   A    
O5    V1    S    
O8    C3    A    
O6    V2    S    
C25   C30   A    
C11   C12   A    
C9    C16   S    
O11   C34   A    
C15   C16   S    
C4    C8    S    
C17   C22   A    
C7    H3    S    
O7    V2    S    
C9    C14   A    
O4    V1    S    
O3    V1    S    
V1    O10   S    
N1    H18   S    
C31   C32   S    
C13   C14   A    
C33   O16   A    
C12   C13   A    
C5    H1    S    
O13   C36   A    
C6    H2    S    
C24   N3    S    
C39   N5    T    
C25   C26   A    
C27   C28   A    
C17   C24   S    
C7    C8    D    
