data_mof_unit_23911.cif
_audit_creation_date              2012-12-11T16:33:24-0500
_audit_creation_method            fapswitch 2.2
_symmetry_space_group_name_H-M    P1
_symmetry_Int_Tables_number       1
_space_group_crystal_system       triclinic
_cell_length_a                    6.949179
_cell_length_b                    18.174688
_cell_length_c                    20.282056
_cell_angle_alpha                 68.351617
_cell_angle_beta                  90.54332
_cell_angle_gamma                 90.795049
_cell_volume                      2380.66900786

loop_
_atom_site_label
_atom_site_type_symbol
_atom_type_description
_atom_site_fract_x
_atom_site_fract_y
_atom_site_fract_z
_atom_type_partial_charge
O1    O     O_R   0.488960 0.443750 0.941980 -0.539611
O2    O     O_R   0.823890 0.406510 0.087590 -0.537581
O3    O     O_R   0.999680 0.556250 0.058020 -0.535465
C1    C     C_R   0.654906 0.383664 0.114990 0.785330
O4    O     O_R   0.818360 0.434410 0.944340 -0.539681
O5    O     O_R   0.994110 0.584350 0.913750 -0.536671
C2    C     C_R   0.648875 0.420376 0.923894 0.711426
O6    O     O_R   0.494530 0.415650 0.086250 -0.533602
O7    O     O_3   0.662590 0.549160 0.990130 -0.362023
V1    V     V_3+5 0.935320 0.490880 0.001830 1.444864
O8    O     O_R   0.324180 0.593490 0.912410 -0.539326
C3    C     C_R   0.155299 0.617197 0.885599 0.689558
O9    O     O_R   0.329720 0.565590 0.055660 -0.530475
C4    C     C_R   0.162087 0.579557 0.076154 0.716849
V2    V     V_3+5 0.435990 0.509120 0.998170 1.453661
O10   O     O_3   0.158850 0.450840 0.009870 -0.371259
C5    C     C_3   0.076168 0.704568 0.313489 0.184915
C6    C     C_3   0.256287 0.693328 0.275212 0.152873
C7    C     C_1   0.155255 0.625054 0.121613 -0.197891
C8    C     C_1   0.109472 0.877113 0.376441 -0.208915
C9    C     C_3   0.953064 0.719386 0.245712 -0.182694
C10   C     C_3   0.137388 0.708527 0.207002 0.062188
C11   C     C_3   0.999936 0.810239 0.222240 -0.254630
C12   C     C_3   0.121778 0.793639 0.291054 0.073860
C13   C     C_3   0.182633 0.797611 0.184636 0.168810
C14   C     C_3   0.301740 0.782014 0.252331 0.196008
C15   C     C_1   0.147715 0.662682 0.160053 0.027269
C16   C     C_1   0.114823 0.839480 0.338007 0.013166
C17   C     C_R   0.116067 0.776372 0.879182 -0.179933
C18   C     C_R   0.098952 0.851801 0.880015 -0.183986
C19   C     C_R   0.090365 0.917313 0.816821 0.226688
C20   C     C_R   0.098458 0.907021 0.751236 0.159615
C21   C     C_R   0.113857 0.829042 0.748892 0.000960
C22   C     C_R   0.124684 0.763263 0.814853 0.033555
C23   C     C_R   0.119647 0.814688 0.683765 -0.164796
C24   C     C_R   0.140862 0.735296 0.685601 0.052662
C25   C     C_R   0.156138 0.671394 0.752537 -0.022975
C26   C     C_R   0.145837 0.685281 0.816502 -0.126183
C27   C     C_R   0.148290 0.716280 0.623012 0.151634
C28   C     C_R   0.173457 0.638003 0.627988 -0.177567
C29   C     C_R   0.190744 0.576543 0.693488 0.232451
C30   C     C_R   0.181615 0.593265 0.754880 -0.152180
C31   C     C_R   0.578140 0.095905 0.248944 0.170939
C32   C     C_R   0.558073 0.086913 0.183546 -0.153756
C33   C     C_R   0.564049 0.151726 0.120682 -0.144274
C34   C     C_R   0.591617 0.226887 0.121701 -0.140404
C35   C     C_R   0.612708 0.239588 0.186333 0.012341
C36   C     C_R   0.603752 0.173458 0.251922 0.050440
C37   C     C_R   0.643518 0.317370 0.185017 -0.131594
C38   C     C_R   0.664813 0.331454 0.249535 -0.026295
C39   C     C_R   0.658074 0.265682 0.316134 -0.021191
C40   C     C_R   0.622977 0.186762 0.317093 -0.155494
C41   C     C_R   0.692922 0.409932 0.249603 0.124492
C42   C     C_R   0.731267 0.421918 0.312726 0.185506
C43   C     C_R   0.729136 0.358601 0.377290 0.138099
C44   C     C_R   0.687326 0.281455 0.379944 0.107711
O11   O     O_R   0.770540 0.084530 0.414050 -0.531056
O12   O     O_R   0.445710 0.065660 0.555720 -0.535413
O13   O     O_R   0.270420 0.915650 0.586190 -0.532046
C45   C     C_R   0.614457 0.077138 0.578435 0.747042
O14   O     O_R   0.441140 0.093540 0.412470 -0.536441
O15   O     O_R   0.265820 0.943740 0.441930 -0.531715
C46   C     C_R   0.610560 0.117689 0.385644 0.881966
O16   O     O_R   0.775150 0.056440 0.558310 -0.534051
O17   O     O_3   0.602370 0.950960 0.510050 -0.368358
V3    V     V_3+5 0.329450 0.009140 0.498150 1.469911
O18   O     O_R   0.935790 0.934280 0.444060 -0.532179
C47   C     C_R   0.103227 0.922317 0.422107 0.750166
O19   O     O_R   0.940370 0.906390 0.587310 -0.534724
C48   C     C_R   0.109339 0.882557 0.614474 0.874675
V4    V     V_3+5 0.828810 0.990710 0.501460 1.475060
O20   O     O_3   0.105780 0.049100 0.489960 -0.372324
C49   C     C_3   0.696069 0.319980 0.715742 0.176019
C50   C     C_3   0.514443 0.284305 0.693716 -0.173881
C51   C     C_1   0.623303 0.122417 0.624110 -0.217098
C52   C     C_1   0.638968 0.374667 0.878606 -0.172575
C53   C     C_3   0.811676 0.243773 0.728748 -0.113762
C54   C     C_3   0.627882 0.206612 0.709033 0.049780
C55   C     C_3   0.740399 0.213414 0.806310 0.185954
C56   C     C_3   0.631593 0.290504 0.793540 0.084563
C57   C     C_3   0.560436 0.173945 0.787494 -0.186822
C58   C     C_3   0.453944 0.252655 0.772554 0.174383
C59   C     C_1   0.626514 0.160342 0.662380 -0.021276
C60   C     C_1   0.634464 0.336723 0.840344 -0.000978
H1    H     H_    0.503824 0.113566 0.817894 0.139048
N1    N     N_3   0.396279 0.630597 0.304275 -0.659724
H2    H     H_    0.448705 0.633885 0.351580 0.242631
H3    H     H_    0.322084 0.576689 0.317617 0.218517
N2    N     N_3   0.075572 0.995554 0.818280 -0.678985
H4    H     H_    0.093478 0.994125 0.869990 0.221700
H5    H     H_    0.935558 0.015069 0.802732 0.222050
N3    N     N_3   0.094349 0.976733 0.687815 -0.667223
H6    H     H_    0.209902 0.013662 0.689126 0.249447
H7    H     H_    0.966225 0.006654 0.686587 0.232397
N4    N     N_3   0.129925 0.775083 0.553384 -0.687955
H8    H     H_    0.253568 0.773765 0.524844 0.226610
H9    H     H_    0.011847 0.759875 0.528461 0.230319
H10   H     H_    0.179498 0.625357 0.579839 0.118692
H11   H     H_    0.195467 0.543616 0.804673 0.124009
N5    N     N_3   0.767443 0.374101 0.440740 -0.691171
H12   H     H_    0.648340 0.356619 0.474245 0.230616
H13   H     H_    0.887376 0.341776 0.466522 0.230415
N6    N     N_3   0.575135 0.024934 0.311108 -0.675575
H14   H     H_    0.687504 0.988862 0.307621 0.226592
H15   H     H_    0.445518 0.994870 0.311511 0.225860
H16   H     H_    0.538458 0.028496 0.181639 0.108365
H17   H     H_    0.548567 0.143656 0.070591 0.119584
H18   H     H_    0.596524 0.274970 0.070624 0.088650
N7    N     N_3   0.017599 0.653543 0.384616 -0.647975
H19   H     H_    0.007409 0.595821 0.385482 0.226321
H20   H     H_    0.129275 0.654201 0.419275 0.219326
N8    N     N_3   0.679715 0.479117 0.185911 -0.638843
H21   H     H_    0.809312 0.510880 0.178930 0.252097
H22   H     H_    0.569372 0.514744 0.191811 0.249531
N9    N     N_3   0.772518 0.500500 0.310289 -0.665192
H23   H     H_    0.911058 0.501095 0.330633 0.238230
H24   H     H_    0.674979 0.514042 0.342943 0.267909
N10   N     N_3   0.674302 0.219753 0.448324 -0.681347
H25   H     H_    0.805252 0.215956 0.475089 0.230624
H26   H     H_    0.564553 0.233153 0.476817 0.217683
H27   H     H_    0.420129 0.314430 0.647338 0.122283
N11   N     N_3   0.770658 0.399331 0.676854 -0.676027
H28   H     H_    0.797742 0.403345 0.625039 0.230213
H29   H     H_    0.660448 0.439019 0.673808 0.245731
N12   N     N_3   0.259151 0.257137 0.796363 -0.637944
H30   H     H_    0.224215 0.316985 0.779799 0.246929
H31   H     H_    0.261852 0.235033 0.851778 0.244372
N13   N     N_3   0.863356 0.175151 0.867612 -0.649760
H32   H     H_    0.915081 0.123467 0.863237 0.235905
H33   H     H_    0.776021 0.157676 0.912568 0.216263
H34   H     H_    0.960151 0.240428 0.710450 0.155869
N14   N     N_3   0.491509 0.815491 0.255273 -0.647078
H35   H     H_    0.575315 0.805018 0.217270 0.246874
H36   H     H_    0.476493 0.876808 0.238535 0.211075
N15   N     N_3   0.244423 0.848919 0.114040 -0.667564
H37   H     H_    0.258415 0.906176 0.114200 0.220948
H38   H     H_    0.132398 0.850186 0.078912 0.227555
H39   H     H_    0.898339 0.859826 0.198957 0.138799
H40   H     H_    0.809683 0.692250 0.244399 0.180370
N16   N     N_3   0.219555 0.496447 0.698843 -0.678054
H41   H     H_    0.225923 0.493492 0.648386 0.227931
H42   H     H_    0.098684 0.463329 0.723760 0.253652
H43   H     H_    0.123268 0.728194 0.930178 0.111162
H44   H     H_    0.092956 0.859087 0.930611 0.125016

loop_
_geom_bond_atom_site_label_1
_geom_bond_atom_site_label_2
_ccdc_geom_bond_type
C43   C44   A    
N9    H24   S    
C49   C50   S    
C11   H39   S    
N4    H8    S    
C6    C14   S    
C1    O6    A    
N13   H32   S    
C52   C60   T    
N8    H22   S    
C57   C58   S    
N15   H37   S    
C35   C37   A    
C53   C54   S    
C55   N13   S    
C6    N1    S    
C9    C10   S    
C24   C25   A    
C12   C14   S    
N7    H20   S    
O13   V3    S    
C28   H10   S    
C18   C19   A    
N1    H3    S    
O12   C45   A    
N9    H23   S    
C17   H43   S    
C18   H44   S    
O14   C46   A    
C39   C44   A    
C29   C30   A    
O16   V4    S    
C25   C30   A    
O19   V4    S    
N10   H25   S    
N5    H12   S    
C29   N16   S    
C42   C43   A    
O8    V2    S    
C54   C59   S    
O12   V3    S    
V3    O20   S    
C23   C24   A    
C23   C48   S    
N14   H35   S    
C19   N2    S    
C10   C13   S    
C34   H18   S    
C43   N5    S    
C11   C12   S    
O1    V2    S    
N2    H5    S    
C17   C18   A    
C7    C15   T    
C31   C36   A    
C56   C60   S    
O1    C2    A    
O9    C4    A    
C50   C58   S    
O14   V3    S    
N5    H13   S    
N8    H21   S    
O11   C46   A    
C31   N6    S    
N11   H28   S    
C53   C55   S    
C38   C41   A    
V2    O10   S    
O15   V3    S    
O18   C47   A    
C5    C12   S    
C35   C36   A    
N16   H41   S    
C56   C58   S    
C27   C28   A    
O4    C2    A    
N1    H2    S    
C8    C16   T    
C38   C39   A    
C13   C14   S    
O17   V4    S    
C17   C22   A    
C5    C9    S    
C39   C40   A    
C5    N7    S    
O2    C1    A    
C31   C32   A    
C58   N12   S    
C25   C26   A    
C19   C20   A    
C42   N9    S    
N3    H7    S    
C5    C6    S    
N6    H15   S    
O11   V4    S    
C27   N4    S    
O3    C4    A    
C41   N8    S    
C28   C29   A    
C37   C38   A    
O6    V2    S    
C10   C15   S    
O9    V2    S    
N12   H30   S    
C9    H40   S    
N11   H29   S    
O2    V1    S    
C14   N14   S    
C32   C33   A    
C55   C57   S    
O7    V1    S    
N15   H38   S    
C34   C35   A    
C22   C26   A    
C44   N10   S    
C4    C7    S    
C8    C47   S    
C24   C27   A    
C53   H34   S    
C12   C16   S    
N16   H42   S    
C40   C46   S    
N13   H33   S    
O5    V1    S    
O8    C3    A    
N4    H9    S    
C41   C42   A    
C2    C52   S    
C6    C10   S    
C32   H16   S    
C45   C51   S    
O15   C47   A    
C1    C37   S    
C45   O16   A    
C20   C21   A    
C9    C11   S    
O7    V2    S    
O4    V1    S    
O17   V3    S    
O3    V1    S    
V1    O10   S    
C30   H11   S    
O5    C3    A    
C54   C57   S    
C51   C59   T    
C20   N3    S    
N3    H6    S    
C21   C23   A    
C49   C56   S    
C21   C22   A    
O18   V4    S    
C11   C13   S    
C3    C26   S    
O19   C48   A    
C13   N15   S    
N10   H26   S    
O13   C48   A    
C55   C56   S    
C33   C34   A    
C36   C40   A    
C50   H27   S    
V4    O20   S    
N14   H36   S    
C49   N11   S    
C50   C54   S    
N6    H14   S    
N12   H31   S    
C49   C53   S    
N2    H4    S    
N7    H19   S    
C57   H1    S    
C33   H17   S    
