data_mof_unit_61180.cif
_audit_creation_date              2012-12-10T17:43:17-0500
_audit_creation_method            fapswitch 2.2
_symmetry_space_group_name_H-M    P1
_symmetry_Int_Tables_number       1
_space_group_crystal_system       triclinic
_cell_length_a                    37.162426
_cell_length_b                    30.383314
_cell_length_c                    21.56235
_cell_angle_alpha                 89.998926
_cell_angle_beta                  54.797548
_cell_angle_gamma                 89.99975
_cell_volume                      19893.9605617

loop_
_atom_site_label
_atom_site_type_symbol
_atom_type_description
_atom_site_fract_x
_atom_site_fract_y
_atom_site_fract_z
_atom_type_partial_charge
C1    C     C_R   0.914865 0.499981 0.585181 0.827743
C2    C     C_R   0.085134 0.499981 0.414820 0.827702
C3    C     C_R   0.414869 0.999980 0.585185 0.824844
C4    C     C_R   0.585131 0.999981 0.414816 0.824831
C5    C     C_3   0.974624 0.459041 0.238377 -0.386682
C6    C     C_3   0.025372 0.459038 0.761629 -0.386698
C7    C     C_3   0.469149 0.962749 0.244404 -0.383677
C8    C     C_3   0.530850 0.962748 0.755598 -0.383675
C9    C     C_R   0.797460 0.462728 0.723024 -0.148592
C10   C     C_R   0.202535 0.462768 0.276846 -0.148592
C11   C     C_R   0.297483 0.962819 0.723392 -0.149579
C12   C     C_R   0.702516 0.962837 0.276559 -0.149575
C13   C     C_R   0.843348 0.462568 0.676494 -0.116369
C14   C     C_R   0.156647 0.462606 0.323375 -0.116506
C15   C     C_R   0.343371 0.962673 0.676899 -0.128580
C16   C     C_R   0.656627 0.962689 0.323051 -0.128645
C17   C     C_R   0.866539 0.499992 0.633683 -0.019488
C18   C     C_R   0.133458 0.499993 0.366323 -0.019493
C19   C     C_R   0.366549 0.999983 0.633659 -0.020657
C20   C     C_R   0.633450 0.999985 0.366342 -0.020660
C21   C     C_R   0.843187 0.537445 0.637635 -0.166222
C22   C     C_R   0.156809 0.537408 0.362513 -0.166134
C23   C     C_R   0.343196 0.037306 0.637134 -0.156246
C24   C     C_R   0.656803 0.037294 0.362918 -0.156197
C25   C     C_R   0.797301 0.537338 0.683255 -0.156305
C26   C     C_R   0.202695 0.537301 0.316897 -0.156278
C27   C     C_R   0.297310 0.037184 0.682732 -0.155703
C28   C     C_R   0.702689 0.037172 0.317321 -0.155692
C29   C     C_R   0.774182 0.500042 0.726407 0.090735
C30   C     C_R   0.225814 0.500044 0.273603 0.090717
C31   C     C_R   0.274195 0.000005 0.726325 0.090919
C32   C     C_R   0.725804 0.000009 0.273676 0.090901
C33   C     C_R   0.702479 0.513169 0.744927 -0.154228
C34   C     C_R   0.297520 0.513082 0.255121 -0.154232
C35   C     C_R   0.202478 0.012930 0.744783 -0.152673
C36   C     C_R   0.797521 0.012889 0.255238 -0.152674
C37   C     C_R   0.656595 0.512865 0.790534 -0.175026
C38   C     C_R   0.343403 0.512780 0.209511 -0.175001
C39   C     C_R   0.156594 0.012641 0.790414 -0.175529
C40   C     C_R   0.843404 0.012599 0.209607 -0.175523
C41   C     C_R   0.633397 0.500045 0.866935 -0.032265
C42   C     C_R   0.366600 0.500046 0.133068 -0.032308
C43   C     C_R   0.133403 0.000024 0.866913 -0.031793
C44   C     C_R   0.866596 0.000025 0.133088 -0.031817
C45   C     C_R   0.998812 0.499955 0.381067 0.838875
C46   C     C_R   0.001188 0.499954 0.618933 0.838882
C47   C     C_R   0.499413 0.999971 0.380451 0.835253
C48   C     C_R   0.500588 0.999970 0.619549 0.835259
C49   C     C_R   0.656802 0.487231 0.896859 -0.171610
C50   C     C_R   0.343194 0.487319 0.103107 -0.171624
C51   C     C_R   0.156817 0.987395 0.896907 -0.169942
C52   C     C_R   0.843182 0.987440 0.103075 -0.169946
C53   C     C_R   0.702702 0.486907 0.850888 -0.157708
C54   C     C_R   0.297294 0.486997 0.149078 -0.157739
C55   C     C_R   0.202717 0.987067 0.850922 -0.158815
C56   C     C_R   0.797282 0.987115 0.149060 -0.158828
C57   C     C_R   0.725789 0.500036 0.774755 0.097480
C58   C     C_R   0.274207 0.500038 0.225253 0.097504
C59   C     C_R   0.225799 0.999994 0.774688 0.097533
C60   C     C_R   0.774200 0.999998 0.225313 0.097535
C61   C     C_R   0.000000 0.585128 1.000000 0.822327
C62   C     C_R   0.500000 0.085129 1.000000 0.822917
C63   C     C_R   0.000115 0.499879 0.120041 0.778888
C64   C     C_R   0.999885 0.499879 0.879958 0.778882
C65   C     C_R   0.500099 0.999475 0.120052 0.772233
C66   C     C_R   0.499901 0.999475 0.879948 0.772233
C67   C     C_R   0.000000 0.414953 0.000005 0.806756
C68   C     C_R   0.500000 0.915056 0.000000 0.795153
C69   C     C_R   0.500000 0.414880 0.000000 0.798607
C70   C     C_R   0.000000 0.914881 0.000000 0.798785
C71   C     C_R   0.585022 0.500004 0.915094 0.786181
C72   C     C_R   0.414977 0.500004 0.084907 0.786205
C73   C     C_R   0.085024 0.999995 0.915090 0.789758
C74   C     C_R   0.914976 0.999996 0.084911 0.789770
C75   C     C_R   0.500000 0.584844 1.000000 0.779751
C76   C     C_R   0.000000 0.085028 0.999999 0.787767
C77   C     C_R   0.040050 0.702829 0.957760 0.249623
C78   C     C_R   0.959953 0.702829 0.042241 0.249623
C79   C     C_R   0.540083 0.202835 0.959201 0.249849
C80   C     C_R   0.459919 0.202834 0.040801 0.249849
C81   C     C_3   0.976997 0.542194 0.307762 -0.404136
C82   C     C_3   0.023011 0.542189 0.692226 -0.404160
C83   C     C_3   0.484080 0.044963 0.300453 -0.395014
C84   C     C_3   0.515922 0.044961 0.699542 -0.395016
C85   C     C_R   0.039872 0.656924 0.957992 -0.206278
C86   C     C_R   0.960130 0.656924 0.042008 -0.206278
C87   C     C_R   0.539905 0.156929 0.959395 -0.206012
C88   C     C_R   0.460096 0.156929 0.040607 -0.206013
C89   C     C_R   0.000001 0.633599 1.000000 -0.145990
C90   C     C_R   0.500001 0.133603 0.000000 -0.146330
C91   C     C_R   0.000001 0.725998 0.000000 -0.061076
C92   C     C_R   0.500001 0.225999 0.000001 -0.061258
C93   C     C_R   0.499844 0.297144 0.056380 -0.084166
C94   C     C_R   0.500158 0.297145 0.943621 -0.084166
C95   C     C_R   0.998881 0.797149 0.057313 -0.084262
C96   C     C_R   0.001122 0.797150 0.942687 -0.084264
C97   C     C_R   0.499851 0.343020 0.056435 -0.172047
C98   C     C_R   0.500151 0.343021 0.943567 -0.172035
C99   C     C_R   0.998904 0.843025 0.057351 -0.172176
C100  C     C_R   0.001098 0.843026 0.942650 -0.172170
C101  C     C_R   0.500001 0.366405 0.000001 -0.039937
C102  C     C_R   0.000001 0.866408 0.000001 -0.039980
C103  C     C_R   0.500001 0.274184 0.000001 0.176877
C104  C     C_R   0.000002 0.774186 0.000000 0.176752
C105  C     C_R   0.025688 0.297254 0.017379 -0.154488
C106  C     C_R   0.974332 0.297257 0.982577 -0.154497
C107  C     C_R   0.510052 0.797572 0.044251 -0.162589
C108  C     C_R   0.489942 0.797573 0.955757 -0.162589
C109  C     C_R   0.026073 0.343258 0.017564 0.123285
C110  C     C_R   0.973937 0.343261 0.982418 0.123258
C111  C     C_R   0.510996 0.843568 0.043729 0.128815
C112  C     C_R   0.489000 0.843569 0.956276 0.128818
C113  C     C_R   0.000001 0.366614 0.000000 -0.042709
C114  C     C_R   0.499999 0.866908 0.000001 -0.009819
C115  C     C_3   0.977183 0.541841 0.236088 -0.385811
C116  C     C_3   0.022822 0.541838 0.763903 -0.385807
C117  C     C_3   0.483491 0.044282 0.229580 -0.390202
C118  C     C_3   0.516510 0.044282 0.770416 -0.390207
C119  C     C_R   0.000010 0.274168 0.999976 0.011528
C120  C     C_R   0.499997 0.774143 0.000004 0.015693
C121  C     C_R   0.470637 0.701723 0.991059 -0.153672
C122  C     C_R   0.529359 0.701723 0.008945 -0.153673
C123  C     C_R   0.002801 0.202494 0.941129 -0.160973
C124  C     C_R   0.997212 0.202496 0.058838 -0.160967
C125  C     C_R   0.471206 0.655873 0.989745 -0.180060
C126  C     C_R   0.528792 0.655873 0.010255 -0.180063
C127  C     C_R   0.002762 0.156678 0.941148 -0.179733
C128  C     C_R   0.997246 0.156681 0.058832 -0.179740
C129  C     C_R   0.500000 0.632844 0.999999 -0.017365
C130  C     C_R   0.000003 0.133378 0.999993 -0.033999
C131  C     C_R   0.499998 0.725292 0.000003 0.122533
C132  C     C_R   0.000008 0.225733 0.999981 0.122143
C133  C     C_3   0.047387 0.498744 0.239921 0.025611
C134  C     C_3   0.952613 0.498751 0.760078 0.025614
C135  C     C_3   0.547120 0.991328 0.239817 0.029015
C136  C     C_3   0.452880 0.991328 0.760183 0.029018
C137  C     C_3   0.973693 0.458745 0.310929 0.120446
C138  C     C_3   0.026300 0.458739 0.689079 0.120446
C139  C     C_3   0.468244 0.962951 0.316917 0.113083
C140  C     C_3   0.531754 0.962949 0.683086 0.113083
C141  C     C_3   0.998965 0.499629 0.311897 0.029222
C142  C     C_3   0.001036 0.499628 0.688102 0.029219
C143  C     C_3   0.499449 0.999604 0.311404 0.028255
C144  C     C_3   0.500552 0.999603 0.688596 0.028251
C145  C     C_3   0.000142 0.499751 0.188958 0.052173
C146  C     C_3   0.999858 0.499750 0.811041 0.052167
C147  C     C_3   0.500169 0.999349 0.188922 0.054613
C148  C     C_3   0.499831 0.999348 0.811078 0.054611
C149  C     C_3   0.047857 0.498176 0.167845 -0.363542
C150  C     C_3   0.952143 0.498180 0.832155 -0.363557
C151  C     C_3   0.547285 0.991152 0.168055 -0.364022
C152  C     C_3   0.452715 0.991151 0.831945 -0.364026
Cu1   Cu    Cu3+1 0.000000 0.544030 0.500000 0.956719
Cu2   Cu    Cu3+1 0.500000 0.044030 0.500000 0.957849
Cu3   Cu    Cu3+1 0.000000 0.455920 0.500000 1.066303
Cu4   Cu    Cu3+1 0.500000 0.955920 0.500000 1.068305
Cu5   Cu    Cu3+1 0.955920 0.499940 0.044070 0.961351
Cu6   Cu    Cu3+1 0.044080 0.499940 0.955930 0.961336
Cu7   Cu    Cu3+1 0.455920 0.999940 0.044070 0.968831
Cu8   Cu    Cu3+1 0.544080 0.999940 0.955930 0.968826
Cu9   Cu    Cu3+1 0.499970 0.499990 0.937550 0.963284
Cu10  Cu    Cu3+1 0.500030 0.499990 0.062450 0.963279
Cu11  Cu    Cu3+1 0.999970 0.999990 0.937550 0.959977
Cu12  Cu    Cu3+1 0.000030 0.999990 0.062450 0.959977
H1    H     H_    0.995133 0.571857 0.306046 0.180352
H2    H     H_    0.004882 0.571855 0.693931 0.180358
H3    H     H_    0.506773 0.071496 0.293609 0.177455
H4    H     H_    0.493231 0.071495 0.706382 0.177459
H5    H     H_    0.990647 0.428405 0.205515 0.142231
H6    H     H_    0.009348 0.428403 0.794497 0.142241
H7    H     H_    0.480620 0.930087 0.216511 0.148781
H8    H     H_    0.519379 0.930086 0.783494 0.148778
H9    H     H_    0.064761 0.468119 0.133671 0.213373
H10   H     H_    0.935237 0.468122 0.866329 0.213370
H11   H     H_    0.559913 0.959241 0.137511 0.209852
H12   H     H_    0.440087 0.959239 0.862491 0.209850
H13   H     H_    0.780095 0.433557 0.755649 0.144279
H14   H     H_    0.219900 0.433628 0.244111 0.144292
H15   H     H_    0.280127 0.933735 0.756351 0.144663
H16   H     H_    0.719872 0.933766 0.243557 0.144672
H17   H     H_    0.860666 0.433358 0.674592 0.178689
H18   H     H_    0.139328 0.433427 0.325165 0.178781
H19   H     H_    0.360702 0.933570 0.675365 0.178918
H20   H     H_    0.639297 0.933598 0.324545 0.178948
H21   H     H_    0.860371 0.566639 0.604905 0.153166
H22   H     H_    0.139623 0.566571 0.395356 0.153122
H23   H     H_    0.360381 0.066402 0.604044 0.154606
H24   H     H_    0.639617 0.066378 0.396047 0.154596
H25   H     H_    0.779816 0.566522 0.685577 0.135054
H26   H     H_    0.220181 0.566455 0.314687 0.135049
H27   H     H_    0.279822 0.066271 0.684697 0.135040
H28   H     H_    0.720177 0.066249 0.315396 0.135043
H29   H     H_    0.719816 0.523139 0.686102 0.141127
H30   H     H_    0.280184 0.522982 0.313979 0.141130
H31   H     H_    0.219805 0.022737 0.685883 0.142230
H32   H     H_    0.780194 0.022662 0.314154 0.142238
H33   H     H_    0.639300 0.523033 0.766192 0.156544
H34   H     H_    0.360698 0.522877 0.233886 0.156586
H35   H     H_    0.139297 0.022659 0.766004 0.155587
H36   H     H_    0.860702 0.022581 0.234033 0.155610
H37   H     H_    0.639658 0.477060 0.955541 0.156276
H38   H     H_    0.360335 0.477218 0.044393 0.156306
H39   H     H_    0.139682 0.977382 0.955662 0.155945
H40   H     H_    0.860316 0.977462 0.044304 0.155961
H41   H     H_    0.942626 0.545337 0.359132 0.213850
H42   H     H_    0.057384 0.545325 0.640857 0.213832
H43   H     H_    0.450758 0.053491 0.351249 0.217894
H44   H     H_    0.549245 0.053488 0.648746 0.217888
H45   H     H_    0.720222 0.476922 0.874920 0.140976
H46   H     H_    0.279773 0.477082 0.125015 0.140952
H47   H     H_    0.220240 0.977240 0.875022 0.139445
H48   H     H_    0.779757 0.977323 0.124945 0.139439
H49   H     H_    0.071005 0.639592 0.925178 0.193427
H50   H     H_    0.928997 0.639591 0.074822 0.193429
H51   H     H_    0.571065 0.139600 0.927681 0.193492
H52   H     H_    0.428936 0.139599 0.072320 0.193494
H53   H     H_    0.499724 0.279498 0.100159 0.142612
H54   H     H_    0.500278 0.279500 0.899843 0.142613
H55   H     H_    0.998010 0.779504 0.101819 0.142730
H56   H     H_    0.001993 0.779506 0.898181 0.142731
H57   H     H_    0.499730 0.360106 0.100625 0.158092
H58   H     H_    0.500272 0.360107 0.899377 0.158097
H59   H     H_    0.998021 0.860111 0.102279 0.158054
H60   H     H_    0.001981 0.860113 0.897722 0.158057
H61   H     H_    0.045923 0.279240 0.029987 0.141949
H62   H     H_    0.954099 0.279245 0.969963 0.141955
H63   H     H_    0.516843 0.780155 0.080273 0.147164
H64   H     H_    0.483150 0.780157 0.919736 0.147164
H65   H     H_    0.446775 0.718545 0.986012 0.131219
H66   H     H_    0.553220 0.718545 0.013994 0.131219
H67   H     H_    0.005538 0.219781 0.894649 0.135985
H68   H     H_    0.994477 0.219785 0.105315 0.135988
H69   H     H_    0.448460 0.638343 0.982530 0.142849
H70   H     H_    0.551539 0.638343 0.017469 0.142852
H71   H     H_    0.005103 0.139574 0.894886 0.158429
H72   H     H_    0.994903 0.139578 0.105098 0.158430
H73   H     H_    0.942658 0.543410 0.253187 0.204231
H74   H     H_    0.057347 0.543405 0.746806 0.204224
H75   H     H_    0.449363 0.050466 0.246769 0.202010
H76   H     H_    0.550638 0.050465 0.753228 0.202007
H77   H     H_    0.994591 0.571575 0.201201 0.161579
H78   H     H_    0.005417 0.571574 0.798783 0.161581
H79   H     H_    0.504660 0.071263 0.190328 0.162945
H80   H     H_    0.495341 0.071262 0.809665 0.162947
H81   H     H_    0.064466 0.529081 0.239118 0.144949
H82   H     H_    0.935541 0.529092 0.760877 0.144957
H83   H     H_    0.568708 0.018571 0.234776 0.137672
H84   H     H_    0.431293 0.018572 0.765222 0.137676
H85   H     H_    0.066973 0.527023 0.131849 0.169340
H86   H     H_    0.933029 0.527027 0.868150 0.169347
H87   H     H_    0.570118 0.017268 0.128693 0.172278
H88   H     H_    0.429883 0.017266 0.871306 0.172281
H89   H     H_    0.989937 0.428015 0.310938 0.188748
H90   H     H_    0.010049 0.428012 0.689082 0.188739
H91   H     H_    0.479634 0.930199 0.322089 0.189096
H92   H     H_    0.520363 0.930197 0.677920 0.189093
H93   H     H_    0.940533 0.459147 0.253397 0.220576
H94   H     H_    0.059464 0.459143 0.746605 0.220579
H95   H     H_    0.435357 0.967504 0.259271 0.223585
H96   H     H_    0.564642 0.967504 0.740731 0.223585
O1    O     O_R   0.935720 0.537180 0.564270 -0.599523
O2    O     O_R   0.064280 0.537180 0.435730 -0.599512
O3    O     O_R   0.435720 0.037180 0.564270 -0.599271
O4    O     O_R   0.564280 0.037180 0.435730 -0.599270
O5    O     O_R   0.564240 0.499990 0.883000 -0.583660
O6    O     O_R   0.435760 0.499990 0.117000 -0.583684
O7    O     O_R   0.064240 0.999990 0.883000 -0.585213
O8    O     O_R   0.935760 0.999990 0.117000 -0.585222
O9    O     O_R   0.564250 0.499990 0.988510 -0.588274
O10   O     O_R   0.435750 0.499990 0.011490 -0.588287
O11   O     O_R   0.064250 0.999990 0.988510 -0.586124
O12   O     O_R   0.935750 0.999990 0.011490 -0.586130
O13   O     O_R   0.500010 0.564260 0.947230 -0.581739
O14   O     O_R   0.499990 0.564260 0.052770 -0.581726
O15   O     O_R   0.000010 0.064260 0.947230 -0.588541
O16   O     O_R   0.999990 0.064260 0.052770 -0.588531
O17   O     O_R   0.935680 0.462770 0.564310 -0.558694
O18   O     O_R   0.064320 0.462770 0.435690 -0.558657
O19   O     O_R   0.435680 0.962770 0.564310 -0.559080
O20   O     O_R   0.564320 0.962770 0.435690 -0.559063
O21   O     O_R   0.999990 0.537180 0.408860 -0.607290
O22   O     O_R   0.000010 0.537180 0.591140 -0.607303
O23   O     O_R   0.499990 0.037180 0.408860 -0.605731
O24   O     O_R   0.500010 0.037180 0.591140 -0.605738
O25   O     O_R   0.999950 0.462770 0.408890 -0.543743
O26   O     O_R   0.000050 0.462770 0.591110 -0.543732
O27   O     O_R   0.499950 0.962770 0.408890 -0.542554
O28   O     O_R   0.500050 0.962770 0.591110 -0.542550
O29   O     O_R   0.962770 0.564220 0.037230 -0.584905
O30   O     O_R   0.037230 0.564220 0.962770 -0.584908
O31   O     O_R   0.462770 0.064220 0.037230 -0.584639
O32   O     O_R   0.537230 0.064220 0.962770 -0.584640
O33   O     O_R   0.962780 0.499950 0.128370 -0.585028
O34   O     O_R   0.037220 0.499950 0.871630 -0.585024
O35   O     O_R   0.462780 0.999950 0.128370 -0.583870
O36   O     O_R   0.537220 0.999950 0.871630 -0.583871
O37   O     O_R   0.037180 0.500000 0.053970 -0.590831
O38   O     O_R   0.962820 0.500000 0.946030 -0.590827
O39   O     O_R   0.537180 1.000000 0.053970 -0.592160
O40   O     O_R   0.462820 0.000000 0.946030 -0.592158
O41   O     O_R   0.962780 0.435670 0.037210 -0.581710
O42   O     O_R   0.037220 0.435670 0.962790 -0.581733
O43   O     O_R   0.462780 0.935670 0.037210 -0.576528
O44   O     O_R   0.537220 0.935670 0.962790 -0.576529
O45   O     O_R   0.499930 0.435710 0.947300 -0.586185
O46   O     O_R   0.500070 0.435710 0.052700 -0.586197
O47   O     O_R   0.999930 0.935710 0.947300 -0.586236
O48   O     O_R   0.000070 0.935710 0.052700 -0.586242
Br1   Br    Br    0.082136 0.449628 0.238013 -0.565673
Br2   Br    Br    0.917853 0.449643 0.761995 -0.565555
Br3   Br    Br    0.574237 0.937233 0.244245 -0.556667
Br4   Br    Br    0.425759 0.937235 0.755760 -0.556632
Br5   Br    Br    0.095724 0.732673 0.899339 -0.509290
Br6   Br    Br    0.904279 0.732672 0.100662 -0.509278
Br7   Br    Br    0.595786 0.232693 0.902587 -0.508828
Br8   Br    Br    0.404216 0.232692 0.097415 -0.508810
C153  C     C_3   0.053652 0.366560 0.038276 -0.814645
H97   H     H_    0.033071 0.390379 0.084796 0.214041
H98   H     H_    0.068055 0.343174 0.057976 0.230573
H99   H     H_    0.081260 0.384201 0.988096 0.252534
C154  C     C_3   0.946351 0.366568 0.961728 -0.814586
H100  H     H_    0.966911 0.390435 0.915282 0.214037
H101  H     H_    0.931994 0.343191 0.941928 0.230566
H102  H     H_    0.918713 0.384156 0.011946 0.252513
C155  C     C_3   0.523290 0.865934 0.091560 -0.852662
H103  H     H_    0.523501 0.902275 0.088118 0.218892
H104  H     H_    0.499509 0.856357 0.151902 0.235707
H105  H     H_    0.556760 0.855270 0.072606 0.248541
C156  C     C_3   0.476706 0.865936 0.908445 -0.852661
H106  H     H_    0.476501 0.902278 0.911881 0.218888
H107  H     H_    0.500485 0.856357 0.848104 0.235706
H108  H     H_    0.443235 0.855276 0.927404 0.248543
Br9   Br    Br    0.912995 0.455340 0.401522 -0.545276
Br10  Br    Br    0.086997 0.455324 0.598484 -0.545251
Br11  Br    Br    0.407830 0.968939 0.407521 -0.550290
Br12  Br    Br    0.592169 0.968936 0.592481 -0.550294

loop_
_geom_bond_atom_site_label_1
_geom_bond_atom_site_label_2
_ccdc_geom_bond_type
C128  H72   S    
Cu5   Cu6   S    
C55   C59   A    
C108  C120  A    
C7    H95   S    
C79   C87   A    
C48   O24   A    
Cu7   O35   S    
Cu3   O18   S    
Cu8   O36   S    
C6    C146  S    
C95   C99   A    
C47   C143  S    
C48   C144  S    
C117  C147  S    
C31   C59   S    
C9    C13   A    
Cu2   O3    S    
C115  H77   S    
C11   C15   A    
C12   C16   A    
C95   H55   S    
C3    C19   S    
C65   C147  S    
C66   C148  S    
C135  Br3   S    
C34   H30   S    
C138  Br10  S    
C41   C49   A    
C14   H18   S    
C49   H37   S    
C23   C27   A    
C50   H38   S    
C25   C29   A    
C116  H78   S    
C27   C31   A    
C46   O26   A    
C28   C32   A    
C121  H65   S    
Cu4   O19   S    
C73   O11   A    
C74   O12   A    
C108  H64   S    
C126  C129  A    
C96   H56   S    
C17   C21   A    
C80   C92   A    
C153  H99   S    
C19   C23   A    
Cu6   O37   S    
C1    O17   A    
C84   H4    S    
C65   O35   A    
C3    O19   A    
Cu12  O48   S    
C66   O36   A    
C71   O9    A    
C72   O6    A    
C111  C155  S    
C44   C74   S    
C124  H68   S    
Cu9   O13   S    
C134  Br2   S    
C117  H79   S    
C68   O43   A    
C96   C104  A    
C4    O20   A    
C11   H15   S    
Cu6   O30   S    
C107  C120  A    
C9    H13   S    
C77   C91   A    
C88   C90   A    
C64   C146  S    
C16   H20   S    
C5    C137  S    
C69   C101  S    
Cu9   O10   S    
C127  H71   S    
C24   H24   S    
C8    C140  S    
C83   C117  S    
C80   Br8   S    
C80   C88   A    
C137  Br9   S    
C83   C143  S    
C2    O2    A    
C65   O39   A    
C49   C53   A    
C66   O40   A    
C51   C55   A    
C4    C20   S    
C125  C129  A    
C117  H75   S    
C154  H100  S    
C34   C58   A    
Cu6   O42   S    
C43   C73   S    
C6    C138  S    
C78   Br6   S    
C123  C132  A    
C93   C103  A    
C86   H50   S    
C67   O41   A    
C84   C144  S    
C63   O33   A    
C124  C132  A    
C93   H53   S    
C155  H104  S    
C83   H43   S    
C139  C143  S    
Cu9   O5    S    
C107  H63   S    
C38   H34   S    
C105  H61   S    
C69   O46   A    
Cu1   O1    S    
C41   C71   S    
C44   C52   A    
C135  C143  S    
C77   C85   A    
C146  C150  S    
C75   O13   A    
C156  H107  S    
Cu8   O32   S    
C118  H80   S    
C150  H86   S    
C7    C147  S    
C99   H59   S    
C5    C145  S    
C135  H83   S    
C10   C14   A    
C115  H73   S    
C83   H3    S    
C62   O32   A    
C76   O15   A    
C109  C153  S    
Cu2   O24   S    
C22   H22   S    
C147  C151  S    
C36   H32   S    
C121  C125  A    
C84   H44   S    
C123  C127  A    
C4    O4    A    
C154  H102  S    
C5    H93   S    
C47   O23   A    
C112  C156  S    
C42   C50   A    
C12   H16   S    
Cu12  O11   S    
C26   C30   A    
C13   H17   S    
C46   O22   A    
Cu3   O25   S    
C93   C97   A    
C122  C131  A    
C82   H42   S    
C6    H6    S    
C118  H76   S    
C39   H35   S    
C5    H5    S    
Cu1   O22   S    
C18   C22   A    
C107  C111  A    
C24   C28   A    
C2    O18   A    
C96   C100  A    
C1    C17   S    
C13   C17   A    
Cu3   O17   S    
C25   H25   S    
C116  C146  S    
C9    C29   A    
Cu10  O14   S    
C136  Br4   S    
C98   H58   S    
C134  H82   S    
C37   C41   A    
C126  H70   S    
C70   O47   A    
Cu2   O4    S    
C40   C44   A    
C84   C118  S    
C63   C145  S    
Cu4   O27   S    
C133  H81   S    
Cu10  O9    S    
C7    H7    S    
C106  C119  A    
C120  C131  S    
C152  H88   S    
C82   C142  S    
Cu9   Cu10  S    
C46   C142  S    
Cu11  O15   S    
C15   C19   A    
Cu12  O8    S    
C50   C54   A    
Cu8   O39   S    
Cu4   O20   S    
C54   C58   A    
C94   C98   A    
C61   O30   A    
C45   O25   A    
C136  H84   S    
C35   C59   A    
Cu5   O33   S    
C153  H98   S    
C21   C25   A    
C136  C152  S    
C15   H19   S    
Cu1   Cu3   S    
Cu2   Cu4   S    
C35   H31   S    
C124  C128  A    
C68   O44   A    
C33   H29   S    
C45   C141  S    
Cu2   O23   S    
C8    C148  S    
C79   Br7   S    
C133  Br1   S    
C51   H39   S    
C149  H85   S    
C63   O37   A    
C151  H11   S    
Cu9   O45   S    
C148  C152  S    
C138  C142  S    
C85   C89   A    
C151  H87   S    
C40   H36   S    
Cu10  O6    S    
C33   C37   A    
C108  C112  A    
C52   H40   S    
C35   C39   A    
C134  C142  S    
Cu7   Cu8   S    
Cu7   O43   S    
Cu3   O26   S    
Cu8   O44   S    
C29   C57   S    
C94   C103  A    
C32   C60   S    
C82   H2    S    
C137  C141  S    
C53   C57   A    
Cu11  O7    S    
Cu12  O16   S    
C140  C144  S    
C86   C89   A    
C128  C130  A    
C70   C102  S    
C21   H21   S    
C98   C101  A    
C115  C145  S    
C133  C141  S    
C6    H94   S    
C118  C148  S    
C82   C116  S    
C136  C144  S    
C47   O27   A    
C48   O28   A    
C43   C51   A    
C105  C109  A    
C135  C151  S    
C111  C114  A    
C155  H103  S    
Cu7   O31   S    
C56   C60   A    
C99   C102  A    
C123  H67   S    
C53   H45   S    
C22   C26   A    
C87   C90   A    
C87   H51   S    
C105  C119  A    
C69   O45   A    
C138  H90   S    
C145  C149  S    
C76   C130  S    
C8    H8    S    
C8    H96   S    
C23   H23   S    
C2    C18   S    
C156  H106  S    
C14   C18   A    
C139  H91   S    
Cu11  Cu12  S    
C91   C104  S    
C26   H26   S    
C140  Br12  S    
C56   H48   S    
C100  H60   S    
C134  C150  S    
C116  H74   S    
C94   H54   S    
C76   O16   A    
C10   C30   A    
C73   O7    A    
C92   C103  S    
C30   C58   S    
C74   O8    A    
C20   C24   A    
C154  H101  S    
C106  H62   S    
C140  H92   S    
C37   H33   S    
Cu5   O38   S    
C16   C20   A    
C78   C86   A    
C81   C141  S    
C11   C31   A    
C71   O5    A    
C12   C32   A    
C72   O10   A    
C27   H27   S    
C121  C131  A    
C28   H28   S    
C42   C72   S    
C61   C89   S    
C122  H66   S    
C45   O21   A    
C67   O42   A    
Cu1   O21   S    
C10   H14   S    
Cu5   O29   S    
C36   C40   A    
C133  C149  S    
Cu6   O34   S    
C39   C43   A    
C122  C126  A    
C155  H105  S    
C85   H49   S    
C54   H46   S    
C81   C115  S    
C100  C102  A    
C119  C132  S    
Cu1   O2    S    
C110  C113  A    
C70   O48   A    
C79   C92   A    
C1    O1    A    
C112  C114  A    
C150  H10   S    
C3    O3    A    
C75   O14   A    
C64   O38   A    
C156  H108  S    
Cu10  O46   S    
Cu7   O40   S    
Cu4   O28   S    
C95   C104  A    
C81   H41   S    
C106  C110  A    
C33   C57   A    
C88   H52   S    
C34   C38   A    
Cu5   O41   S    
C36   C60   A    
C109  C113  A    
C78   C91   A    
C77   Br5   S    
C62   O31   A    
Cu11  O12   S    
C110  C154  S    
C67   C113  S    
C127  C130  A    
C7    C139  S    
C139  Br11  S    
C61   O29   A    
C62   C90   S    
C97   H57   S    
C149  H9    S    
Cu11  O47   S    
C153  H97   S    
C97   C101  A    
C125  H69   S    
C55   H47   S    
C152  H12   S    
C38   C42   A    
C75   C129  S    
C81   H1    S    
C64   O34   A    
C137  H89   S    
C52   C56   A    
C68   C114  S    
