data_mof_unit_24437.cif
_audit_creation_date              2012-12-11T15:39:09-0500
_audit_creation_method            fapswitch 2.2
_symmetry_space_group_name_H-M    P1
_symmetry_Int_Tables_number       1
_space_group_crystal_system       triclinic
_cell_length_a                    14.351983
_cell_length_b                    14.793725
_cell_length_c                    33.18638
_cell_angle_alpha                 97.596423
_cell_angle_beta                  90.338172
_cell_angle_gamma                 118.918919
_cell_volume                      6093.53505458

loop_
_atom_site_label
_atom_site_type_symbol
_atom_type_description
_atom_site_fract_x
_atom_site_fract_y
_atom_site_fract_z
_atom_type_partial_charge
C1    C     C_R   0.616955 0.910263 0.437034 0.543606
C2    C     C_R   0.742618 0.425207 0.187920 0.031903
C3    C     C_R   0.757019 0.868621 0.638905 -0.119144
C4    C     C_R   0.672136 0.785278 0.654223 0.033361
C5    C     C_R   0.636713 0.859033 0.584721 0.019375
C6    C     C_R   0.052089 0.781295 0.063794 0.544340
C7    C     C_R   0.743988 0.486898 0.066239 0.546253
C8    C     C_R   0.742953 0.789226 0.066407 0.553230
C9    C     C_R   0.021468 0.732017 0.947355 0.532015
C10   C     C_R   0.712396 0.438078 0.949148 0.532947
C11   C     C_R   0.743495 0.716479 0.945933 0.567140
C12   C     C_R   0.829969 0.440693 0.165324 -0.119296
C13   C     C_R   0.827815 0.453565 0.124514 -0.125502
C14   C     C_R   0.781728 0.357029 0.246765 -0.114700
C15   C     C_R   0.774637 0.344486 0.287699 -0.111906
C16   C     C_R   0.733814 0.396545 0.314276 0.031171
C17   C     C_R   0.706056 0.465943 0.299787 -0.115549
C18   C     C_R   0.712614 0.478001 0.258833 -0.113411
C19   C     C_R   0.747447 0.421207 0.231845 0.030191
C20   C     C_R   0.607433 0.346617 0.368697 -0.118303
C21   C     C_R   0.594094 0.205663 0.456667 0.544256
C22   C     C_R   0.572847 0.299556 0.403351 -0.126216
C23   C     C_R   0.740955 0.300696 0.413165 -0.126806
C24   C     C_R   0.775632 0.348055 0.378565 -0.121657
C25   C     C_R   0.707540 0.367706 0.355189 0.032991
C26   C     C_R   0.637665 0.272427 0.424927 0.022036
C27   C     C_R   0.244618 0.878038 0.393435 0.020205
C28   C     C_R   0.232275 0.959231 0.380880 -0.127747
C29   C     C_R   0.208162 0.956855 0.339786 -0.114957
C30   C     C_R   0.195439 0.873154 0.310858 0.040487
C31   C     C_R   0.200604 0.788868 0.323361 -0.112856
C32   C     C_R   0.295593 0.892794 0.434406 0.541897
C33   C     C_R   0.224813 0.791054 0.364428 -0.128017
C34   C     C_R   0.195222 0.807575 0.163271 -0.112515
C35   C     C_R   0.167437 0.786228 0.121390 -0.125566
C36   C     C_R   0.089860 0.900620 0.129669 -0.128544
C37   C     C_R   0.117234 0.921393 0.171670 -0.114506
C38   C     C_R   0.166454 0.871854 0.188630 0.039682
C39   C     C_1   0.177289 0.877193 0.232035 -0.030160
C40   C     C_1   0.184718 0.876627 0.268132 -0.030015
C41   C     C_R   0.110262 0.828887 0.104428 0.020206
C42   C     C_R   0.637650 0.878479 0.395553 0.020375
C43   C     C_R   0.613891 0.904770 0.551558 0.543444
C44   C     C_R   0.553004 0.799723 0.368524 -0.130370
C45   C     C_R   0.565342 0.787358 0.326823 -0.117403
C46   C     C_R   0.662398 0.852860 0.311889 0.038710
C47   C     C_R   0.749312 0.926064 0.338821 -0.114378
C48   C     C_R   0.737196 0.938738 0.380498 -0.125971
C49   C     C_R   0.778678 0.919876 0.174751 -0.115375
C50   C     C_R   0.793699 0.906952 0.133298 -0.128941
C51   C     C_R   0.618705 0.752315 0.121604 -0.125618
C52   C     C_R   0.603802 0.765606 0.162972 -0.114983
C53   C     C_R   0.685287 0.847101 0.189732 0.039949
C54   C     C_R   0.589811 0.199650 0.570818 0.541544
C55   C     C_1   0.676931 0.850036 0.232774 -0.033183
C56   C     C_1   0.670436 0.850710 0.268855 -0.033515
C57   C     C_R   0.715652 0.820324 0.106681 0.021833
C58   C     C_R   0.624046 0.251980 0.613480 0.019858
C59   C     C_R   0.559985 0.284958 0.635841 -0.129287
C60   C     C_R   0.577692 0.311282 0.678197 -0.116558
C61   C     C_R   0.659602 0.305215 0.698545 0.041413
C62   C     C_R   0.728524 0.279935 0.676374 -0.114360
C63   C     C_R   0.711237 0.253883 0.634002 -0.129465
C64   C     C_R   0.764323 0.349192 0.844644 -0.115969
C65   C     C_R   0.288868 0.886707 0.548439 0.544482
C66   C     C_R   0.773081 0.373449 0.887064 -0.129252
C67   C     C_R   0.594482 0.352119 0.884609 -0.126116
C68   C     C_R   0.585961 0.327822 0.842201 -0.113328
C69   C     C_R   0.672309 0.330128 0.822164 0.042182
C70   C     C_1   0.669560 0.321335 0.778622 -0.031603
C71   C     C_1   0.666471 0.315285 0.742129 -0.032275
C72   C     C_R   0.690104 0.379961 0.907338 0.021590
C73   C     C_R   0.064118 0.751087 0.907534 0.021691
C74   C     C_R   0.102076 0.849662 0.895596 -0.143073
C75   C     C_R   0.117597 0.861094 0.854774 -0.127980
C76   C     C_R   0.738003 0.450635 0.105815 0.020801
C77   C     C_R   0.095431 0.774075 0.825521 0.031196
C78   C     C_R   0.064237 0.677121 0.838025 -0.117872
C79   C     C_R   0.049357 0.665858 0.878756 -0.120274
C80   C     C_R   0.143138 0.730861 0.756506 -0.113364
C81   C     C_R   0.147216 0.737853 0.715190 -0.111280
C82   C     C_R   0.108418 0.796690 0.698400 0.032954
C83   C     C_R   0.063696 0.847056 0.723504 -0.109630
C84   C     C_R   0.059921 0.840307 0.764996 -0.110005
C85   C     C_R   0.100282 0.782640 0.781837 0.032970
C86   C     C_R   0.174419 0.917555 0.647203 -0.120923
C87   C     C_R   0.648033 0.428000 0.127851 -0.124042
C88   C     C_R   0.219988 0.940000 0.610393 -0.129282
C89   C     C_R   0.163346 0.756393 0.589333 -0.128092
C90   C     C_R   0.117030 0.733888 0.625960 -0.121943
C91   C     C_R   0.127698 0.815125 0.656050 0.032232
C92   C     C_R   0.219871 0.860299 0.582245 0.022063
C93   C     C_R   0.728139 0.701586 0.901123 0.016744
C94   C     C_R   0.629293 0.636002 0.878630 -0.124399
C95   C     C_R   0.620233 0.635083 0.836322 -0.116033
C96   C     C_R   0.710273 0.698369 0.816411 0.032584
C97   C     C_R   0.809839 0.755716 0.838691 -0.114613
C98   C     C_R   0.650533 0.415772 0.168594 -0.120010
C99   C     C_R   0.818230 0.758368 0.880427 -0.123167
C100  C     C_R   0.754564 0.819550 0.765647 -0.115068
C101  C     C_R   0.747286 0.840567 0.726548 -0.114968
C102  C     C_R   0.686070 0.759262 0.694702 0.032834
C103  C     C_R   0.632643 0.655699 0.702951 -0.111933
C104  C     C_R   0.639859 0.634524 0.742470 -0.110873
C105  C     C_R   0.701034 0.716593 0.774143 0.032873
C106  C     C_R   0.570926 0.735074 0.632873 -0.119602
C107  C     C_R   0.553497 0.771310 0.598406 -0.126890
C108  C     C_R   0.739317 0.905650 0.604668 -0.128709
Cr1   Cr    Cr6+3 0.424820 0.846020 0.489780 1.008642
Cr2   Cr    Cr6+3 0.657880 0.078580 0.505700 1.008069
Cr3   Cr    Cr6+3 0.417280 0.075360 0.504550 1.008466
Cr4   Cr    Cr6+3 0.903360 0.812540 0.006510 1.004209
Cr5   Cr    Cr6+3 0.914630 0.587050 0.006280 1.004633
Cr6   Cr    Cr6+3 0.673560 0.582680 0.008540 1.009428
H1    H     H_    0.577474 0.424744 0.114259 0.129208
H2    H     H_    0.493013 0.279009 0.411789 0.126017
H3    H     H_    0.901551 0.447659 0.179724 0.104160
H4    H     H_    0.793238 0.281950 0.429578 0.123272
H5    H     H_    0.184170 0.730728 0.102730 0.124067
H6    H     H_    0.233589 0.769088 0.176140 0.107118
H7    H     H_    0.190488 0.723514 0.301136 0.106357
H8    H     H_    0.234072 0.727537 0.373009 0.123223
H9    H     H_    0.247159 0.027434 0.402399 0.123836
H10   H     H_    0.094593 0.971254 0.191101 0.105469
H11   H     H_    0.045031 0.933919 0.117592 0.124054
H12   H     H_    0.898438 0.471097 0.108308 0.128146
H13   H     H_    0.203921 0.022275 0.330392 0.105394
H14   H     H_    0.869381 0.960213 0.122754 0.120514
H15   H     H_    0.842070 0.983336 0.195373 0.103694
H16   H     H_    0.824907 0.976663 0.327435 0.105989
H17   H     H_    0.803894 0.999839 0.400555 0.125788
H18   H     H_    0.475269 0.752401 0.379131 0.125366
H19   H     H_    0.531093 0.709208 0.174377 0.104081
H20   H     H_    0.557104 0.685044 0.101800 0.121323
H21   H     H_    0.497789 0.730189 0.306080 0.104624
H22   H     H_    0.847870 0.394684 0.903588 0.123619
H23   H     H_    0.853829 0.365187 0.369075 0.102058
H24   H     H_    0.831394 0.350698 0.829305 0.103097
H25   H     H_    0.762020 0.228893 0.617702 0.126811
H26   H     H_    0.492460 0.284627 0.620941 0.123501
H27   H     H_    0.514224 0.312688 0.824944 0.103827
H28   H     H_    0.529278 0.356724 0.899189 0.126459
H29   H     H_    0.524315 0.331361 0.695204 0.099664
H30   H     H_    0.114051 0.916382 0.917408 0.116645
H31   H     H_    0.018826 0.588679 0.887109 0.124321
H32   H     H_    0.079203 0.653976 0.631910 0.105251
H33   H     H_    0.795151 0.289330 0.297947 0.104494
H34   H     H_    0.184931 0.700741 0.696702 0.103500
H35   H     H_    0.176136 0.687186 0.768845 0.101667
H36   H     H_    0.143858 0.937110 0.845890 0.104598
H37   H     H_    0.033304 0.892809 0.711144 0.098992
H38   H     H_    0.025615 0.880270 0.783826 0.090290
H39   H     H_    0.183936 0.981596 0.670005 0.102105
H40   H     H_    0.262438 0.020726 0.605456 0.126567
H41   H     H_    0.045777 0.608608 0.816025 0.102728
H42   H     H_    0.160243 0.693314 0.567628 0.124613
H43   H     H_    0.558856 0.589872 0.893832 0.122182
H44   H     H_    0.808664 0.312488 0.226370 0.103854
H45   H     H_    0.895332 0.808503 0.896919 0.138018
H46   H     H_    0.836544 0.907480 0.654220 0.100176
H47   H     H_    0.786760 0.921328 0.721660 0.099851
H48   H     H_    0.800343 0.884738 0.789632 0.101829
H49   H     H_    0.542432 0.589648 0.819682 0.101485
H50   H     H_    0.585155 0.591317 0.678928 0.100327
H51   H     H_    0.598432 0.554460 0.748232 0.101335
H52   H     H_    0.503690 0.671496 0.644057 0.101083
H53   H     H_    0.473413 0.733448 0.583641 0.129065
H54   H     H_    0.880848 0.803072 0.824113 0.106548
H55   H     H_    0.581312 0.401298 0.185335 0.105754
H56   H     H_    0.805249 0.972413 0.594497 0.123673
H57   H     H_    0.675906 0.508083 0.319834 0.105926
H58   H     H_    0.688041 0.529780 0.247975 0.109558
H59   H     H_    0.552850 0.359993 0.351006 0.103302
O1    O     O_R   0.318160 0.824460 0.443680 -0.521688
O2    O     O_R   0.645130 0.163230 0.552140 -0.502484
O3    O     O_R   0.498360 0.178430 0.555780 -0.520078
O4    O     O_R   0.328690 0.978040 0.538950 -0.501735
O5    O     O_3   0.499990 0.999990 0.500010 -0.233133
O6    O     O_R   0.828710 0.851830 0.052170 -0.515300
O7    O     O_R   0.005980 0.823990 0.047210 -0.500978
O8    O     O_R   0.031900 0.688850 0.050170 -0.514706
O9    O     O_R   0.830940 0.518420 0.048680 -0.498204
O10   O     O_R   0.668160 0.499860 0.053480 -0.517061
O11   O     O_R   0.689170 0.693840 0.050110 -0.495030
O12   O     O_R   0.525040 0.857250 0.449830 -0.502661
O13   O     O_R   0.803860 0.812940 0.962540 -0.510726
O14   O     O_R   0.982950 0.787950 0.964120 -0.527508
O15   O     O_R   0.007050 0.649970 0.960540 -0.516694
O16   O     O_R   0.807910 0.482370 0.965590 -0.504594
O17   O     O_R   0.643310 0.460980 0.963840 -0.525989
O18   O     O_R   0.666140 0.657800 0.967020 -0.499466
O19   O     O_3   0.830520 0.660760 0.007110 -0.261121
O20   O     O_R   0.684760 0.998800 0.456360 -0.518509
O21   O     O_R   0.647540 0.166310 0.470260 -0.501604
O22   O     O_R   0.500960 0.181750 0.467450 -0.520129
O23   O     O_R   0.331100 0.981120 0.457080 -0.501386
O24   O     O_R   0.315560 0.821140 0.532010 -0.520458
O25   O     O_R   0.522630 0.854180 0.531710 -0.501257
O26   O     O_R   0.682160 0.995480 0.544690 -0.519291
H60   H     H_    0.792362 0.275409 0.691956 0.105603

loop_
_geom_bond_atom_site_label_1
_geom_bond_atom_site_label_2
_ccdc_geom_bond_type
C65   C92   S    
C21   C26   S    
C101  C102  A    
Cr6   O17   S    
C99   H45   S    
C11   O13   A    
C73   C74   A    
Cr1   O24   S    
C95   C96   A    
C32   O23   A    
C9    O15   A    
C2    C12   A    
C23   H4    S    
C81   C82   A    
C36   C41   A    
C28   H9    S    
C79   H31   S    
C64   H24   S    
C77   C78   A    
C27   C33   A    
C100  C105  A    
C80   C85   A    
C9    C73   S    
C14   H44   S    
C83   C84   A    
C106  H52   S    
C36   C37   A    
C86   H39   S    
C34   C35   A    
C108  H56   S    
C86   C91   A    
C60   H29   S    
Cr4   O13   S    
C38   C39   S    
C51   H20   S    
C86   C88   A    
C78   H41   S    
C20   C25   A    
Cr2   O5    S    
C75   H36   S    
C15   C16   A    
C58   C63   A    
C18   C19   A    
C23   C26   A    
C54   O3    A    
C104  H51   S    
C98   H55   S    
C35   H5    S    
Cr1   O5    S    
C66   C72   A    
C88   C92   A    
C68   C69   A    
C6    C41   S    
C4    C102  S    
Cr2   O21   S    
Cr3   O5    S    
C23   C24   A    
C31   C33   A    
C48   H17   S    
C70   C71   T    
C51   C57   A    
C21   O21   A    
C29   C30   A    
C93   C99   A    
C87   H1    S    
C61   C62   A    
Cr3   O23   S    
Cr4   O7    S    
C87   C98   A    
C8    O11   A    
C22   H2    S    
C5    C43   S    
C77   C85   S    
C59   C60   A    
C3    H46   S    
C52   H19   S    
Cr1   O25   S    
C102  C103  A    
C42   C44   A    
Cr4   O14   S    
C104  C105  A    
C97   C99   A    
C83   H37   S    
C53   C55   S    
C34   H6    S    
C80   H35   S    
C107  H53   S    
C45   H21   S    
C10   O16   A    
Cr6   O19   S    
C74   C75   A    
C6    O8    A    
C67   C68   A    
C47   C48   A    
C67   C72   A    
C24   C25   A    
C31   H7    S    
C39   C40   T    
Cr1   O1    S    
C16   C17   A    
C89   H42   S    
C47   H16   S    
Cr1   O12   S    
C58   C59   A    
Cr2   O2    S    
Cr5   O15   S    
C4    C106  A    
C21   O22   A    
C82   C91   S    
Cr3   O3    S    
C60   C61   A    
C88   H40   S    
C54   O2    A    
C1    O20   A    
C37   C38   A    
C95   H49   S    
C8    C57   S    
Cr4   O19   S    
C37   H10   S    
C20   H59   S    
C13   C76   A    
C81   H34   S    
C96   C97   A    
C49   H15   S    
C62   C63   A    
C54   C58   S    
C17   C18   A    
C73   C79   A    
C30   C40   S    
C68   H27   S    
C93   C94   A    
C42   C48   A    
C64   C69   A    
C84   C85   A    
C89   C92   A    
C75   C77   A    
C76   C87   A    
C10   O17   A    
Cr4   O6    S    
C65   O24   A    
C13   H12   S    
C84   H38   S    
C20   C22   A    
C49   C50   A    
C94   H43   S    
C1    O12   A    
C29   H13   S    
C22   C26   A    
C33   H8    S    
C3    C108  A    
C66   H22   S    
Cr5   O8    S    
C50   H14   S    
C3    C4    A    
Cr6   O11   S    
Cr5   O9    S    
C103  C104  A    
C52   C53   A    
C96   C105  S    
C5    C107  A    
Cr2   O20   S    
C16   C25   S    
Cr5   O19   S    
C74   H30   S    
C46   C47   A    
C28   C29   A    
Cr6   O18   S    
C7    O9    A    
C6    O7    A    
Cr2   O26   S    
C34   C38   A    
C50   C57   A    
C63   H25   S    
C14   C19   A    
C44   C45   A    
C80   C81   A    
C9    O14   A    
C43   O26   A    
C17   H57   S    
C103  H50   S    
C7    C76   S    
C32   O1    A    
C18   H58   S    
C24   H23   S    
C44   H18   S    
C97   H54   S    
Cr5   O16   S    
C7    O10   A    
C101  H47   S    
C62   H60   S    
C51   C52   A    
C90   H32   S    
C15   H33   S    
C78   C79   A    
C8    O6    A    
C11   C93   S    
C90   C91   A    
C30   C31   A    
Cr3   O22   S    
C65   O4    A    
C59   H26   S    
C49   C53   A    
C100  C101  A    
C43   O25   A    
C11   O18   A    
C69   C70   S    
C35   C41   A    
C27   C32   S    
C55   C56   T    
C61   C71   S    
C12   H3    S    
C45   C46   A    
C1    C42   S    
C36   H11   S    
C12   C13   A    
C2    C98   A    
C82   C83   A    
C106  C107  A    
C46   C56   S    
C27   C28   A    
Cr3   O4    S    
C14   C15   A    
C100  H48   S    
C89   C90   A    
C67   H28   S    
C94   C95   A    
Cr6   O10   S    
C2    C19   S    
C64   C66   A    
C5    C108  A    
C10   C72   S    
