data_mof_unit_23518.cif
_audit_creation_date              2012-12-11T14:29:42-0500
_audit_creation_method            fapswitch 2.2
_symmetry_space_group_name_H-M    P1
_symmetry_Int_Tables_number       1
_space_group_crystal_system       triclinic
_cell_length_a                    6.943378
_cell_length_b                    14.723531
_cell_length_c                    16.245441
_cell_angle_alpha                 90.508756
_cell_angle_beta                  89.891613
_cell_angle_gamma                 89.864525
_cell_volume                      1660.71519624

loop_
_atom_site_label
_atom_site_type_symbol
_atom_type_description
_atom_site_fract_x
_atom_site_fract_y
_atom_site_fract_z
_atom_type_partial_charge
O1    O     O_R   0.494400 0.416610 0.413880 -0.554550
O2    O     O_R   0.823920 0.406790 0.585520 -0.510145
O3    O     O_R   0.994250 0.583390 0.586120 -0.540305
C1    C     C_R   0.655263 0.384485 0.613208 0.787277
O4    O     O_R   0.824110 0.405730 0.414490 -0.511330
O5    O     O_R   0.994440 0.582310 0.413870 -0.553402
C2    C     C_R   0.655587 0.383200 0.386608 0.782209
O6    O     O_R   0.494210 0.417690 0.586130 -0.557121
O7    O     O_3   0.660810 0.557940 0.500000 -0.378721
V1    V     V_3+5 0.935650 0.489250 0.500000 1.469634
O8    O     O_R   0.324160 0.593210 0.414480 -0.544369
C3    C     C_R   0.155485 0.616703 0.387774 0.648684
O9    O     O_R   0.323970 0.594270 0.585510 -0.539022
C4    C     C_R   0.154899 0.616204 0.613797 0.689338
V2    V     V_3+5 0.435660 0.510750 0.500000 1.399694
O10   O     O_3   0.160630 0.442060 0.500000 -0.360601
H1    H     H_    0.857324 0.898599 0.517120 0.118970
C5    C     C_R   0.298904 0.575685 0.776637 -0.147146
C6    C     C_R   0.368691 0.553725 0.854302 -0.128751
C7    C     C_R   0.356943 0.616465 0.918504 -0.120321
C8    C     C_R   0.275324 0.701672 0.905555 -0.131839
C9    C     C_R   0.205086 0.726465 0.827116 0.069602
C10   C     C_R   0.217159 0.662087 0.761215 0.071540
C11   C     C_R   0.120267 0.812965 0.814206 -0.184577
C12   C     C_R   0.047865 0.834993 0.735163 0.068060
C13   C     C_R   0.059952 0.770609 0.669261 0.071424
C14   C     C_R   0.144457 0.684063 0.682239 -0.184772
C15   C     C_R   0.966611 0.921467 0.719647 -0.142088
C16   C     C_R   0.897874 0.943609 0.641834 -0.105625
C17   C     C_R   0.909681 0.880850 0.577630 -0.121951
C18   C     C_R   0.990224 0.795451 0.590747 -0.144585
H2    H     H_    0.308688 0.523786 0.729277 0.102385
H3    H     H_    0.431000 0.487365 0.864828 0.108068
H4    H     H_    0.410107 0.598809 0.978900 0.108099
H5    H     H_    0.266658 0.747309 0.957969 0.101990
H6    H     H_    0.956625 0.973285 0.767056 0.108352
H7    H     H_    0.836293 0.010109 0.631215 0.138968
H8    H     H_    0.998641 0.749722 0.538389 0.106083
C19   C     C_2   0.993082 0.706973 0.280141 -0.166875
C20   C     C_2   0.149964 0.692553 0.327957 0.136959
H9    H     H_    0.866898 0.664530 0.288390 0.097092
C21   C     C_2   0.975934 0.779535 0.216957 -0.123134
C22   C     C_2   0.125856 0.809543 0.172132 -0.279234
H10   H     H_    0.832423 0.805459 0.204568 0.133639
H11   H     H_    0.267660 0.780025 0.180074 0.168158
C23   C     C_2   0.772764 0.194072 0.770539 -0.224949
C24   C     C_2   0.613127 0.178132 0.815366 -0.372985
H12   H     H_    0.900791 0.154342 0.783630 0.148032
H13   H     H_    0.478488 0.211671 0.801323 0.127505
C25   C     C_2   0.785738 0.259036 0.700049 0.495682
C26   C     C_2   0.644422 0.319557 0.682311 -0.393530
H14   H     H_    0.516679 0.324397 0.720290 0.069720
C27   C     C_2   0.771225 0.193248 0.225625 -0.216402
C28   C     C_2   0.612714 0.179474 0.179386 -0.375191
H15   H     H_    0.897620 0.152028 0.212538 0.153210
H16   H     H_    0.479110 0.214468 0.193006 0.126322
C29   C     C_2   0.785049 0.257682 0.297498 0.496081
C30   C     C_2   0.644448 0.318345 0.316569 -0.395855
H17   H     H_    0.516667 0.323525 0.278975 0.071992
O11   O     O_R   0.770210 0.079270 0.910680 -0.541634
O12   O     O_R   0.440150 0.091160 0.082270 -0.545680
O13   O     O_R   0.269970 0.914530 0.082860 -0.541981
C31   C     C_R   0.608280 0.112426 0.111151 0.773408
O14   O     O_R   0.440480 0.090100 0.911240 -0.545991
O15   O     O_R   0.270310 0.913460 0.910610 -0.536677
C32   C     C_R   0.608833 0.111171 0.882660 0.772083
O16   O     O_R   0.769870 0.080340 0.082930 -0.538689
O17   O     O_3   0.603660 0.938980 0.996790 -0.371522
V3    V     V_3+5 0.328750 0.007610 0.996740 1.405669
O18   O     O_R   0.940600 0.902510 0.911180 -0.539458
C33   C     C_R   0.109684 0.880769 0.882749 0.694584
O19   O     O_R   0.940270 0.903570 0.082200 -0.540359
C34   C     C_R   0.109509 0.880978 0.109372 0.721712
V4    V     V_3+5 0.828770 0.986010 0.996670 1.415405
O20   O     O_3   0.103730 0.054750 0.996710 -0.373996
N1    N     N_2   0.309571 0.753410 0.325605 -0.521030
H18   H     H_    0.442019 0.722408 0.331804 0.256124
C35   C     C_3   0.289085 0.831918 0.379073 -0.523284
H19   H     H_    0.412910 0.878307 0.369726 0.194283
H20   H     H_    0.286473 0.810628 0.444540 0.181870
H21   H     H_    0.154556 0.869543 0.364664 0.213724
O21   O     O_3   0.941410 0.250782 0.646894 -0.539204
C36   C     C_3   0.108001 0.284171 0.686164 -0.182269
H22   H     H_    0.157257 0.237711 0.735330 0.100532
H23   H     H_    0.086016 0.354082 0.711358 0.111042
H24   H     H_    0.224654 0.287725 0.639652 0.172337
O22   O     O_3   0.939806 0.248530 0.350657 -0.537212
C37   C     C_3   0.108254 0.280084 0.311855 -0.181320
H25   H     H_    0.089067 0.349771 0.286917 0.107784
H26   H     H_    0.156924 0.232516 0.262616 0.101510
H27   H     H_    0.224152 0.283463 0.358605 0.172847

loop_
_geom_bond_atom_site_label_1
_geom_bond_atom_site_label_2
_ccdc_geom_bond_type
C22   C34   S    
O22   C37   S    
C6    C7    A    
C1    O6    A    
C24   H13   S    
C27   C28   D    
C12   C15   A    
C13   C14   A    
C15   C16   A    
N1    C35   S    
O5    C3    A    
C17   C18   A    
C35   H20   S    
C28   C31   S    
O17   V4    S    
V2    O10   S    
C5    C6    A    
O12   C31   A    
O8    V2    S    
O17   V3    S    
O18   V4    S    
O13   C34   A    
O18   C33   A    
O1    V2    S    
C10   C14   A    
C4    C14   S    
O7    V1    S    
C2    C30   S    
C7    H4    S    
O11   C32   A    
C13   C18   A    
O9    C4    A    
H1    C17   S    
C21   H10   S    
C19   C21   S    
C28   H16   S    
C27   H15   S    
C31   O16   A    
V4    O20   S    
C1    C26   S    
C5    C10   A    
C11   C12   A    
O19   V4    S    
C6    H3    S    
C19   C20   D    
O4    C2    A    
C27   C29   S    
C35   H19   S    
C30   H17   S    
O15   C33   A    
C26   H14   S    
O13   V3    S    
O14   C32   A    
C3    C20   S    
O2    C1    A    
C16   C17   A    
C29   O22   S    
C36   H22   S    
C37   H27   S    
C7    C8    A    
C25   C26   D    
O16   V4    S    
O14   V3    S    
N1    H18   S    
C22   H11   S    
C15   H6    S    
O3    C4    A    
C36   H23   S    
C37   H26   S    
O6    V2    S    
O9    V2    S    
C9    C11   A    
C5    H2    S    
C21   C22   D    
O2    V1    S    
C25   O21   S    
O12   V3    S    
C23   C24   D    
C24   C32   S    
O1    C2    A    
O19   C34   A    
O5    V1    S    
O8    C3    A    
C8    H5    S    
C23   C25   S    
C18   H8    S    
C12   C13   A    
O4    V1    S    
O3    V1    S    
V1    O10   S    
C35   H21   S    
C29   C30   D    
O15   V3    S    
O11   V4    S    
V3    O20   S    
O7    V2    S    
C23   H12   S    
C20   N1    S    
C36   H24   S    
C37   H25   S    
C19   H9    S    
O21   C36   S    
C16   H7    S    
C9    C10   A    
C8    C9    A    
C11   C33   S    
