data_mof_unit_31199.cif
_audit_creation_date              2012-12-10T18:46:13-0500
_audit_creation_method            fapswitch 2.2
_symmetry_space_group_name_H-M    P1
_symmetry_Int_Tables_number       1
_space_group_crystal_system       triclinic
_cell_length_a                    9.988996
_cell_length_b                    10.704652
_cell_length_c                    13.130727
_cell_angle_alpha                 91.794511
_cell_angle_beta                  72.701529
_cell_angle_gamma                 90.437705
_cell_volume                      1339.88535843

loop_
_atom_site_label
_atom_site_type_symbol
_atom_type_description
_atom_site_fract_x
_atom_site_fract_y
_atom_site_fract_z
_atom_type_partial_charge
C1    C     C_R   0.502283 0.738926 0.495017 0.987133
C2    C     C_R   0.456976 0.396272 0.969581 -0.026561
C3    C     C_R   0.495733 0.410525 0.858978 -0.081888
C4    C     C_R   0.559715 0.428867 0.021326 0.055294
C5    C     C_R   0.702946 0.444610 0.959804 -0.022702
C6    C     C_R   0.739822 0.408295 0.851085 0.202788
C7    C     C_R   0.636515 0.392191 0.802401 -0.123200
C8    C     C_R   0.521897 0.455049 0.130337 -0.262649
C9    C     C_R   0.760058 0.516490 0.120142 0.455102
C10   C     C_R   0.392920 0.418332 0.806204 -0.260134
C11   C     C_R   0.582325 0.936467 0.544811 -0.295122
C12   C     C_R   0.426392 0.475103 0.699098 0.966863
C13   C     C_R   0.587681 0.064467 0.543236 0.450539
C14   C     C_R   0.500505 0.126755 0.494812 -0.301547
C15   C     C_R   0.417096 0.060685 0.441423 0.433694
C16   C     C_R   0.430101 0.931614 0.430175 0.090511
C17   C     C_R   0.505461 0.870787 0.488569 -0.218589
C18   C     C_R   0.953002 0.418101 0.436287 -0.163217
C19   C     C_R   0.095875 0.418806 0.435721 -0.124649
C20   C     C_R   0.047653 0.584319 0.562823 0.253386
C21   C     C_R   0.903500 0.581309 0.565538 0.196390
C22   C     C_R   0.500114 0.260158 0.498035 0.928695
C23   C     C_R   0.576522 0.501131 0.296745 0.931832
C24   C     C_R   0.799652 0.497973 0.008845 0.138231
C25   C     C_R   0.621374 0.491120 0.180470 -0.206982
C26   C     C_R   0.271301 0.348627 0.848617 0.464661
C27   C     C_R   0.232559 0.315388 0.956350 0.033379
C28   C     C_R   0.322452 0.343044 0.018958 0.381055
H1    H     H_    0.919497 0.351289 0.385478 0.147236
H2    H     H_    0.169324 0.354959 0.382483 0.191751
H3    H     H_    0.413333 0.452184 0.177216 0.247486
H4    H     H_    0.666536 0.355450 0.721097 0.213752
H5    H     H_    0.638109 0.888929 0.590734 0.214330
N1    N     N_R   0.142790 0.500030 0.500030 -0.104225
N2    N     N_R   0.857180 0.499940 0.500010 -0.107910
O1    O     O_R   0.385370 0.683250 0.500010 -0.585347
O2    O     O_R   0.614700 0.683220 0.500010 -0.599482
O3    O     O_R   0.328400 0.499990 0.653620 -0.544682
O4    O     O_R   0.557730 0.499960 0.653620 -0.617883
O5    O     O_R   0.385300 0.316780 0.499990 -0.590420
O6    O     O_R   0.614630 0.316750 0.499990 -0.605137
O7    O     O_R   0.442270 0.500040 0.346380 -0.616539
O8    O     O_R   0.671600 0.500010 0.346380 -0.596426
Zn1   Zn    Zn3+2 0.346870 0.500020 0.500000 1.034895
Zn2   Zn    Zn3+2 0.653130 0.499980 0.500000 0.990115
O9    O     O_3   0.847412 0.580789 0.168100 -0.582129
C29   C     C_3   0.948839 0.498406 0.183439 -0.133635
H6    H     H_    0.903840 0.406430 0.213603 0.147870
H7    H     H_    0.994226 0.541871 0.243420 0.190919
H8    H     H_    0.036343 0.484560 0.109112 0.187295
O10   O     O_3   0.665418 0.129311 0.599131 -0.600968
C30   C     C_3   0.809544 0.108249 0.547952 -0.231513
H9    H     H_    0.870627 0.177877 0.579551 0.194764
H10   H     H_    0.837716 0.120716 0.460135 0.149344
H11   H     H_    0.841779 0.014027 0.565195 0.178390
O11   O     O_3   0.333863 0.122658 0.391740 -0.593264
C31   C     C_3   0.191678 0.110767 0.452932 -0.292800
H12   H     H_    0.124613 0.133800 0.402292 0.174613
H13   H     H_    0.166176 0.177557 0.522405 0.195463
H14   H     H_    0.162596 0.014587 0.481526 0.179897
I1    I     I_    0.347752 0.835374 0.316153 -0.311260
I2    I     I_    0.113422 0.726115 0.655646 -0.233878
I3    I     I_    0.758844 0.697990 0.680935 -0.281072
I4    I     I_    0.933822 0.343156 0.753283 -0.278963
I5    I     I_    0.986439 0.590437 0.922294 -0.203667
O12   O     O_3   0.207644 0.292574 0.779686 -0.549116
C32   C     C_3   0.268773 0.173586 0.747660 -0.213232
H15   H     H_    0.229970 0.134787 0.682507 0.185487
H16   H     H_    0.385000 0.178670 0.717109 0.140110
H17   H     H_    0.238140 0.107425 0.814096 0.194638
O13   O     O_3   0.284858 0.300747 0.122063 -0.635008
C33   C     C_3   0.348252 0.183143 0.121542 -0.196633
H18   H     H_    0.463161 0.192625 0.107443 0.174734
H19   H     H_    0.326983 0.116248 0.061523 0.174998
H20   H     H_    0.303166 0.142204 0.200855 0.240968
I6    I     I_    0.044340 0.212444 0.021027 -0.326179

loop_
_geom_bond_atom_site_label_1
_geom_bond_atom_site_label_2
_ccdc_geom_bond_type
C4    C8    A    
C9    C25   A    
C29   H7    S    
C26   C27   A    
C23   O7    A    
C3    C7    A    
C5    C6    A    
C31   H13   S    
C22   O6    A    
C15   C16   A    
C23   O8    A    
O11   C31   S    
C18   C19   A    
C6    I4    S    
C13   O10   S    
C16   C17   A    
C18   N2    A    
C30   H11   S    
C1    O2    A    
O4    Zn2   S    
C20   N1    A    
C10   C26   A    
O12   C32   S    
C9    O9    S    
C13   C14   A    
C12   O3    A    
C8    C25   A    
O7    Zn1   S    
C33   H20   S    
C30   H10   S    
C29   H8    S    
O10   C30   S    
C26   O12   S    
C11   H5    S    
N1    Zn1   S    
C33   H19   S    
C33   H18   S    
C31   H14   S    
C32   H15   S    
C32   H16   S    
C2    C4    A    
O3    Zn1   S    
C29   H6    S    
C22   O5    A    
C18   H1    S    
O8    Zn2   S    
C10   C12   S    
C24   I5    S    
O1    Zn1   S    
C28   O13   S    
C16   I1    S    
O2    Zn2   S    
C27   I6    S    
N2    Zn2   S    
C30   H9    S    
O9    C29   S    
C11   C17   A    
C7    H4    S    
C8    H3    S    
C4    C5    A    
C19   N1    A    
C9    C24   A    
C6    C7    A    
C21   N2    A    
C1    C17   S    
C32   H17   S    
C15   O11   S    
C14   C22   S    
C12   O4    A    
C2    C3    A    
O13   C33   S    
C3    C10   A    
C11   C13   A    
C31   H12   S    
C5    C24   A    
C23   C25   S    
C20   I2    S    
C21   I3    S    
O5    Zn1   S    
C20   C21   A    
C27   C28   A    
O6    Zn2   S    
C14   C15   A    
C2    C28   A    
C19   H2    S    
C1    O1    A    
