data_mof_unit_36703.cif
_audit_creation_date              2012-12-11T14:01:23-0500
_audit_creation_method            fapswitch 2.2
_symmetry_space_group_name_H-M    P1
_symmetry_Int_Tables_number       1
_space_group_crystal_system       triclinic
_cell_length_a                    19.024231
_cell_length_b                    10.967476
_cell_length_c                    18.754705
_cell_angle_alpha                 90.025274
_cell_angle_beta                  89.683088
_cell_angle_gamma                 89.975109
_cell_volume                      3913.06726744

loop_
_atom_site_label
_atom_site_type_symbol
_atom_type_description
_atom_site_fract_x
_atom_site_fract_y
_atom_site_fract_z
_atom_type_partial_charge
C1    C     C_R   0.272561 0.040916 0.854104 0.560823
C2    C     C_R   0.727342 0.041069 0.145992 0.558387
C3    C     C_R   0.772561 0.540916 0.854104 0.560823
C4    C     C_R   0.227342 0.541069 0.145992 0.558396
C5    C     C_R   0.512118 0.056543 0.061222 -0.081561
C6    C     C_R   0.527497 0.055586 0.913755 -0.086467
C7    C     C_R   0.012111 0.556539 0.061225 -0.081559
C8    C     C_R   0.027492 0.555589 0.913759 -0.086468
C9    C     C_R   0.009418 0.665486 0.023002 -0.104919
C10   C     C_R   0.020770 0.665615 0.949886 -0.099089
C11   C     C_R   0.509424 0.165488 0.022997 -0.104920
C12   C     C_R   0.520773 0.165614 0.949880 -0.099086
C13   C     C_2   0.246053 0.574349 0.918520 -0.096875
C14   C     C_2   0.755653 0.576109 0.081525 -0.084572
C15   C     C_2   0.746052 0.074350 0.918520 -0.096870
C16   C     C_2   0.255653 0.076109 0.081525 -0.084565
C17   C     C_2   0.248772 0.577517 0.074655 -0.114383
C18   C     C_2   0.750995 0.575918 0.925815 -0.124308
C19   C     C_2   0.748772 0.077517 0.074656 -0.114388
C20   C     C_2   0.250995 0.075918 0.925815 -0.124311
C21   C     C_2   0.283800 0.496991 0.033505 -0.140957
C22   C     C_2   0.718953 0.492273 0.967684 -0.143387
C23   C     C_2   0.783799 0.996990 0.033505 -0.140957
C24   C     C_2   0.218953 0.992273 0.967683 -0.143392
C25   C     C_2   0.295321 0.516362 0.957203 0.065024
C26   C     C_2   0.709575 0.508340 0.044868 0.042807
C27   C     C_2   0.795320 0.016360 0.957203 0.065023
C28   C     C_2   0.209575 0.008340 0.044868 0.042804
C29   C     C_2   0.485401 0.828986 0.571048 -0.106144
C30   C     C_2   0.486668 0.839939 0.415117 -0.121298
C31   C     C_2   0.985402 0.328986 0.571048 -0.106146
C32   C     C_2   0.986669 0.339938 0.415118 -0.121298
C33   C     C_2   0.466460 0.742419 0.451937 -0.160174
C34   C     C_2   0.451957 0.750198 0.527681 -0.147084
C35   C     C_2   0.966463 0.242417 0.451937 -0.160160
C36   C     C_2   0.951960 0.250194 0.527681 -0.147033
C37   C     C_2   0.247152 0.561556 0.584381 0.255593
C38   C     C_2   0.753152 0.561295 0.415433 0.261602
C39   C     C_2   0.747151 0.061552 0.584383 0.255681
C40   C     C_2   0.253153 0.061278 0.415426 0.261728
C41   C     C_2   0.238166 0.571457 0.426951 -0.089076
C42   C     C_2   0.761986 0.571099 0.572915 -0.090369
C43   C     C_2   0.738167 0.071456 0.426952 -0.089167
C44   C     C_2   0.261985 0.071107 0.572913 -0.090572
C45   C     C_R   0.474804 0.822184 0.850139 0.543828
C46   C     C_R   0.556756 0.819233 0.138136 0.550488
C47   C     C_R   0.974804 0.322185 0.850139 0.543818
C48   C     C_R   0.056755 0.319233 0.138136 0.550466
C49   C     C_2   0.183804 0.554323 0.472043 -0.148246
C50   C     C_2   0.816471 0.554532 0.527872 -0.150597
C51   C     C_2   0.683800 0.054354 0.472041 -0.148380
C52   C     C_2   0.316479 0.054591 0.527875 -0.150933
C53   C     C_2   0.188513 0.582452 0.547273 -0.158589
C54   C     C_2   0.811744 0.582479 0.452607 -0.157698
C55   C     C_2   0.688511 0.082457 0.547274 -0.158505
C56   C     C_2   0.311748 0.082471 0.452600 -0.157777
C57   C     C_R   0.260376 0.634347 0.850692 0.557414
C58   C     C_R   0.740101 0.633847 0.149700 0.551537
C59   C     C_R   0.760376 0.134346 0.850691 0.557413
C60   C     C_R   0.240101 0.133847 0.149700 0.551548
C61   C     C_R   0.273735 0.043235 0.646750 0.529817
C62   C     C_R   0.726355 0.043473 0.353154 0.533909
C63   C     C_R   0.773735 0.543235 0.646751 0.529822
C64   C     C_R   0.226355 0.543474 0.353154 0.533960
C65   C     C_R   0.467926 0.823258 0.646003 0.536522
C66   C     C_R   0.527413 0.824667 0.350510 0.559996
C67   C     C_R   0.967926 0.323258 0.646003 0.536517
C68   C     C_R   0.027413 0.324667 0.350510 0.559977
C69   C     C_R   0.260286 0.634092 0.647329 0.557914
C70   C     C_R   0.739783 0.634033 0.352615 0.567947
C71   C     C_R   0.760286 0.134094 0.647328 0.558046
C72   C     C_R   0.239783 0.134032 0.352615 0.568142
C73   C     C_R   0.538251 0.830180 0.062406 -0.001565
C74   C     C_R   0.517326 0.831608 0.914915 -0.008101
C75   C     C_R   0.038248 0.330178 0.062406 -0.001566
C76   C     C_R   0.017325 0.331609 0.914915 -0.008102
C77   C     C_R   0.525777 0.943698 0.026443 0.020380
C78   C     C_R   0.524481 0.943739 0.950966 0.018039
C79   C     C_R   0.025772 0.443696 0.026445 0.020378
C80   C     C_R   0.024477 0.443740 0.950967 0.018038
C81   C     C_R   0.533814 0.723127 0.950066 -0.134090
C82   C     C_R   0.545395 0.723132 0.022387 -0.142521
C83   C     C_R   0.033814 0.223128 0.950066 -0.134095
C84   C     C_R   0.045393 0.223132 0.022387 -0.142525
Cr1   Cr    Cr6+3 0.230530 0.836340 0.748870 1.026006
Cr2   Cr    Cr6+3 0.769470 0.836340 0.251130 1.029058
Cr3   Cr    Cr6+3 0.730530 0.336340 0.748870 1.026041
Cr4   Cr    Cr6+3 0.269470 0.336340 0.251130 1.029063
Cr5   Cr    Cr6+3 0.387420 0.989430 0.750820 1.027063
Cr6   Cr    Cr6+3 0.612580 0.989430 0.249180 1.025870
Cr7   Cr    Cr6+3 0.887420 0.489430 0.750820 1.027105
Cr8   Cr    Cr6+3 0.112580 0.489430 0.249180 1.025948
Cr9   Cr    Cr6+3 0.385640 0.677860 0.749230 1.071037
Cr10  Cr    Cr6+3 0.614360 0.677860 0.250770 1.072910
Cr11  Cr    Cr6+3 0.885640 0.177860 0.749230 1.071111
Cr12  Cr    Cr6+3 0.114360 0.177860 0.250770 1.073041
H1    H     H_    0.533205 0.636213 0.922581 0.173590
H2    H     H_    0.557737 0.637170 0.047526 0.182787
H3    H     H_    0.033206 0.136215 0.922581 0.173586
H4    H     H_    0.057736 0.137170 0.047525 0.182780
H5    H     H_    0.132244 0.528155 0.452486 0.143543
H6    H     H_    0.868108 0.528993 0.547490 0.149034
H7    H     H_    0.632235 0.028220 0.452481 0.143548
H8    H     H_    0.368123 0.029105 0.547497 0.149092
H9    H     H_    0.144276 0.630996 0.570740 0.118186
H10   H     H_    0.855859 0.631343 0.429209 0.118259
H11   H     H_    0.644277 0.131006 0.570743 0.118224
H12   H     H_    0.355864 0.131321 0.429192 0.118298
H13   H     H_    0.289978 0.599842 0.444256 0.138962
H14   H     H_    0.710090 0.598825 0.555522 0.148299
H15   H     H_    0.789986 0.099794 0.444261 0.139031
H16   H     H_    0.210080 0.098766 0.555515 0.148391
H17   H     H_    0.499493 0.064555 0.116919 0.159554
H18   H     H_    0.535447 0.058562 0.856609 0.129849
H19   H     H_    0.999481 0.564545 0.116922 0.159549
H20   H     H_    0.035440 0.558570 0.856612 0.129855
H21   H     H_    0.998695 0.750338 0.050418 0.163295
H22   H     H_    0.021850 0.750732 0.920754 0.154231
H23   H     H_    0.498701 0.250342 0.050411 0.163300
H24   H     H_    0.521853 0.250730 0.920747 0.154229
H25   H     H_    0.304617 0.413207 0.056007 0.171467
H26   H     H_    0.700410 0.406804 0.945291 0.174485
H27   H     H_    0.804616 0.913207 0.056007 0.171467
H28   H     H_    0.200410 0.906805 0.945291 0.174484
H29   H     H_    0.228180 0.661947 0.052903 0.131774
H30   H     H_    0.769568 0.662205 0.946921 0.115811
H31   H     H_    0.728181 0.161948 0.052904 0.131773
H32   H     H_    0.269568 0.162205 0.946921 0.115807
H33   H     H_    0.195371 0.595115 0.942740 0.095217
H34   H     H_    0.803672 0.606963 0.055568 0.098967
H35   H     H_    0.695371 0.095119 0.942740 0.095219
H36   H     H_    0.303672 0.106963 0.055568 0.098966
H37   H     H_    0.466702 0.652018 0.428183 0.170658
H38   H     H_    0.416615 0.681291 0.549118 0.189946
H39   H     H_    0.966705 0.152016 0.428183 0.170662
H40   H     H_    0.916621 0.181283 0.549119 0.189960
H41   H     H_    0.482299 0.930973 0.437692 0.095580
H42   H     H_    0.520750 0.899206 0.551441 0.083346
H43   H     H_    0.982299 0.430972 0.437692 0.095587
H44   H     H_    0.020749 0.399210 0.551441 0.083349
O1    O     O_R   0.215090 0.709860 0.828130 -0.533015
O2    O     O_R   0.784910 0.709860 0.171870 -0.528771
O3    O     O_R   0.715090 0.209860 0.828130 -0.533030
O4    O     O_R   0.284910 0.209860 0.171870 -0.528782
O5    O     O_R   0.445660 0.919250 0.676780 -0.509094
O6    O     O_R   0.554340 0.919250 0.323220 -0.504252
O7    O     O_R   0.945660 0.419250 0.676780 -0.509093
O8    O     O_R   0.054340 0.419250 0.323220 -0.504258
O9    O     O_R   0.456260 0.718170 0.670000 -0.504905
O10   O     O_R   0.543740 0.718170 0.330000 -0.493916
O11   O     O_R   0.956260 0.218170 0.670000 -0.504905
O12   O     O_R   0.043740 0.218170 0.330000 -0.493906
O13   O     O_R   0.320940 0.626760 0.674370 -0.475129
O14   O     O_R   0.679060 0.626760 0.325630 -0.460480
O15   O     O_R   0.820940 0.126760 0.674370 -0.475057
O16   O     O_R   0.179060 0.126760 0.325630 -0.460337
O17   O     O_3   0.334530 0.834540 0.749640 -0.257969
O18   O     O_3   0.665470 0.834540 0.250360 -0.276097
O19   O     O_3   0.834530 0.334540 0.749640 -0.257994
O20   O     O_3   0.165470 0.334540 0.250360 -0.276143
O21   O     O_R   0.236990 0.958390 0.823710 -0.500926
O22   O     O_R   0.763010 0.958390 0.176290 -0.499924
O23   O     O_R   0.736990 0.458390 0.823710 -0.500938
O24   O     O_R   0.263010 0.458390 0.176290 -0.499934
O25   O     O_R   0.332380 0.074750 0.830850 -0.488312
O26   O     O_R   0.667620 0.074750 0.169150 -0.494410
O27   O     O_R   0.832380 0.574750 0.830850 -0.488300
O28   O     O_R   0.167620 0.574750 0.169150 -0.494386
O29   O     O_R   0.445800 0.917770 0.825070 -0.506154
O30   O     O_R   0.554200 0.917770 0.174930 -0.521963
O31   O     O_R   0.945800 0.417770 0.825070 -0.506161
O32   O     O_R   0.054200 0.417770 0.174930 -0.521969
O33   O     O_R   0.456410 0.716580 0.829970 -0.493457
O34   O     O_R   0.543590 0.716580 0.170030 -0.494303
O35   O     O_R   0.956410 0.216580 0.829970 -0.493463
O36   O     O_R   0.043590 0.216580 0.170030 -0.494312
O37   O     O_R   0.321080 0.625290 0.822650 -0.453535
O38   O     O_R   0.678920 0.625290 0.177350 -0.475765
O39   O     O_R   0.821080 0.125290 0.822650 -0.453529
O40   O     O_R   0.178920 0.125290 0.177350 -0.475751
O41   O     O_R   0.214930 0.711450 0.668160 -0.544392
O42   O     O_R   0.785070 0.711450 0.331840 -0.544171
O43   O     O_R   0.714930 0.211450 0.668160 -0.544382
O44   O     O_R   0.285070 0.211450 0.331840 -0.544208
O45   O     O_R   0.236850 0.959870 0.675420 -0.482541
O46   O     O_R   0.763150 0.959870 0.324580 -0.481371
O47   O     O_R   0.736850 0.459870 0.675420 -0.482503
O48   O     O_R   0.263150 0.459870 0.324580 -0.481374
O49   O     O_R   0.332230 0.076350 0.670880 -0.522602
O50   O     O_R   0.667770 0.076350 0.329120 -0.518469
O51   O     O_R   0.832230 0.576350 0.670880 -0.522583
O52   O     O_R   0.167770 0.576350 0.329120 -0.518366
O53   O     O_3   0.301897 0.492149 0.556970 -0.583272
C85   C     C_3   0.288015 0.368724 0.571719 -0.104470
H45   H     H_    0.240719 0.336499 0.542580 0.122794
H46   H     H_    0.281873 0.352468 0.630055 0.123357
H47   H     H_    0.333538 0.313989 0.553010 0.158692
O54   O     O_3   0.698620 0.491298 0.442641 -0.568722
C86   C     C_3   0.713528 0.367879 0.428782 -0.101707
H48   H     H_    0.760560 0.336945 0.458837 0.121403
H49   H     H_    0.720679 0.350723 0.370637 0.124960
H50   H     H_    0.668053 0.312718 0.447046 0.159557
O55   O     O_3   0.801898 0.992131 0.556986 -0.583241
C87   C     C_3   0.787922 0.868672 0.571567 -0.104553
H51   H     H_    0.740794 0.836541 0.542139 0.122994
H52   H     H_    0.781455 0.852262 0.629846 0.123079
H53   H     H_    0.833530 0.813964 0.553078 0.158694
O56   O     O_3   0.198603 0.991300 0.442623 -0.568683
C88   C     C_3   0.213687 0.867808 0.429172 -0.101837
H54   H     H_    0.260531 0.837174 0.459622 0.121666
H55   H     H_    0.221230 0.850213 0.371122 0.124675
H56   H     H_    0.168136 0.812711 0.447274 0.159594
I1    I     I_    0.390474 0.440323 0.916423 -0.400274
I2    I     I_    0.628683 0.403643 0.094068 -0.425501
I3    I     I_    0.890470 0.940313 0.916420 -0.400239
I4    I     I_    0.128682 0.903643 0.094067 -0.425397

loop_
_geom_bond_atom_site_label_1
_geom_bond_atom_site_label_2
_ccdc_geom_bond_type
C16   C28   D    
C85   H46   S    
O55   C87   S    
C40   O56   S    
C28   I4    S    
Cr9   O33   S    
C72   O16   A    
C39   O55   S    
Cr8   O8    S    
C9    H21   S    
Cr3   O23   S    
C35   C36   S    
C53   H9    S    
C11   H23   S    
C2    O22   A    
C38   C70   S    
C81   C82   A    
C3    O27   A    
C62   O50   A    
C77   C78   A    
C31   C67   S    
C29   H42   S    
Cr1   O1    S    
C50   C54   S    
C75   C79   A    
Cr1   O17   S    
C25   I1    S    
C10   H22   S    
Cr7   O27   S    
C47   C76   S    
C66   O10   A    
C37   C69   S    
Cr3   O43   S    
C49   C53   S    
C75   C84   A    
Cr4   O44   S    
C85   H47   S    
C13   C57   S    
C34   H38   S    
C51   H7    S    
Cr12  O12   S    
C24   H28   S    
C88   H56   S    
Cr1   O21   S    
C3    C18   S    
C46   O34   A    
C16   C60   S    
C7    H19   S    
Cr11  O35   S    
C6    H18   S    
C48   O32   A    
Cr11  O11   S    
Cr9   O9    S    
C70   O42   A    
C39   C55   D    
C20   C24   D    
O56   C88   S    
C40   C56   D    
C86   H50   S    
C38   O54   S    
O54   C86   S    
Cr2   O22   S    
C23   C27   S    
C18   C22   D    
Cr12  O36   S    
C9    C10   A    
C2    O26   A    
Cr7   O19   S    
C68   O8    A    
C3    O23   A    
C32   C68   S    
C37   C53   D    
C44   C52   D    
C85   H45   S    
C1    O21   A    
C86   H48   S    
Cr10  O18   S    
C30   H41   S    
C12   H24   S    
Cr6   O26   S    
C27   I3    S    
C47   O31   A    
C82   H2    S    
C48   C75   S    
C13   C25   D    
C60   O4    A    
C43   H15   S    
C36   H40   S    
C76   C83   A    
C41   C49   D    
C64   O52   A    
C86   H49   S    
C61   O45   A    
C22   H26   S    
Cr1   O45   S    
C14   C58   S    
C54   H10   S    
C67   O11   A    
C84   H4    S    
C32   C35   D    
C71   O43   A    
C72   O44   A    
C32   H43   S    
C88   H54   S    
C35   H39   S    
Cr9   O37   S    
C19   C23   D    
Cr3   O47   S    
C41   H13   S    
C51   C55   S    
C39   C71   S    
Cr4   O24   S    
Cr7   O51   S    
C29   C34   D    
C69   O13   A    
Cr7   O7    S    
C46   O30   A    
C55   H11   S    
C45   C74   S    
C37   O53   S    
Cr6   O18   S    
Cr5   O5    S    
C17   H29   S    
C68   O12   A    
C45   O33   A    
Cr2   O46   S    
Cr8   O28   S    
C15   C27   D    
C83   C84   A    
C38   C54   D    
C87   H53   S    
C1    O25   A    
Cr10  O14   S    
C71   O15   A    
Cr6   O30   S    
C4    O24   A    
C33   C34   S    
C58   O38   A    
C64   O48   A    
C14   C26   D    
Cr9   O17   S    
Cr2   O18   S    
Cr5   O25   S    
C30   C66   S    
C42   C50   D    
C29   C65   S    
C4    C17   S    
C44   H16   S    
Cr11  O39   S    
Cr12  O20   S    
C87   H52   S    
C50   H6    S    
C63   O47   A    
Cr7   O31   S    
C5    C11   A    
C67   O7    A    
Cr11  O19   S    
C76   C80   A    
C74   C81   A    
C5    C77   A    
C6    C12   A    
C73   C82   A    
Cr2   O2    S    
C7    C79   A    
Cr6   O50   S    
C7    C9    A    
C14   H34   S    
C21   C25   S    
C52   H8    S    
C1    C20   S    
Cr1   O41   S    
C58   O2    A    
C40   C72   S    
C30   C33   D    
C5    H17   S    
C2    C19   S    
C70   O14   A    
C15   C59   S    
Cr10  O34   S    
C33   H37   S    
C24   C28   S    
Cr2   O42   S    
Cr10  O38   S    
C45   O29   A    
Cr8   O20   S    
C23   H27   S    
C11   C12   A    
Cr5   O17   S    
C57   O1    A    
C44   C61   S    
C60   O40   A    
C74   C78   A    
C41   C64   S    
C62   O46   A    
C20   H32   S    
C26   I2    S    
Cr12  O40   S    
C59   O39   A    
C42   H14   S    
Cr5   O29   S    
Cr6   O6    S    
C18   H30   S    
C57   O37   A    
C43   C51   D    
Cr12  O16   S    
C81   H1    S    
Cr8   O32   S    
C63   O51   A    
C52   C56   S    
C19   H31   S    
C88   H55   S    
Cr3   O19   S    
Cr9   O13   S    
Cr11  O15   S    
Cr4   O20   S    
Cr5   O49   S    
C16   H36   S    
C17   C21   D    
C66   O6    A    
C6    C78   A    
C8    H20   S    
C47   O35   A    
C59   O3    A    
C79   C80   A    
C4    O28   A    
Cr10  O10   S    
Cr4   O48   S    
C15   H35   S    
C87   H51   S    
C43   C62   S    
C73   C77   A    
C8    C10   A    
O53   C85   S    
C22   C26   S    
C8    C80   A    
C65   O9    A    
C56   H12   S    
C31   C36   D    
C21   H25   S    
C83   H3    S    
C61   O49   A    
Cr3   O3    S    
C31   H44   S    
C65   O5    A    
C42   C63   S    
Cr4   O4    S    
C46   C73   S    
C13   H33   S    
Cr8   O52   S    
C49   H5    S    
C69   O41   A    
C48   O36   A    
