data_mof_unit_57763.cif
_audit_creation_date              2012-12-11T17:23:11-0500
_audit_creation_method            fapswitch 2.2
_symmetry_space_group_name_H-M    P1
_symmetry_Int_Tables_number       1
_space_group_crystal_system       triclinic
_cell_length_a                    8.375259
_cell_length_b                    16.379313
_cell_length_c                    27.010015
_cell_angle_alpha                 96.268035
_cell_angle_beta                  92.509324
_cell_angle_gamma                 86.914006
_cell_volume                      3675.0869488

loop_
_atom_site_label
_atom_site_type_symbol
_atom_type_description
_atom_site_fract_x
_atom_site_fract_y
_atom_site_fract_z
_atom_type_partial_charge
Ba1   Ba    Ba6+2 0.851940 0.461560 0.523510 1.619631
Ba2   Ba    Ba6+2 0.337880 0.538370 0.476480 1.633027
C1    C     C_3   0.590873 0.173031 0.654592 -0.367818
C2    C     C_R   0.912102 0.579533 0.176649 0.572736
C3    C     C_2   0.771576 0.554172 0.273105 -0.086728
C4    C     C_3   0.121009 0.279733 0.657605 0.289274
C5    C     C_3   0.751835 0.582773 0.327617 -0.054834
C6    C     C_1   0.987910 0.493568 0.344905 0.063472
C7    C     C_2   0.031287 0.491985 0.297570 -0.110711
C8    C     C_2   0.914580 0.520067 0.257636 0.177396
C9    C     C_R   0.031260 0.506212 0.102375 -0.115083
C10   C     C_R   0.077892 0.440432 0.130586 -0.026782
C11   C     C_R   0.164883 0.371845 0.106612 0.165626
C12   C     C_3   0.613724 0.255204 0.635294 0.344196
C13   C     C_R   0.944840 0.574878 0.125543 -0.018793
C14   C     C_2   0.858814 0.535751 0.362007 -0.289203
C15   C     C_2   0.354568 0.485063 0.640638 -0.285248
C16   C     C_3   0.087233 0.257685 0.709192 -0.327325
C17   C     C_R   0.178537 0.428431 0.974489 0.031831
C18   C     C_R   0.074926 0.572172 0.973488 0.031517
C19   C     C_R   0.142969 0.498471 0.948260 0.018657
C20   C     C_R   0.241524 0.355953 0.947207 -0.097485
C21   C     C_R   0.273957 0.353243 0.896806 -0.061877
C22   C     C_R   0.244499 0.422427 0.870877 -0.024443
C23   C     C_3   0.530802 0.665274 0.627701 0.279637
C24   C     C_R   0.178346 0.495103 0.896511 -0.081967
C25   C     C_R   0.149853 0.564752 0.870541 -0.053102
C26   C     C_R   0.183806 0.560567 0.819288 0.597074
C27   C     C_R   0.281015 0.420453 0.819907 0.578333
C28   C     C_3   0.121792 0.275934 0.406244 0.386946
C29   C     C_2   0.446190 0.473647 0.729416 -0.066433
C30   C     C_3   0.495418 0.485432 0.677344 -0.051379
C31   C     C_1   0.212303 0.513235 0.655864 0.063657
C32   C     C_2   0.168916 0.508112 0.702336 -0.112453
C33   C     C_2   0.291571 0.487536 0.742249 0.202716
C34   C     C_3   0.520066 0.696169 0.682759 -0.372001
C35   C     C_R   0.150083 0.432920 0.026752 0.002939
C36   C     C_R   0.069569 0.503577 0.050812 0.037845
C37   C     C_R   0.024618 0.571453 0.023580 0.037530
C38   C     C_R   0.199289 0.368878 0.055984 -0.126990
C39   C     C_R   0.888496 0.637477 0.096856 -0.062349
C40   C     C_3   0.020151 0.200860 0.395020 -0.305780
C41   C     C_R   0.065456 0.644114 0.947753 0.114382
C42   C     C_R   0.096005 0.638658 0.896867 -0.085799
C43   C     C_R   0.923372 0.634538 0.046846 -0.079819
C44   C     C_R   0.379541 0.265774 0.517972 -0.093623
C45   C     C_3   0.068498 0.718605 0.341330 0.324639
C46   C     C_R   0.521111 0.240585 0.493758 0.047950
C47   C     C_R   0.571591 0.157397 0.488686 -0.135162
C48   C     C_R   0.480154 0.098584 0.507698 0.255639
C49   C     C_R   0.335066 0.124877 0.530439 -0.201359
C50   C     C_R   0.284651 0.208361 0.535301 0.025435
C51   C     C_R   0.614388 0.851573 0.503411 -0.135687
C52   C     C_3   0.073955 0.721429 0.589373 0.376578
C53   C     C_R   0.663862 0.768765 0.500949 0.044111
C54   C     C_R   0.705902 0.907972 0.482212 0.228734
C55   C     C_R   0.801792 0.740084 0.476408 -0.296003
C56   C     C_3   0.077060 0.745691 0.289138 -0.087045
C57   C     C_R   0.900547 0.794662 0.458175 0.022655
C58   C     C_R   0.852296 0.878956 0.460149 0.040103
C59   C     C_3   0.163420 0.800408 0.602006 -0.313892
C60   C     C_3   0.666913 0.365702 0.376430 0.282226
C61   C     C_3   0.679798 0.345027 0.320434 -0.362781
C62   C     C_3   0.530474 0.755611 0.358608 0.357416
C63   C     C_3   0.491590 0.836329 0.336664 -0.366782
C64   C     C_R   0.035210 0.445168 0.181691 0.615484
H1    H     H_    0.715162 0.247316 0.609660 0.085119
H2    H     H_    0.778511 0.298042 0.312427 0.136379
H3    H     H_    0.704271 0.400781 0.302857 0.073309
H4    H     H_    0.565654 0.320830 0.303974 0.136564
H5    H     H_    0.501878 0.273268 0.614798 -0.047698
H6    H     H_    0.565181 0.126007 0.622831 0.078643
H7    H     H_    0.411773 0.644305 0.613632 0.020479
H8    H     H_    0.621012 0.612992 0.623553 0.048815
H9    H     H_    0.474096 0.648404 0.703649 0.080480
H10   H     H_    0.640297 0.712392 0.698582 0.124297
H11   H     H_    0.115820 0.309640 0.737415 0.124902
H12   H     H_    0.052430 0.165612 0.359045 0.106769
H13   H     H_    0.137703 0.658856 0.342066 0.062394
H14   H     H_    0.941424 0.710338 0.348824 -0.066251
H15   H     H_    0.199921 0.763302 0.282714 0.138468
H16   H     H_    0.050308 0.693051 0.261242 0.120699
H17   H     H_    0.662993 0.745721 0.359573 -0.075840
H18   H     H_    0.488025 0.761664 0.397330 0.073085
H19   H     H_    0.559139 0.885951 0.358107 0.075106
H20   H     H_    0.362002 0.853461 0.338685 0.153625
H21   H     H_    0.057547 0.339751 0.653065 0.090465
H22   H     H_    0.526241 0.830692 0.297171 0.122203
H23   H     H_    0.038895 0.160038 0.425243 0.085945
H24   H     H_    0.152041 0.471333 0.287710 0.144211
H25   H     H_    0.538518 0.462381 0.757690 0.098227
H26   H     H_    0.322704 0.296027 0.878084 0.120105
H27   H     H_    0.264714 0.299164 0.963518 0.067886
H28   H     H_    0.268748 0.315406 0.040861 0.066380
H29   H     H_    0.813376 0.688761 0.112784 0.126346
H30   H     H_    0.251858 0.285510 0.654992 -0.015995
H31   H     H_    0.083772 0.694387 0.878466 0.123704
H32   H     H_    0.046963 0.524670 0.712724 0.129261
H33   H     H_    0.862512 0.680879 0.026626 0.107225
H34   H     H_    0.892040 0.220006 0.392207 0.136286
H35   H     H_    0.846099 0.551414 0.401766 0.083509
H36   H     H_    0.383292 0.486893 0.602208 0.067931
H37   H     H_    0.507478 0.871806 0.523324 0.113296
H38   H     H_    0.261791 0.080424 0.544224 0.093977
H39   H     H_    0.680173 0.138957 0.469223 0.107528
H40   H     H_    0.958579 0.245652 0.711305 0.141169
H41   H     H_    0.840093 0.675800 0.475683 0.073492
H42   H     H_    0.160984 0.202058 0.717458 0.121726
H43   H     H_    0.089798 0.306258 0.443493 0.075107
H44   H     H_    0.864661 0.774997 0.615301 0.202216
H45   H     H_    0.119141 0.835224 0.636754 0.107775
H46   H     H_    0.853449 0.686786 0.578202 0.175549
H47   H     H_    0.119296 0.689652 0.554042 0.097788
H48   H     H_    0.145921 0.839864 0.571067 0.094653
H49   H     H_    0.437183 0.751453 0.687517 0.136588
H50   H     H_    0.489028 0.178652 0.679942 0.129660
H51   H     H_    0.986737 0.863361 0.308891 0.203095
H52   H     H_    0.847729 0.796592 0.286185 0.194122
H53   H     H_    0.172977 0.250683 0.115515 0.177340
H54   H     H_    0.345445 0.297950 0.131366 0.173544
H55   H     H_    0.678275 0.571546 0.246574 0.124734
H56   H     H_    0.292647 0.786278 0.607655 0.128359
H57   H     H_    0.944931 0.754740 0.956597 0.171019
H58   H     H_    0.144102 0.757587 0.969467 0.183304
H59   H     H_    0.983367 0.979916 0.469193 0.189367
H60   H     H_    0.887131 0.963139 0.412860 0.175028
H61   H     H_    0.293384 0.370957 0.489585 0.195581
H62   H     H_    0.410088 0.384922 0.544530 0.199143
H63   H     H_    0.315472 0.214653 0.372952 0.192404
H64   H     H_    0.350280 0.302023 0.407784 0.180667
H65   H     H_    0.782835 0.387109 0.392552 0.015741
H66   H     H_    0.572729 0.415359 0.383312 0.092633
H67   H     H_    0.701237 0.152877 0.675138 0.132346
N1    N     N_R   0.954925 0.514690 0.204614 -0.429086
N2    N     N_3   0.325948 0.350107 0.523857 -0.465116
N3    N     N_3   0.289175 0.248435 0.407032 -0.533858
N4    N     N_R   0.248521 0.488832 0.794320 -0.425077
N5    N     N_2   0.527630 0.013081 0.504250 -0.228203
N6    N     N_2   0.659070 0.993758 0.484667 -0.237551
N7    N     N_3   0.906402 0.743181 0.582273 -0.531324
N8    N     N_3   0.963631 0.814628 0.281586 -0.472452
N9    N     N_3   0.220919 0.304288 0.133382 -0.430867
N10   N     N_3   0.042630 0.724798 0.973606 -0.510890
N11   N     N_3   0.953032 0.934600 0.440506 -0.474681
O1    O     O_2   0.915540 0.542930 0.617950 -0.470905
O2    O     O_2   0.233572 0.791229 0.469490 -0.474043
O3    O     O_3   0.135487 0.777732 0.376575 -0.589491
O4    O     O_3   0.147530 0.542870 0.557780 -0.493473
O5    O     O_3   0.552080 0.402920 0.475380 -0.501546
O6    O     O_2   0.387280 0.697260 0.523450 -0.469608
O7    O     O_3   0.576453 0.730005 0.602356 -0.646638
O8    O     O_2   0.431605 0.530772 0.322577 -0.494069
O9    O     O_3   0.454240 0.691062 0.329510 -0.592841
O10   O     O_2   0.066971 0.386709 0.205409 -0.561017
O11   O     O_2   0.342181 0.357778 0.798400 -0.602048
O12   O     O_3   0.627659 0.294863 0.396951 -0.644192
O13   O     O_2   0.846423 0.642474 0.196313 -0.609555
O14   O     O_2   0.158733 0.621534 0.797189 -0.595962
O15   O     O_3   0.664390 0.396160 0.588360 -0.498453
O16   O     O_2   0.822805 0.438472 0.673506 -0.496962
O17   O     O_3   0.091936 0.673276 0.629338 -0.633208
O18   O     O_3   0.646890 0.314150 0.675683 -0.587687
O19   O     O_2   0.802410 0.302720 0.476520 -0.462994
O20   O     O_3   0.070880 0.354870 0.564040 -0.458885
O21   O     O_2   0.951272 0.209324 0.530522 -0.485399
O22   O     O_3   0.065247 0.217966 0.621881 -0.602122
O23   O     O_2   0.274150 0.457040 0.382020 -0.467353
O24   O     O_3   0.042160 0.457070 0.442220 -0.502473
O25   O     O_3   0.525310 0.603770 0.411640 -0.475683
O26   O     O_3   0.094503 0.327599 0.368238 -0.630028
O27   O     O_3   0.637620 0.597020 0.524620 -0.478255
O28   O     O_3   0.118810 0.645070 0.435950 -0.492536
P1    P     P_3+3 0.086060 0.566890 0.610430 0.990124
P2    P     P_3+3 0.625290 0.314770 0.461990 0.966710
P3    P     P_3+3 0.092332 0.246757 0.562440 0.969668
P4    P     P_3+3 0.103630 0.433040 0.389570 0.977655
P5    P     P_3+3 0.097141 0.752509 0.435962 0.982972
P6    P     P_3+3 0.656803 0.410336 0.653483 0.961859
P7    P     P_3+3 0.568725 0.699766 0.538152 0.946080
P8    P     P_3+3 0.540242 0.598446 0.347193 0.946823

loop_
_geom_bond_atom_site_label_1
_geom_bond_atom_site_label_2
_ccdc_geom_bond_type
O28   P5    S    
Ba2   O6    S    
C19   C24   A    
C4    O22   S    
C12   O18   S    
C3    H55   S    
C12   H5    S    
H46   N7    S    
C41   N10   S    
C45   H13   S    
C15   H36   S    
H52   N8    S    
C30   P6    S    
C63   H20   S    
O26   P4    S    
C10   C11   A    
Ba1   P1    S    
O22   P3    S    
C60   C61   S    
C17   C19   A    
H61   N2    S    
C32   C33   S    
C35   C38   A    
C1    H50   S    
C56   H16   S    
C36   C37   A    
C55   C57   A    
H59   N11   S    
Ba2   O4    S    
C52   H47   S    
C44   C50   A    
O20   P3    S    
C23   H8    S    
C22   C27   A    
C62   H18   S    
C11   C38   A    
C34   H10   S    
Ba2   P4    S    
C44   N2    S    
C64   N1    Am   
C9    C13   A    
C25   C42   A    
C52   N7    S    
C61   H3    S    
Ba1   O20   S    
C6    C7    D    
C21   C22   A    
H58   N10   S    
Ba1   O5    S    
H53   N9    S    
C17   C35   A    
C7    C8    S    
O25   P8    S    
O23   P4    D    
Ba2   O27   S    
C37   C43   A    
C4    H30   S    
Ba2   O5    S    
O9    P8    S    
C57   C58   A    
C6    C14   D    
O27   P7    S    
C15   C31   D    
C45   H14   S    
C31   C32   D    
C46   P2    S    
C51   C53   A    
C4    C16   S    
C45   O3    S    
Ba1   P2    S    
C28   H43   S    
C49   C50   A    
C60   H66   S    
C57   P5    S    
C17   C20   A    
H54   N9    S    
C13   C39   A    
C43   H33   S    
C56   H15   S    
C38   H28   S    
C3    C5    S    
C54   N6    S    
C47   H39   S    
C23   C34   S    
Ba1   O24   S    
C49   H38   S    
C10   C64   A    
C62   O9    S    
Ba1   O27   S    
C4    H21   S    
C54   C58   A    
O2    P5    D    
C59   H56   S    
C1    H67   S    
O8    P8    D    
C9    C36   A    
H51   N8    S    
C41   C42   A    
C16   H40   S    
C62   H17   S    
C35   C36   A    
C34   H9    S    
C40   H34   S    
H63   N3    S    
O17   P1    S    
C42   H31   S    
O3    P5    S    
O7    P7    S    
C2    O13   D    
C61   H4    S    
Ba1   O15   S    
C12   H1    S    
O12   P2    S    
C26   O14   D    
C48   C49   A    
C24   C25   A    
C11   N9    S    
O5    P2    S    
C50   P3    S    
O16   P6    D    
C1    C12   S    
C28   O26   S    
C46   C47   A    
C55   H41   S    
O1    P1    D    
C40   H12   S    
C28   N3    S    
C53   C55   A    
C20   H27   S    
C29   C33   D    
H62   N2    S    
Ba1   O1    S    
C64   O10   D    
O15   P6    S    
C59   H45   S    
Ba2   O24   S    
C25   C26   A    
C18   C41   A    
C31   P1    S    
C63   H22   S    
C2    N1    Am   
C51   C54   A    
O24   P4    S    
C61   H2    S    
C5    C14   S    
C21   H26   S    
C53   P7    S    
C60   H65   S    
C29   C30   S    
H64   N3    S    
C26   N4    Am   
C8    N1    S    
C22   C24   A    
C7    H24   S    
C9    C10   A    
C6    P4    S    
C63   H19   S    
C52   C59   S    
O21   P3    D    
C27   N4    Am   
C29   H25   S    
O4    P1    S    
C27   O11   D    
C23   O7    S    
C40   H23   S    
C48   N5    S    
C62   C63   S    
C2    C13   A    
H44   N7    S    
C1    H6    S    
C18   C37   A    
C3    C8    D    
C33   N4    S    
C45   C56   S    
O19   P2    D    
C56   N8    S    
C39   H29   S    
C51   H37   S    
C16   H11   S    
Ba1   Ba2   S    
H60   N11   S    
C32   H32   S    
C60   O12   S    
C5    P8    S    
C23   H7    S    
C52   O17   S    
C16   H42   S    
O18   P6    S    
N5    N6    D    
Ba2   O25   S    
C44   C46   A    
C14   H35   S    
C18   C19   A    
Ba1   O19   S    
C47   C48   A    
H57   N10   S    
C59   H48   S    
C15   C30   S    
C39   C43   A    
C20   C21   A    
C28   C40   S    
Ba1   O4    S    
C34   H49   S    
Ba2   O23   S    
C58   N11   S    
Ba2   O28   S    
O6    P7    D    
