data_mof_unit_64219.cif
_audit_creation_date              2012-12-11T19:05:19-0500
_audit_creation_method            fapswitch 2.2
_symmetry_space_group_name_H-M    P1
_symmetry_Int_Tables_number       1
_space_group_crystal_system       triclinic
_cell_length_a                    8.20347
_cell_length_b                    15.032635
_cell_length_c                    22.890589
_cell_angle_alpha                 98.688033
_cell_angle_beta                  89.73378
_cell_angle_gamma                 98.733121
_cell_volume                      2757.63598628

loop_
_atom_site_label
_atom_site_type_symbol
_atom_type_description
_atom_site_fract_x
_atom_site_fract_y
_atom_site_fract_z
_atom_type_partial_charge
Ba1   Ba    Ba6+2 0.856840 0.543240 0.473380 1.683219
Ba2   Ba    Ba6+2 0.332990 0.456840 0.526630 1.686857
C1    C     C_3   0.725499 0.883395 0.334085 -0.261393
C2    C     C_R   0.194970 0.510419 0.926640 -0.037798
C3    C     C_R   0.151008 0.502205 0.865907 0.585414
C4    C     C_3   0.151382 0.735057 0.316154 0.323277
C5    C     C_R   0.864159 0.478335 0.889768 0.576863
C6    C     C_R   0.905184 0.478465 0.949787 -0.023918
C7    C     C_R   0.071032 0.497045 0.968536 -0.043396
C8    C     C_R   0.360395 0.531153 0.946628 -0.062407
C9    C     C_R   0.401124 0.534649 0.006381 -0.085029
C10   C     C_R   0.278733 0.516298 0.047936 -0.048089
C11   C     C_R   0.113123 0.501463 0.029448 -0.052902
C12   C     C_3   0.682458 0.788830 0.351207 0.335461
C13   C     C_R   0.783543 0.459973 0.991633 -0.097678
C14   C     C_R   0.824431 0.467919 0.051732 -0.055467
C15   C     C_R   0.989567 0.490391 0.071615 -0.037770
C16   C     C_3   0.142018 0.761447 0.254826 -0.303184
C17   C     C_R   0.033903 0.502025 0.132523 0.580662
C18   C     C_R   0.318640 0.511103 0.107287 0.662203
C19   C     C_2   0.813145 0.413586 0.760488 -0.088001
C20   C     C_3   0.770567 0.398035 0.695180 -0.113999
C21   C     C_1   0.002772 0.518536 0.684778 0.032308
C22   C     C_2   0.036873 0.533926 0.742653 -0.087263
C23   C     C_3   0.481824 0.330114 0.346212 0.365319
C24   C     C_2   0.941048 0.477052 0.784152 0.208126
C25   C     C_R   0.396145 0.571539 0.237331 0.568545
C26   C     C_R   0.447522 0.570173 0.295557 -0.072478
C27   C     C_R   0.187355 0.481075 0.314355 0.054612
C28   C     C_3   0.220080 0.740895 0.605802 0.260333
C29   C     C_R   0.144561 0.470640 0.253707 -0.167186
C30   C     C_R   0.245574 0.517988 0.213815 0.102785
C31   C     C_2   0.873159 0.462310 0.660619 -0.255470
C32   C     C_R   0.346390 0.823192 0.458508 0.053365
C33   C     C_R   0.576818 0.790826 0.513089 0.058372
C34   C     C_3   0.449452 0.307816 0.279775 0.299765
C35   C     C_R   0.760164 0.229241 0.515744 -0.261178
C36   C     C_R   0.850153 0.170963 0.538577 0.052864
C37   C     C_R   0.789758 0.077955 0.532868 -0.005284
C38   C     C_R   0.638643 0.041293 0.502072 0.051986
C39   C     C_R   0.553659 0.101644 0.475676 -0.002739
C40   C     C_3   0.203904 0.841058 0.623502 0.424974
C41   C     C_R   0.570710 0.946789 0.495379 0.042653
C42   C     C_R   0.418368 0.915509 0.463537 0.022750
C43   C     C_R   0.340451 0.976850 0.437756 -0.072334
C44   C     C_R   0.407801 0.067444 0.442924 -0.022160
C45   C     C_3   0.005230 0.241148 0.681202 0.326050
C46   C     C_R   0.646543 0.882504 0.520416 -0.103112
C47   C     C_R   0.429796 0.761348 0.481270 -0.259984
C48   C     C_R   0.616784 0.195330 0.482503 0.037551
C49   C     C_3   0.975998 0.258821 0.394068 0.328794
C50   C     C_3   0.981675 0.157830 0.373880 0.990680
C51   C     C_3   0.711256 0.657125 0.650575 0.302477
C52   C     C_3   0.726257 0.679839 0.717538 -0.383315
C53   C     C_3   0.259441 0.231105 0.207419 0.267388
C54   C     C_3   0.302358 0.137297 0.183914 -0.334359
C55   C     C_3   0.610138 0.018156 0.717678 0.269352
C56   C     C_3   0.024747 0.211697 0.741166 -0.334837
C57   C     C_3   0.683894 0.939261 0.683930 -0.280473
C58   C     C_3   0.485888 0.216217 0.666156 0.358455
C59   C     C_3   0.517992 0.153114 0.709404 0.248908
C60   C     C_R   0.339327 0.529936 0.334303 -0.401697
F1    F     F_    0.262500 0.890857 0.579892 -0.731600
F2    F     F_    0.860246 0.122846 0.331311 -0.701851
F3    F     F_    0.958247 0.109783 0.420738 -0.770405
F4    F     F_    0.490462 0.628021 0.205257 -0.661753
H1    H     H_    0.746117 0.788325 0.393836 0.068899
H2    H     H_    0.834810 0.733036 0.730323 0.103466
H3    H     H_    0.741413 0.618136 0.736814 0.087016
H4    H     H_    0.613051 0.705070 0.735638 0.136802
H5    H     H_    0.547043 0.775174 0.356895 -0.096135
H6    H     H_    0.686415 0.934840 0.369217 0.103329
H7    H     H_    0.373327 0.356670 0.367362 -0.017762
H8    H     H_    0.591417 0.383691 0.354441 -0.007073
H9    H     H_    0.451248 0.373023 0.262183 -0.076369
H10   H     H_    0.549857 0.272455 0.259007 0.054623
H11   H     H_    0.661058 0.886448 0.292041 0.130124
H12   H     H_    0.275420 0.869178 0.664990 0.020308
H13   H     H_    0.181254 0.707858 0.221312 0.106400
H14   H     H_    0.054845 0.314850 0.684847 0.055826
H15   H     H_    0.871902 0.228372 0.669211 -0.038717
H16   H     H_    0.155935 0.227487 0.756031 0.143930
H17   H     H_    0.949499 0.248307 0.774281 0.054457
H18   H     H_    0.983056 0.137327 0.738216 0.111385
H19   H     H_    0.600069 0.230521 0.640491 -0.089975
H20   H     H_    0.390354 0.179563 0.633529 0.111359
H21   H     H_    0.400013 0.131357 0.731206 0.029904
H22   H     H_    0.070993 0.668629 0.316435 0.086833
H23   H     H_    0.072187 0.848018 0.630954 0.036353
H24   H     H_    0.609946 0.191710 0.743222 -0.005800
H25   H     H_    0.726923 0.453987 0.082461 0.172742
H26   H     H_    0.656311 0.437975 0.977649 0.112609
H27   H     H_    0.528621 0.554108 0.020561 0.121689
H28   H     H_    0.458842 0.545325 0.916185 0.168546
H29   H     H_    0.127033 0.592050 0.760629 0.105955
H30   H     H_    0.746672 0.366398 0.786905 0.106213
H31   H     H_    0.033479 0.424934 0.238211 0.143239
H32   H     H_    0.377188 0.532805 0.379845 0.100282
H33   H     H_    0.281097 0.728015 0.325306 -0.066389
H34   H     H_    0.849453 0.268611 0.406809 -0.043986
H35   H     H_    0.843472 0.455600 0.613872 0.077748
H36   H     H_    0.375208 0.690490 0.477350 0.059271
H37   H     H_    0.226256 0.955963 0.412775 0.122442
H38   H     H_    0.758650 0.901253 0.546528 0.077815
H39   H     H_    0.808353 0.301122 0.520308 0.047847
H40   H     H_    0.865833 0.036443 0.551376 0.071357
H41   H     H_    0.341251 0.110229 0.421219 0.107520
H42   H     H_    0.013607 0.769371 0.244183 0.163304
H43   H     H_    0.224474 0.826736 0.252944 0.113349
H44   H     H_    0.351042 0.734590 0.597813 -0.011961
H45   H     H_    0.061254 0.283314 0.432439 -0.004357
H46   H     H_    0.145162 0.713963 0.564940 0.064070
H47   H     H_    0.322427 0.282508 0.181027 0.021269
H48   H     H_    0.124913 0.229070 0.200569 0.088499
H49   H     H_    0.235468 0.085662 0.208943 0.148834
H50   H     H_    0.265903 0.118641 0.136474 0.070302
H51   H     H_    0.437075 0.137449 0.188409 0.122927
H52   H     H_    0.493377 0.990168 0.737868 0.032595
H53   H     H_    0.699496 0.053689 0.753235 0.019396
H54   H     H_    0.800924 0.965027 0.663239 0.110682
H55   H     H_    0.709622 0.892269 0.714589 0.071555
H56   H     H_    0.104002 0.149011 0.354788 0.010153
H57   H     H_    0.595617 0.901528 0.648921 0.146285
H58   H     H_    0.827649 0.636547 0.633003 -0.001806
H59   H     H_    0.609010 0.599815 0.639216 0.088208
H60   H     H_    0.860647 0.899955 0.328412 0.167646
N1    N     N_R   0.986155 0.487066 0.847466 -0.427135
N2    N     N_R   0.198535 0.510454 0.150669 -0.423201
O1    O     O_2   0.889550 0.449620 0.359410 -0.465747
O2    O     O_2   0.187808 0.175613 0.530848 -0.440410
O3    O     O_3   0.093632 0.190605 0.639440 -0.596546
O4    O     O_3   0.130120 0.450560 0.430480 -0.495361
O5    O     O_3   0.576410 0.610420 0.531990 -0.494561
O6    O     O_2   0.341630 0.276020 0.466390 -0.473457
O7    O     O_3   0.510389 0.251485 0.368214 -0.627584
O8    O     O_2   0.469073 0.473369 0.708403 -0.430775
O9    O     O_3   0.428607 0.293970 0.697165 -0.613468
O10   O     O_2   0.260200 0.506730 0.829547 -0.561201
O11   O     O_2   0.719111 0.472157 0.875550 -0.598724
O12   O     O_3   0.680191 0.734323 0.627721 -0.647552
O13   O     O_2   0.925385 0.506195 0.169057 -0.550422
O14   O     O_2   0.460073 0.503939 0.119598 -0.549096
O15   O     O_3   0.674100 0.616440 0.398760 -0.507784
O16   O     O_2   0.782201 0.554153 0.293558 -0.432606
O17   O     O_3   0.020562 0.304334 0.346224 -0.633034
O18   O     O_3   0.734585 0.724398 0.306862 -0.550191
O19   O     O_2   0.848070 0.724010 0.533650 -0.466284
O20   O     O_3   0.092910 0.663610 0.428710 -0.500041
O21   O     O_2   0.007355 0.824789 0.468001 -0.448722
O22   O     O_3   0.294138 0.252608 0.268834 -0.631456
O23   O     O_3   0.097234 0.802596 0.357641 -0.615178
O24   O     O_3   0.579296 0.077259 0.678087 -0.648368
O25   O     O_2   0.300150 0.550410 0.640630 -0.449069
O26   O     O_3   0.059590 0.549510 0.569530 -0.498103
O27   O     O_3   0.515610 0.383640 0.601250 -0.474815
O28   O     O_3   0.166401 0.695951 0.653200 -0.686525
O29   O     O_3   0.613300 0.389650 0.468010 -0.486189
O30   O     O_3   0.096810 0.336470 0.571300 -0.492000
P1    P     P_3+3 0.056010 0.422560 0.367570 1.012856
P2    P     P_3+3 0.670430 0.710550 0.550450 0.974035
P3    P     P_3+3 0.135805 0.780198 0.428715 0.975008
P4    P     P_3+3 0.133710 0.577520 0.632440 0.983245
P5    P     P_3+3 0.056564 0.218090 0.569670 1.000736
P6    P     P_3+3 0.659456 0.615419 0.322634 1.056226
P7    P     P_3+3 0.524163 0.276283 0.445400 0.959231
P8    P     P_3+3 0.546415 0.391356 0.677308 0.997383

loop_
_geom_bond_atom_site_label_1
_geom_bond_atom_site_label_2
_ccdc_geom_bond_type
O2    P5    D    
C57   H55   S    
C37   H40   S    
C53   C54   S    
C57   H54   S    
C51   O12   S    
C12   H5    S    
O15   P6    S    
C16   H43   S    
O1    P1    D    
C19   C24   D    
Ba1   O4    S    
Ba2   P4    S    
C1    H60   S    
C3    O10   D    
C27   P1    S    
C43   C44   A    
C42   C43   A    
Ba2   O6    S    
C39   C44   A    
C28   H44   S    
C31   H35   S    
O20   P3    S    
C22   C24   S    
C23   H8    S    
Ba1   O1    S    
C56   H16   S    
C36   C37   A    
O17   P1    S    
C55   C57   S    
C52   H2    S    
C49   O17   S    
C12   H1    S    
C13   C14   A    
C46   H38   S    
C55   O24   S    
C17   N2    Am   
C4    H22   S    
Ba1   Ba2   S    
C54   H51   S    
C7    C11   A    
C33   P2    S    
C59   H21   S    
C13   H26   S    
C60   H32   S    
C50   H56   S    
C38   C41   A    
C33   C46   A    
C14   C15   A    
O23   P3    S    
C33   C47   A    
Ba2   O4    S    
C21   C22   D    
C34   H10   S    
C41   C46   A    
C30   N2    S    
C58   O9    S    
C55   H53   S    
C21   P4    S    
C32   P3    S    
C28   O28   S    
O28   P4    S    
Ba2   O26   S    
C19   C20   S    
O16   P6    D    
C10   C18   A    
C16   H13   S    
C45   H14   S    
Ba1   O5    S    
O19   P2    D    
O9    P8    S    
C57   H57   S    
C4    C16   S    
Ba2   O5    S    
C49   C50   S    
O4    P1    S    
C18   O14   D    
Ba1   P1    S    
C32   C42   A    
C50   F2    S    
C22   H29   S    
O29   P7    S    
C37   C38   A    
C58   H20   S    
C6    C7    A    
C54   H50   S    
C53   H47   S    
C21   C31   D    
C9    H27   S    
C51   C52   S    
O18   P6    S    
C45   O3    S    
C58   C59   S    
C41   C42   A    
C35   H39   S    
C35   C36   A    
Ba1   O15   S    
C34   H9    S    
C56   H18   S    
C29   C30   A    
C52   H4    S    
O3    P5    S    
Ba2   O30   S    
C44   H41   S    
C3    N1    Am   
C48   P7    S    
O7    P7    S    
O6    P7    D    
Ba2   O27   S    
C1    C12   S    
C51   H59   S    
O30   P5    S    
C4    O23   S    
C38   C39   A    
C19   H30   S    
C40   H12   S    
Ba2   O25   S    
Ba1   O19   S    
O21   P3    D    
C2    C8    A    
C1    H11   S    
C29   H31   S    
C39   C48   A    
C47   H36   S    
C59   H24   S    
C26   P6    S    
C53   O22   S    
C49   H34   S    
C20   C31   S    
C27   C60   A    
C36   P5    S    
C32   C47   A    
C49   H45   S    
C25   C30   A    
O26   P4    S    
Ba1   P2    S    
C2    C3    A    
Ba1   O20   S    
C51   H58   S    
C9    C10   A    
C18   N2    Am   
C53   H48   S    
C6    C13   A    
C12   O18   S    
C11   C15   A    
O25   P4    D    
C40   H23   S    
C4    H33   S    
O5    P2    S    
Ba1   O29   S    
C1    H6    S    
C27   C29   A    
C25   F4    S    
C56   H17   S    
O12   P2    S    
C45   C56   S    
C5    O11   D    
C35   C48   A    
C34   O22   S    
C52   H3    S    
O8    P8    D    
Ba2   O29   S    
C15   C17   A    
C54   H49   S    
C23   H7    S    
C24   N1    S    
C45   H15   S    
Ba1   O26   S    
C23   O7    S    
C59   O24   S    
C16   H42   S    
C5    C6    A    
C8    C9    A    
C23   C34   S    
C20   P8    S    
C10   C11   A    
C14   H25   S    
C17   O13   D    
C28   H46   S    
C25   C26   A    
C8    H28   S    
C28   C40   S    
C58   H19   S    
O27   P8    S    
C5    N1    Am   
C2    C7    A    
C40   F1    S    
C50   F3    S    
C26   C60   A    
C55   H52   S    
C43   H37   S    
