data_mof_unit_15521.cif
_audit_creation_date              2012-12-11T14:28:31-0500
_audit_creation_method            fapswitch 2.2
_symmetry_space_group_name_H-M    P1
_symmetry_Int_Tables_number       1
_space_group_crystal_system       triclinic
_cell_length_a                    10.924199
_cell_length_b                    19.326529
_cell_length_c                    18.688575
_cell_angle_alpha                 89.872507
_cell_angle_beta                  90.574216
_cell_angle_gamma                 89.937878
_cell_volume                      3945.44961564

loop_
_atom_site_label
_atom_site_type_symbol
_atom_type_description
_atom_site_fract_x
_atom_site_fract_y
_atom_site_fract_z
_atom_type_partial_charge
C1    C     C_R   0.318616 0.962174 0.643611 0.532008
C2    C     C_R   0.319134 0.966719 0.855868 0.513845
C3    C     C_R   0.319086 0.036671 0.355660 0.527269
C4    C     C_R   0.321608 0.028736 0.148345 0.524635
C5    C     C_R   0.818616 0.462174 0.643611 0.532006
C6    C     C_R   0.819134 0.466720 0.855867 0.513848
C7    C     C_R   0.819086 0.536671 0.355660 0.527273
C8    C     C_R   0.821607 0.528736 0.148345 0.524612
C9    C     C_3   0.160458 0.697352 0.477268 -0.119770
C10   C     C_3   0.043216 0.675554 0.009612 -0.164883
C11   C     C_3   0.173798 0.268009 0.539076 -0.152457
C12   C     C_3   0.144938 0.305651 0.976974 -0.153330
C13   C     C_3   0.660456 0.197351 0.477269 -0.119769
C14   C     C_3   0.543294 0.175553 0.009629 -0.164863
C15   C     C_3   0.673798 0.768008 0.539076 -0.152456
C16   C     C_3   0.644883 0.805685 0.976987 -0.153286
C17   C     C_3   0.065702 0.737107 0.431701 0.058517
C18   C     C_3   0.033470 0.733989 0.064727 0.059225
C19   C     C_3   0.041480 0.268422 0.565221 0.065729
C20   C     C_3   0.038437 0.271573 0.935803 0.038845
C21   C     C_3   0.565702 0.237107 0.431701 0.058520
C22   C     C_3   0.533514 0.234000 0.064728 0.059166
C23   C     C_3   0.541480 0.768422 0.565221 0.065729
C24   C     C_3   0.538425 0.771576 0.935803 0.038886
C25   C     C_R   0.321742 0.014316 0.427983 -0.023372
C26   C     C_R   0.334603 0.988507 0.081616 -0.022811
C27   C     C_R   0.321910 0.981156 0.570128 -0.043397
C28   C     C_R   0.322038 0.991439 0.931072 -0.048466
C29   C     C_R   0.821742 0.514316 0.427983 -0.023370
C30   C     C_R   0.834602 0.488509 0.081613 -0.022791
C31   C     C_R   0.821910 0.481157 0.570128 -0.043397
C32   C     C_R   0.822041 0.491443 0.931069 -0.048455
C33   C     C_R   0.544805 0.987290 0.425836 -0.082537
C34   C     C_R   0.560785 0.996364 0.075009 -0.101917
C35   C     C_R   0.548076 0.005590 0.572866 -0.088898
C36   C     C_R   0.543119 0.017441 0.927911 -0.087000
C37   C     C_R   0.044805 0.487290 0.425836 -0.082537
C38   C     C_R   0.060787 0.496382 0.075006 -0.101903
C39   C     C_R   0.048076 0.505590 0.572866 -0.088898
C40   C     C_R   0.043119 0.517446 0.927907 -0.086991
C41   C     C_R   0.655599 0.990396 0.462478 -0.134203
C42   C     C_R   0.665616 0.009969 0.035523 -0.140695
C43   C     C_R   0.657469 0.003966 0.535473 -0.122126
C44   C     C_R   0.656101 0.022362 0.962373 -0.135022
C45   C     C_R   0.155599 0.490395 0.462478 -0.134203
C46   C     C_R   0.165614 0.510000 0.035522 -0.140683
C47   C     C_R   0.157469 0.503965 0.535473 -0.122125
C48   C     C_R   0.156098 0.522384 0.962370 -0.135002
C49   C     C_R   0.434582 0.996512 0.536586 -0.018475
C50   C     C_R   0.436407 0.999770 0.966116 -0.006080
C51   C     C_R   0.433836 0.998534 0.462194 -0.013329
C52   C     C_R   0.443879 0.994101 0.041568 -0.008308
C53   C     C_R   0.934582 0.496512 0.536586 -0.018475
C54   C     C_R   0.936410 0.499770 0.966113 -0.006104
C55   C     C_R   0.933836 0.498534 0.462194 -0.013330
C56   C     C_R   0.943881 0.494105 0.041566 -0.008314
C57   C     C_R   0.210828 0.977540 0.529387 0.000670
C58   C     C_R   0.213007 0.985395 0.973254 0.008906
C59   C     C_R   0.209474 0.013104 0.466356 0.016501
C60   C     C_R   0.224807 0.971610 0.046739 0.034062
C61   C     C_R   0.710828 0.477540 0.529387 0.000672
C62   C     C_R   0.713009 0.485405 0.973250 0.008946
C63   C     C_R   0.709474 0.513104 0.466356 0.016504
C64   C     C_R   0.724805 0.471615 0.046733 0.034125
C65   C     C_R   0.098302 0.946267 0.550422 -0.047660
C66   C     C_R   0.091417 0.991362 0.945452 -0.038387
C67   C     C_R   0.094762 0.042528 0.444194 -0.055564
C68   C     C_R   0.122317 0.948437 0.085936 -0.034210
C69   C     C_R   0.598302 0.446268 0.550422 -0.047659
C70   C     C_R   0.591424 0.491387 0.945446 -0.038391
C71   C     C_R   0.594762 0.542528 0.444194 -0.055564
C72   C     C_R   0.622308 0.448444 0.085925 -0.034196
C73   C     C_R   0.986760 0.966002 0.520190 -0.090897
C74   C     C_R   0.990002 0.974100 0.986503 -0.133120
C75   C     C_R   0.985058 0.017895 0.469638 -0.069551
C76   C     C_R   0.005506 0.950785 0.056198 -0.133577
C77   C     C_R   0.486760 0.466002 0.520190 -0.090900
C78   C     C_R   0.490002 0.474131 0.986493 -0.133163
C79   C     C_R   0.485058 0.517895 0.469638 -0.069553
C80   C     C_R   0.505498 0.450803 0.056185 -0.133604
C81   C     C_R   0.131442 0.757955 0.644044 0.530675
C82   C     C_R   0.137893 0.758709 0.857764 0.535564
C83   C     C_R   0.141460 0.239839 0.358915 0.537119
C84   C     C_R   0.132324 0.241887 0.143882 0.525063
C85   C     C_R   0.631442 0.257955 0.644044 0.530670
C86   C     C_R   0.637865 0.258702 0.857753 0.535557
C87   C     C_R   0.641459 0.739839 0.358915 0.537121
C88   C     C_R   0.632329 0.741885 0.143879 0.525030
C89   C     C_R   0.503937 0.784811 0.637189 0.554609
C90   C     C_R   0.502253 0.785985 0.862510 0.554274
C91   C     C_R   0.538338 0.227567 0.356772 0.553353
C92   C     C_R   0.500368 0.214885 0.137158 0.551999
C93   C     C_R   0.003937 0.284811 0.637189 0.554607
C94   C     C_R   0.002260 0.285983 0.862510 0.554258
C95   C     C_R   0.038338 0.727567 0.356771 0.553362
C96   C     C_R   0.000331 0.714871 0.137159 0.552076
C97   C     C_3   0.097684 0.804267 0.467459 0.278517
C98   C     C_3   0.155894 0.762830 0.041514 0.281697
C99   C     C_3   0.014757 0.202603 0.523911 0.292781
C100  C     C_3   0.070267 0.201624 0.967805 0.301619
C101  C     C_3   0.597686 0.304267 0.467459 0.278520
C102  C     C_3   0.655902 0.262871 0.041490 0.281661
C103  C     C_3   0.514757 0.702603 0.523911 0.292781
C104  C     C_3   0.570330 0.701634 0.967792 0.301640
C105  C     C_3   0.192945 0.766632 0.514089 -0.108011
C106  C     C_3   0.169112 0.704415 0.986306 -0.110600
C107  C     C_3   0.146159 0.201492 0.495980 -0.143533
C108  C     C_3   0.176628 0.233998 0.009791 -0.123676
C109  C     C_3   0.692945 0.266631 0.514089 -0.108008
C110  C     C_3   0.669149 0.204446 0.986298 -0.110544
C111  C     C_3   0.646159 0.701492 0.495980 -0.143532
C112  C     C_3   0.676649 0.734036 0.009789 -0.123682
C113  C     C_3   0.091978 0.752207 0.569295 0.003951
C114  C     C_3   0.098552 0.749561 0.931591 0.016488
C115  C     C_3   0.102200 0.246959 0.432751 0.017494
C116  C     C_3   0.086850 0.249276 0.070588 0.013581
C117  C     C_3   0.591977 0.252207 0.569295 0.003953
C118  C     C_3   0.598525 0.249556 0.931580 0.016520
C119  C     C_3   0.602199 0.746959 0.432751 0.017494
C120  C     C_3   0.586850 0.749269 0.070586 0.013556
C121  C     C_3   0.997387 0.792215 0.523486 -0.111579
C122  C     C_3   0.090169 0.808398 0.985577 -0.079434
C123  C     C_3   0.970322 0.246203 0.459266 -0.128181
C124  C     C_3   0.981379 0.214103 0.029310 -0.076455
C125  C     C_3   0.497389 0.292216 0.523486 -0.111580
C126  C     C_3   0.590108 0.308405 0.985551 -0.079448
C127  C     C_3   0.470322 0.746203 0.459266 -0.128180
C128  C     C_3   0.481425 0.714067 0.029295 -0.076497
C129  C     C_3   0.965549 0.723097 0.486497 -0.152740
C130  C     C_3   0.965500 0.780091 0.010145 -0.155948
C131  C     C_3   0.000033 0.313194 0.501761 -0.178237
C132  C     C_3   0.949833 0.286074 0.996248 -0.130470
C133  C     C_3   0.465548 0.223098 0.486496 -0.152742
C134  C     C_3   0.465475 0.280064 0.010142 -0.155992
C135  C     C_3   0.500033 0.813194 0.501761 -0.178236
C136  C     C_3   0.449798 0.786031 0.996248 -0.130559
C137  C     C_3   0.060155 0.683690 0.533063 -0.118617
C138  C     C_3   0.975088 0.721333 0.954346 -0.163696
C139  C     C_3   0.132556 0.312957 0.474980 -0.106461
C140  C     C_3   0.055801 0.320179 0.038536 -0.119301
C141  C     C_3   0.560152 0.183691 0.533063 -0.118619
C142  C     C_3   0.475097 0.221292 0.954359 -0.163683
C143  C     C_3   0.632556 0.812957 0.474980 -0.106461
C144  C     C_3   0.555720 0.820166 0.038547 -0.119304
Cr1   Cr    Cr6+3 0.488160 0.884660 0.750000 0.989742
Cr2   Cr    Cr6+3 0.488160 0.115340 0.250000 0.979235
Cr3   Cr    Cr6+3 0.988160 0.384660 0.750000 0.989746
Cr4   Cr    Cr6+3 0.988160 0.615340 0.250000 0.979214
Cr5   Cr    Cr6+3 0.173480 0.883120 0.750000 0.975974
Cr6   Cr    Cr6+3 0.173480 0.116880 0.250000 0.994955
Cr7   Cr    Cr6+3 0.673480 0.383120 0.750000 0.975978
Cr8   Cr    Cr6+3 0.673480 0.616880 0.250000 0.994924
Cr9   Cr    Cr6+3 0.333410 0.727260 0.750000 1.025753
Cr10  Cr    Cr6+3 0.333410 0.272740 0.250000 1.015831
Cr11  Cr    Cr6+3 0.833410 0.227260 0.750000 1.025753
Cr12  Cr    Cr6+3 0.833410 0.772740 0.250000 1.015856
H1    H     H_    0.280283 0.787986 0.533002 0.109707
H2    H     H_    0.250075 0.671998 0.974447 0.130082
H3    H     H_    0.205224 0.155153 0.493971 0.083099
H4    H     H_    0.263872 0.206633 0.019859 0.109305
H5    H     H_    0.780285 0.287983 0.533002 0.109709
H6    H     H_    0.750129 0.172047 0.974429 0.130134
H7    H     H_    0.705223 0.655153 0.493969 0.083098
H8    H     H_    0.763910 0.706692 0.019860 0.109288
H9    H     H_    0.902517 0.943688 0.538858 0.085299
H10   H     H_    0.899908 0.975593 0.962792 0.107203
H11   H     H_    0.900871 0.041519 0.451661 0.117751
H12   H     H_    0.927456 0.934472 0.087167 0.112026
H13   H     H_    0.402516 0.443688 0.538858 0.085298
H14   H     H_    0.399907 0.475632 0.962780 0.107212
H15   H     H_    0.400870 0.541519 0.451661 0.117750
H16   H     H_    0.427441 0.434489 0.087150 0.112025
H17   H     H_    0.929292 0.828846 0.544568 0.095570
H18   H     H_    0.118818 0.860005 0.968748 0.147629
H19   H     H_    0.891225 0.236354 0.423181 0.093446
H20   H     H_    0.921097 0.173355 0.051090 0.110873
H21   H     H_    0.429294 0.328847 0.544568 0.095570
H22   H     H_    0.618684 0.360018 0.968696 0.147661
H23   H     H_    0.391225 0.736354 0.423181 0.093442
H24   H     H_    0.421199 0.673276 0.051042 0.110854
H25   H     H_    0.876484 0.703889 0.467875 0.118721
H26   H     H_    0.886916 0.813824 0.023048 0.126812
H27   H     H_    0.942427 0.359738 0.507443 0.113590
H28   H     H_    0.862522 0.311711 0.981657 0.155474
H29   H     H_    0.376482 0.203892 0.467874 0.118723
H30   H     H_    0.386873 0.313777 0.023060 0.126830
H31   H     H_    0.442428 0.859738 0.507443 0.113590
H32   H     H_    0.362455 0.811634 0.981670 0.155405
H33   H     H_    0.040382 0.636594 0.564007 0.134324
H34   H     H_    0.904552 0.705593 0.914932 0.102575
H35   H     H_    0.185770 0.356758 0.453449 0.150566
H36   H     H_    0.048138 0.365978 0.072986 0.143720
H37   H     H_    0.540376 0.136594 0.564007 0.134323
H38   H     H_    0.404558 0.205500 0.914969 0.102563
H39   H     H_    0.685770 0.856758 0.453449 0.150566
H40   H     H_    0.547987 0.865956 0.073006 0.143716
H41   H     H_    0.226004 0.658371 0.456804 0.149922
H42   H     H_    0.015870 0.622855 0.023553 0.153899
H43   H     H_    0.252955 0.276038 0.575522 0.123509
H44   H     H_    0.209807 0.343584 0.953850 0.137556
H45   H     H_    0.726001 0.158369 0.456805 0.149923
H46   H     H_    0.516024 0.122848 0.023599 0.153953
H47   H     H_    0.752955 0.776037 0.575522 0.123509
H48   H     H_    0.709719 0.843644 0.953879 0.137562
H49   H     H_    0.738742 0.981545 0.433471 0.104061
H50   H     H_    0.753527 0.013462 0.062316 0.112963
H51   H     H_    0.742856 0.011752 0.563863 0.122667
H52   H     H_    0.735297 0.037983 0.932186 0.118166
H53   H     H_    0.238742 0.481544 0.433471 0.104059
H54   H     H_    0.253522 0.513506 0.062315 0.112940
H55   H     H_    0.242856 0.511751 0.563863 0.122666
H56   H     H_    0.235289 0.538014 0.932183 0.118141
H57   H     H_    0.547625 0.974690 0.369594 0.132150
H58   H     H_    0.572621 0.985600 0.131472 0.132281
H59   H     H_    0.554535 0.017415 0.629174 0.136471
H60   H     H_    0.539511 0.031573 0.871937 0.133320
H61   H     H_    0.047625 0.474690 0.369594 0.132147
H62   H     H_    0.072628 0.485620 0.131469 0.132283
H63   H     H_    0.054535 0.517415 0.629174 0.136471
H64   H     H_    0.039510 0.531574 0.871932 0.133319
H65   H     H_    0.086410 0.087009 0.410002 0.170275
H66   H     H_    0.132531 0.930784 0.140765 0.144778
H67   H     H_    0.093627 0.905251 0.588368 0.173989
H68   H     H_    0.070715 0.010325 0.892501 0.174047
H69   H     H_    0.586409 0.587009 0.410002 0.170275
H70   H     H_    0.632516 0.430785 0.140753 0.144732
H71   H     H_    0.593626 0.405251 0.588369 0.173990
H72   H     H_    0.570736 0.510359 0.892495 0.174077
O1    O     O_R   0.575450 0.828820 0.667950 -0.525949
O2    O     O_R   0.575450 0.828820 0.832050 -0.528342
O3    O     O_R   0.575450 0.171180 0.332050 -0.539254
O4    O     O_R   0.575450 0.171180 0.167950 -0.547787
O5    O     O_R   0.075450 0.328820 0.667950 -0.525950
O6    O     O_R   0.075450 0.328820 0.832050 -0.528335
O7    O     O_R   0.075450 0.671180 0.332050 -0.539266
O8    O     O_R   0.075450 0.671180 0.167950 -0.547769
O9    O     O_R   0.416860 0.942890 0.674680 -0.520880
O10   O     O_R   0.416860 0.942890 0.825320 -0.511019
O11   O     O_R   0.416860 0.057110 0.325320 -0.512760
O12   O     O_R   0.416860 0.057110 0.174680 -0.523801
O13   O     O_R   0.916860 0.442890 0.674680 -0.520881
O14   O     O_R   0.916860 0.442890 0.825320 -0.511020
O15   O     O_R   0.916860 0.557110 0.325320 -0.512759
O16   O     O_R   0.916860 0.557110 0.174680 -0.523821
O17   O     O_R   0.213790 0.953680 0.668330 -0.551340
O18   O     O_R   0.213790 0.953680 0.831670 -0.542317
O19   O     O_R   0.213790 0.046320 0.331670 -0.541655
O20   O     O_R   0.213790 0.046320 0.168330 -0.513128
O21   O     O_R   0.713790 0.453680 0.668330 -0.551339
O22   O     O_R   0.713790 0.453680 0.831670 -0.542306
O23   O     O_R   0.713790 0.546320 0.331670 -0.541652
O24   O     O_R   0.713790 0.546320 0.168330 -0.513133
O25   O     O_R   0.121360 0.817890 0.672660 -0.535729
O26   O     O_R   0.121360 0.817890 0.827340 -0.509421
O27   O     O_R   0.121360 0.182110 0.327340 -0.533284
O28   O     O_R   0.121360 0.182110 0.172660 -0.504979
O29   O     O_R   0.621360 0.317890 0.672660 -0.535733
O30   O     O_R   0.621360 0.317890 0.827340 -0.509435
O31   O     O_R   0.621360 0.682110 0.327340 -0.533283
O32   O     O_R   0.621360 0.682110 0.172660 -0.505003
O33   O     O_R   0.206850 0.711370 0.665820 -0.499586
O34   O     O_R   0.206850 0.711370 0.834180 -0.529735
O35   O     O_R   0.206850 0.288630 0.334180 -0.525420
O36   O     O_R   0.206850 0.288630 0.165820 -0.533214
O37   O     O_R   0.706850 0.211370 0.665820 -0.499589
O38   O     O_R   0.706850 0.211370 0.834180 -0.529729
O39   O     O_R   0.706850 0.788630 0.334180 -0.525417
O40   O     O_R   0.706850 0.788630 0.165820 -0.533209
O41   O     O_R   0.457710 0.733190 0.672630 -0.490825
O42   O     O_R   0.457710 0.733190 0.827370 -0.477731
O43   O     O_R   0.457710 0.266810 0.327370 -0.477772
O44   O     O_R   0.457710 0.266810 0.172630 -0.509302
O45   O     O_R   0.957710 0.233190 0.672630 -0.490829
O46   O     O_R   0.957710 0.233190 0.827370 -0.477738
O47   O     O_R   0.957710 0.766810 0.327370 -0.477758
O48   O     O_R   0.957710 0.766810 0.172630 -0.509236
O49   O     O_3   0.331690 0.831680 0.750000 -0.290662
O50   O     O_3   0.331690 0.168320 0.250000 -0.274182
O51   O     O_3   0.831690 0.331680 0.750000 -0.290650
O52   O     O_3   0.831690 0.668320 0.250000 -0.274211
O53   O     O_3   0.111887 0.864884 0.426115 -0.550426
C145  C     C_3   0.218468 0.860350 0.384270 -0.107241
H73   H     H_    0.227698 0.810440 0.355575 0.086434
H74   H     H_    0.300803 0.869162 0.417816 0.107536
H75   H     H_    0.214526 0.901282 0.342737 0.156407
O54   O     O_3   0.243906 0.797233 0.084793 -0.605533
C146  C     C_3   0.278612 0.758729 0.145553 -0.099722
H76   H     H_    0.283888 0.702263 0.135175 0.136956
H77   H     H_    0.216604 0.770667 0.190520 0.163872
H78   H     H_    0.371077 0.775841 0.162773 0.119597
O55   O     O_3   0.951882 0.146205 0.554686 -0.565769
C147  C     C_3   0.029474 0.110995 0.604201 -0.070490
H79   H     H_    0.079228 0.144463 0.642439 0.133743
H80   H     H_    0.103127 0.083931 0.576898 0.114372
H81   H     H_    0.974623 0.072973 0.634711 0.134877
O56   O     O_3   0.073152 0.140787 0.926556 -0.565969
C148  C     C_3   0.176768 0.141609 0.881950 -0.113248
H82   H     H_    0.258133 0.124221 0.912808 0.106910
H83   H     H_    0.194983 0.192956 0.857275 0.130476
H84   H     H_    0.161897 0.104985 0.837159 0.136050
O57   O     O_3   0.611891 0.364883 0.426116 -0.550424
C149  C     C_3   0.718471 0.360348 0.384269 -0.107259
H85   H     H_    0.727703 0.310436 0.355577 0.086419
H86   H     H_    0.800806 0.369164 0.417814 0.107547
H87   H     H_    0.714526 0.401277 0.342734 0.156389
O58   O     O_3   0.743950 0.297285 0.084733 -0.605587
C150  C     C_3   0.778506 0.258857 0.145573 -0.099837
H88   H     H_    0.783804 0.202376 0.135274 0.137053
H89   H     H_    0.716380 0.270854 0.190472 0.163823
H90   H     H_    0.870941 0.275983 0.162841 0.119599
O59   O     O_3   0.451882 0.646205 0.554686 -0.565768
C151  C     C_3   0.529475 0.610994 0.604200 -0.070488
H91   H     H_    0.579221 0.644460 0.642442 0.133752
H92   H     H_    0.603134 0.583935 0.576895 0.114367
H93   H     H_    0.474627 0.572966 0.634704 0.134878
O60   O     O_3   0.573259 0.640801 0.926538 -0.565994
C152  C     C_3   0.676886 0.641641 0.881943 -0.113293
H94   H     H_    0.758246 0.624256 0.912807 0.106930
H95   H     H_    0.695085 0.692994 0.857276 0.130478
H96   H     H_    0.662040 0.605020 0.837148 0.136061

loop_
_geom_bond_atom_site_label_1
_geom_bond_atom_site_label_2
_ccdc_geom_bond_type
C6    C32   S    
Cr1   O2    S    
C7    C29   S    
C119  C143  S    
C38   H62   S    
O55   C147  S    
C120  C144  S    
C74   H10   S    
C110  C118  S    
C24   C104  S    
O57   C149  S    
C145  H73   S    
C16   C144  S    
C70   H72   S    
C57   C59   A    
C8    O16   A    
C58   C60   A    
C10   H42   S    
C62   C70   A    
C61   C63   A    
C62   C64   A    
Cr10  O35   S    
C121  H17   S    
C48   H56   S    
C49   C51   A    
C34   C42   A    
C84   O28   A    
Cr4   O15   S    
C50   C52   A    
C146  H77   S    
C128  H24   S    
C97   C105  S    
C40   H64   S    
C41   C43   A    
C90   O42   A    
C42   C44   A    
C20   C132  S    
Cr10  O44   S    
C21   C133  S    
C45   C47   A    
C112  H8    S    
C46   C48   A    
C115  C123  S    
C6    O22   A    
C27   C57   A    
C87   O31   A    
C112  C120  S    
C81   O25   A    
C33   H57   S    
C94   O6    A    
C29   C55   A    
C46   H54   S    
C30   C56   A    
O60   C152  S    
C100  C124  S    
C152  H96   S    
C68   H66   S    
C15   C111  S    
C104  C128  S    
C12   C20   S    
O58   C150  S    
C142  H38   S    
C13   C21   S    
C85   C117  S    
Cr11  O37   S    
O56   C148  S    
C63   C71   A    
C104  O60   S    
C113  C137  S    
C36   C44   A    
C33   C51   A    
C80   H16   S    
C37   C45   A    
C130  C138  S    
C36   C50   A    
C39   C47   A    
C40   C48   A    
C20   C94   S    
C133  C141  S    
Cr1   O49   S    
C24   C90   S    
C15   H47   S    
C28   C58   A    
C98   C106  S    
C147  H80   S    
Cr5   O26   S    
C33   C41   A    
C1    O17   A    
C108  C116  S    
C10   C18   S    
C103  O59   S    
C76   H12   S    
Cr12  O48   S    
C2    C28   S    
C32   C62   A    
C129  C137  S    
C126  C134  S    
C7    O23   A    
C92   O4    A    
C84   O36   A    
C10   C138  S    
C85   O29   A    
C16   H48   S    
C14   C142  S    
C81   O33   A    
Cr5   O18   S    
C47   H55   S    
C69   C77   A    
C134  H30   S    
C83   O35   A    
C71   C79   A    
C110  H6    S    
Cr6   O20   S    
C74   C76   A    
C39   H63   S    
C78   C80   A    
Cr3   O13   S    
C9    C105  S    
C66   C74   A    
C78   H14   S    
C151  H91   S    
C124  C132  S    
C111  C119  S    
C67   H65   S    
Cr11  O51   S    
C59   C67   A    
C35   C49   A    
C101  C125  S    
C126  H22   S    
Cr5   O49   S    
C35   C43   A    
C121  C129  S    
C133  H29   S    
C24   C136  S    
C135  C143  S    
C84   C116  S    
C136  H32   S    
C148  H83   S    
C9    C137  S    
Cr11  O46   S    
C135  H31   S    
C9    H41   S    
Cr7   O22   S    
Cr2   O3    S    
C149  H86   S    
C100  C108  S    
C83   C115  S    
C103  C127  S    
C73   H9    S    
C104  C112  S    
C1    O9    A    
C122  H18   S    
C45   H53   S    
C91   O3    A    
C87   C119  S    
C97   O53   S    
C93   O45   A    
Cr12  O40   S    
Cr1   O10   S    
C23   C89   S    
C12   H44   S    
C141  H37   S    
C26   C60   A    
C15   C143  S    
C40   C54   A    
C96   O48   A    
C10   C106  S    
C67   C75   A    
Cr8   O24   S    
Cr7   O29   S    
C14   C110  S    
Cr1   O1    S    
C8    O24   A    
C102  C126  S    
C123  H19   S    
C144  H40   S    
C103  C111  S    
C68   C76   A    
C145  H74   S    
C151  H93   S    
C150  H90   S    
C127  H23   S    
C14   C22   S    
C72   C80   A    
C36   H60   S    
C11   C107  S    
Cr8   O31   S    
Cr6   O27   S    
C14   H46   S    
C114  C138  S    
C38   C46   A    
Cr10  O36   S    
C37   C55   A    
Cr3   O6    S    
C38   C56   A    
C145  H75   S    
Cr4   O16   S    
C22   C92   S    
C90   O2    A    
C25   C59   A    
Cr2   O50   S    
C17   C97   S    
C27   C49   A    
C87   O39   A    
C119  C127  S    
C29   C63   A    
C30   C64   A    
C73   C75   A    
C31   C61   A    
Cr9   O42   S    
C37   H61   S    
C100  O56   S    
C109  C117  S    
C11   C19   S    
C127  C135  S    
Cr12  O52   S    
C139  H35   S    
C128  C136  S    
C92   O44   A    
C101  C109  S    
C95   O47   A    
Cr9   O49   S    
C79   H15   S    
C152  H95   S    
C11   C139  S    
C86   O30   A    
C116  C140  S    
C131  H27   S    
C105  H1    S    
C82   O34   A    
C12   C140  S    
C17   C95   S    
C13   C141  S    
C88   C120  S    
C19   C93   S    
C77   C79   A    
Cr5   O17   S    
C72   H70   S    
C3    O19   A    
C32   C54   A    
C102  O58   S    
C43   H51   S    
C150  H88   S    
C5    O21   A    
C3    C25   S    
C34   H58   S    
C131  C139  S    
C93   O5    A    
Cr4   O52   S    
C83   O27   A    
C117  C141  S    
C134  C142  S    
C107  H3    S    
C146  H76   S    
C20   C100  S    
C143  H39   S    
C4    O12   A    
C146  H78   S    
C86   C118  S    
C124  H20   S    
C23   C103  S    
C106  C114  S    
C102  C110  S    
Cr10  O43   S    
C65   H67   S    
C16   C112  S    
C12   C108  S    
C21   C91   S    
C105  C113  S    
C19   C99   S    
C116  C124  S    
C123  C131  S    
C88   O40   A    
C57   C65   A    
C94   O46   A    
C4    C26   S    
C120  C128  S    
C132  C140  S    
C99   C107  S    
Cr2   O12   S    
C34   C52   A    
C23   C135  S    
C8    C30   S    
Cr4   O7    S    
C2    O18   A    
C136  C144  S    
C132  H28   S    
C39   C53   A    
C151  H92   S    
C42   H50   S    
C11   H43   S    
Cr11  O38   S    
C88   O32   A    
Cr2   O11   S    
C60   C68   A    
C81   C113  S    
C82   O26   A    
Cr5   O25   S    
C71   H69   S    
C3    O11   A    
O59   C151  S    
C70   C78   A    
C18   C96   S    
C148  H82   S    
Cr11  O45   S    
Cr7   O21   S    
Cr2   O4    S    
C149  H87   S    
C22   C134  S    
C89   O41   A    
C147  H79   S    
C91   O43   A    
O54   C146  S    
C44   H52   S    
C65   C73   A    
Cr7   O51   S    
C4    O20   A    
Cr12  O47   S    
Cr8   O52   S    
C28   C50   A    
C58   C66   A    
Cr1   O9    S    
C97   C121  S    
C101  O57   S    
C21   C101  S    
C15   C23   S    
C13   C109  S    
C16   C24   S    
C138  H34   S    
C95   O7    A    
C99   O55   S    
C69   H71   S    
C53   C55   A    
C19   C131  S    
Cr6   O19   S    
C54   C56   A    
C17   C129  S    
C85   O37   A    
Cr10  O50   S    
C111  H7    S    
C82   C114  S    
C66   H68   S    
C130  H26   S    
C2    O10   A    
Cr3   O14   S    
O53   C145  S    
C106  H2    S    
Cr4   O8    S    
Cr6   O50   S    
C26   C52   A    
Cr8   O32   S    
Cr6   O28   S    
C125  C133  S    
C96   O8    A    
C113  C121  S    
C31   C53   A    
Cr9   O34   S    
C107  C115  S    
C137  H33   S    
Cr3   O5    S    
C9    C17   S    
C125  H21   S    
C140  H36   S    
C148  H84   S    
Cr9   O33   S    
C99   C123  S    
C61   C69   A    
C129  H25   S    
C149  H85   S    
C147  H81   S    
Cr9   O41   S    
C115  C139  S    
C118  C142  S    
Cr3   O51   S    
C108  H4    S    
C118  C126  S    
C25   C51   A    
C22   C102  S    
C5    O13   A    
C150  H89   S    
C109  H5    S    
Cr12  O39   S    
C35   H59   S    
C13   H45   S    
C64   C72   A    
C41   H49   S    
C152  H94   S    
C18   C130  S    
C114  C122  S    
C98   C122  S    
C77   H13   S    
C7    O15   A    
C1    C27   S    
C86   O38   A    
C6    O14   A    
C75   H11   S    
C18   C98   S    
C89   O1    A    
C117  C125  S    
C122  C130  S    
Cr8   O23   S    
C98   O54   S    
Cr7   O30   S    
C5    C31   S    
