data_mof_unit_42066.cif
_audit_creation_date              2012-10-26T19:18:51-0400
_audit_creation_method            fapswitch 2.2
_symmetry_space_group_name_H-M    P1
_symmetry_Int_Tables_number       1
_space_group_crystal_system       triclinic
_cell_length_a                    9.71926
_cell_length_b                    10.937401
_cell_length_c                    15.62077
_cell_angle_alpha                 89.956957
_cell_angle_beta                  72.964704
_cell_angle_gamma                 89.805382
_cell_volume                      1587.67528451

loop_
_atom_site_label
_atom_site_type_symbol
_atom_type_description
_atom_site_fract_x
_atom_site_fract_y
_atom_site_fract_z
_atom_type_partial_charge
C1    C     C_R   0.998673 0.265528 0.503515 0.555027
C2    C     C_R   0.215225 0.506760 0.040436 0.040267
C3    C     C_R   0.318716 0.525247 0.086766 -0.025858
C4    C     C_R   0.915877 0.503513 0.671820 0.543187
C5    C     C_R   0.069857 0.486845 0.088288 0.218723
C6    C     C_R   0.028118 0.489632 0.182159 -0.176047
C7    C     C_R   0.277762 0.504565 0.180447 0.208197
C8    C     C_2   0.887273 0.933509 0.503710 -0.132136
C9    C     C_2   0.006782 0.865659 0.487772 -0.087087
C10   C     C_2   0.894821 0.066711 0.495056 -0.108464
C11   C     C_2   0.994139 0.134135 0.517914 0.084761
C12   C     C_R   0.658335 0.554846 0.899613 0.052000
C13   C     C_2   0.391946 0.474552 0.569488 0.060927
C14   C     C_2   0.547666 0.453116 0.563968 0.020127
C15   C     C_R   0.001091 0.734358 0.497333 0.549798
C16   C     C_R   0.084257 0.498219 0.327711 0.577007
C17   C     C_R   0.866307 0.527009 0.768346 -0.008883
C18   C     C_R   0.130910 0.498543 0.228739 0.008154
C19   C     C_R   0.897054 0.625353 0.900025 -0.089976
C20   C     C_R   0.954562 0.585791 0.811927 -0.133412
C21   C     C_R   0.721424 0.506682 0.813883 -0.097142
C22   C     C_R   0.750241 0.608984 0.944532 0.059284
C23   C     C_R   0.507969 0.545450 0.943733 0.066577
C24   C     C_R   0.460471 0.560829 0.037980 -0.004262
C25   C     C_R   0.552715 0.619337 0.080153 -0.145090
C26   C     C_R   0.694612 0.645343 0.033469 -0.138056
C27   C     C_R   0.402280 0.527980 0.898127 0.064792
C28   C     C_R   0.258260 0.510132 0.946881 -0.097826
Cu1   Cu    Cu3+1 0.138640 0.500020 0.499980 0.961543
Cu2   Cu    Cu3+1 0.861360 0.499980 0.500020 0.942663
H1    H     H_    0.762435 0.689740 0.068129 0.123125
H2    H     H_    0.967044 0.669620 0.933194 0.134038
H3    H     H_    0.066694 0.603610 0.777406 0.116720
H4    H     H_    0.660275 0.450455 0.781656 0.157921
H5    H     H_    0.514711 0.649089 0.149110 0.166778
H6    H     H_    0.874597 0.451636 0.085893 0.326455
H7    H     H_    0.195093 0.098683 0.525376 0.234774
H8    H     H_    0.071105 0.125279 0.624970 0.235793
H9    H     H_    0.399215 0.393350 0.393616 0.287244
H10   H     H_    0.441472 0.542992 0.375391 0.273891
H11   H     H_    0.459368 0.433548 0.182937 0.323626
H12   H     H_    0.781910 0.891031 0.519680 0.142585
H13   H     H_    0.374497 0.616596 0.790568 0.232754
H14   H     H_    0.403162 0.464450 0.776662 0.206860
H15   H     H_    0.112832 0.906495 0.465127 0.141952
H16   H     H_    0.814592 0.110433 0.469245 0.124465
H17   H     H_    0.313786 0.466646 0.634900 0.096897
H18   H     H_    0.571790 0.401937 0.617312 0.125194
H19   H     H_    0.627369 0.563817 0.460516 0.243077
H20   H     H_    0.915297 0.480162 0.218781 0.129151
H21   H     H_    0.179897 0.499415 0.910377 0.166230
N1    N     N_2   0.346430 0.498660 0.500980 -0.178017
N2    N     N_2   0.652550 0.498630 0.501000 -0.330730
N3    N     N_3   0.089050 0.081140 0.563293 -0.639146
N4    N     N_3   0.441090 0.469185 0.417926 -0.534406
N5    N     N_3   0.435383 0.543424 0.803134 -0.656140
O1    O     O_R   0.117050 0.321960 0.499980 -0.504490
O2    O     O_3   0.378399 0.478593 0.224600 -0.724757
O3    O     O_R   0.882890 0.321920 0.500020 -0.502959
O4    O     O_R   0.052910 0.500040 0.629810 -0.513443
O5    O     O_R   0.818750 0.499990 0.629840 -0.497727
O6    O     O_R   0.117110 0.678080 0.499980 -0.490479
O7    O     O_R   0.882950 0.678040 0.500020 -0.500612
O8    O     O_R   0.181250 0.500010 0.370160 -0.445417
O9    O     O_R   0.947090 0.499960 0.370190 -0.515575
O10   O     O_3   0.970424 0.465847 0.042381 -0.724423

loop_
_geom_bond_atom_site_label_1
_geom_bond_atom_site_label_2
_ccdc_geom_bond_type
C10   H16   S    
C14   H18   S    
C23   C24   A    
N1    N4    S    
C9    H15   S    
Cu1   Cu2   S    
C16   O9    A    
C23   C27   A    
C17   C21   A    
C13   N1    D    
H14   N5    S    
C7    O2    S    
C3    C7    A    
C19   C20   A    
H8    N3    S    
Cu1   O4    S    
C8    H12   S    
C7    C18   A    
C19   H2    S    
Cu2   O3    S    
C4    O4    A    
C2    C3    A    
C9    C15   S    
Cu1   O8    S    
C26   H1    S    
C13   C14   S    
C6    H20   S    
C12   C23   A    
C14   N2    D    
Cu1   O6    S    
C11   N3    S    
C25   H5    S    
H19   N2    S    
H7    N3    S    
C4    O5    A    
C8    C10   S    
C28   H21   S    
C15   O6    A    
Cu1   O1    S    
H11   O2    S    
C1    O1    A    
C1    O3    A    
C5    C6    A    
C6    C18   A    
Cu2   N2    S    
H6    O10   S    
C1    C11   S    
C2    C5    A    
C10   C11   D    
C20   H3    S    
Cu2   O9    S    
C12   C22   A    
H13   N5    S    
C17   C20   A    
C4    C17   S    
C24   C25   A    
C16   C18   S    
C19   C22   A    
C22   C26   A    
Cu2   O5    S    
C27   C28   A    
C13   H17   S    
C15   O7    A    
C27   N5    S    
C5    O10   S    
C2    C28   A    
C21   H4    S    
C16   O8    A    
C25   C26   A    
Cu2   O7    S    
C12   C21   A    
H9    N4    S    
C3    C24   A    
C8    C9    D    
Cu1   N1    S    
H10   N4    S    
