data_mof_unit_11805.cif
_audit_creation_date              2013-03-05T16:10:47-0500
_audit_creation_method            fapswitch 2.2
_symmetry_space_group_name_H-M    P1
_symmetry_Int_Tables_number       1
_space_group_crystal_system       triclinic
_cell_length_a                    22.42029
_cell_length_b                    7.092695
_cell_length_c                    19.43953
_cell_angle_alpha                 90.22375
_cell_angle_beta                  99.38014
_cell_angle_gamma                 90.230288
_cell_volume                      3049.88788612

loop_
_atom_site_label
_atom_site_type_symbol
_atom_site_description
_atom_site_fract_x
_atom_site_fract_y
_atom_site_fract_z
_atom_type_partial_charge
O1    O     O_R   0.443980 0.494320 0.557430 -0.581760
O2    O     O_R   0.556020 0.994320 0.442570 -0.566743
O3    O     O_R   0.441210 0.822520 0.414610 -0.583935
O4    O     O_R   0.558790 0.322520 0.585390 -0.594822
C1    C     C_R   0.426568 0.654415 0.389099 1.027883
C2    C     C_R   0.573535 0.156108 0.610977 1.023023
O5    O     O_R   0.436920 0.823940 0.555180 -0.576003
O6    O     O_R   0.563080 0.323940 0.444820 -0.587664
O7    O     O_R   0.551700 0.995760 0.584140 -0.578577
O8    O     O_R   0.448300 0.495760 0.415860 -0.596751
C3    C     C_R   0.421668 0.655318 0.574930 1.000656
C4    C     C_R   0.578365 0.155385 0.425091 0.995484
O9    O     O_3   0.537660 0.661290 0.509340 -0.265516
O10   O     O_3   0.462340 0.161290 0.490660 -0.275006
V1    V     V_3+5 0.493010 0.935560 0.498270 1.270920
V2    V     V_3+5 0.506990 0.435560 0.501730 1.250555
C5    C     C_R   0.757553 0.935557 0.214042 -0.294313
C6    C     C_R   0.241722 0.436409 0.785261 -0.303075
H1    H     H_    0.763069 0.807011 0.185472 0.171564
H2    H     H_    0.236231 0.308685 0.814043 0.173621
C7    C     C_R   0.794663 0.091093 0.206246 0.119625
C8    C     C_R   0.204487 0.591111 0.792693 0.120673
C9    C     C_R   0.787847 0.256954 0.243506 -0.157024
C10   C     C_R   0.211312 0.755983 0.755232 -0.154312
H3    H     H_    0.815907 0.378926 0.238018 0.132832
H4    H     H_    0.183175 0.877337 0.760461 0.132032
C11   C     C_R   0.744714 0.267213 0.288184 -0.122672
C12   C     C_R   0.254624 0.766129 0.710765 -0.115351
H5    H     H_    0.740289 0.397437 0.316195 0.182334
H6    H     H_    0.259095 0.895652 0.682642 0.183222
C13   C     C_R   0.707460 0.112019 0.296633 -0.034462
C14   C     C_R   0.292032 0.611783 0.702718 -0.036124
C15   C     C_R   0.714067 0.942890 0.259169 0.350566
C16   C     C_R   0.285367 0.443584 0.740328 0.350192
C17   C     C_1   0.839749 0.079956 0.160180 0.017823
C18   C     C_1   0.159471 0.580302 0.838866 0.019361
C19   C     C_1   0.662097 0.131637 0.342278 0.143866
C20   C     C_1   0.337621 0.631392 0.657349 0.145448
C21   C     C_1   0.624132 0.145053 0.380190 -0.176397
C22   C     C_1   0.375759 0.644827 0.619652 -0.169889
C23   C     C_1   0.877235 0.071019 0.121540 -0.296926
C24   C     C_1   0.122215 0.571307 0.877797 -0.297080
C25   C     C_R   0.635166 0.229730 0.800106 -0.155554
C26   C     C_R   0.370048 0.590071 0.198461 -0.155212
H7    H     H_    0.551431 0.278925 0.733067 0.139347
H8    H     H_    0.455812 0.584802 0.264928 0.142924
H9    H     H_    0.615979 0.280910 0.844112 0.124147
H10   H     H_    0.391986 0.568343 0.153558 0.125687
C27   C     C_R   0.616730 0.153802 0.677235 -0.253699
C28   C     C_R   0.383793 0.640298 0.322881 -0.253216
C29   C     C_R   0.910253 0.053746 0.761019 -0.160232
C30   C     C_R   0.089724 0.551823 0.238785 -0.161691
C31   C     C_R   0.874355 0.070102 0.696031 -0.103373
C32   C     C_R   0.126480 0.542675 0.303452 -0.096259
C33   C     C_R   0.812180 0.095184 0.690450 -0.062670
C34   C     C_R   0.188931 0.561330 0.309039 -0.055702
C35   C     C_R   0.783464 0.097074 0.750082 0.107587
C36   C     C_R   0.216543 0.597739 0.249951 0.103941
C37   C     C_R   0.821197 0.095339 0.816757 0.047373
C38   C     C_R   0.178975 0.592512 0.183208 0.048353
C39   C     C_R   0.719199 0.117068 0.745347 -0.065619
C40   C     C_R   0.280707 0.622150 0.254875 -0.067380
C41   C     C_R   0.696064 0.172671 0.806544 0.050931
C42   C     C_R   0.306582 0.602557 0.192819 0.049749
C43   C     C_R   0.733866 0.171316 0.872886 0.189051
C44   C     C_R   0.268990 0.595121 0.126404 0.188756
C45   C     C_R   0.795295 0.125597 0.876751 -0.219442
C46   C     C_R   0.205837 0.597816 0.122986 -0.217537
C47   C     C_R   0.676891 0.088239 0.681949 0.282147
C48   C     C_R   0.320565 0.661625 0.319217 0.284301
C49   C     C_R   0.597310 0.227983 0.736120 -0.169910
C50   C     C_R   0.407454 0.600628 0.262637 -0.185211
C51   C     C_R   0.884873 0.069642 0.821810 -0.151768
C52   C     C_R   0.115003 0.573412 0.178162 -0.151772
H11   H     H_    0.958559 0.035023 0.764002 0.112760
H12   H     H_    0.041288 0.535112 0.235728 0.113099
H13   H     H_    0.788005 0.122340 0.638918 0.161198
H14   H     H_    0.214870 0.536725 0.359871 0.164172
H15   H     H_    0.895048 0.066832 0.649461 0.130546
H16   H     H_    0.106505 0.516763 0.349640 0.131835
H17   H     H_    0.824297 0.121916 0.926778 0.125828
H18   H     H_    0.176832 0.595040 0.072928 0.124446
O11   O     O_R   0.051730 0.724670 0.084120 -0.583873
O12   O     O_R   0.948270 0.224670 0.915880 -0.584626
O13   O     O_R   0.063080 0.393540 0.944820 -0.588728
O14   O     O_R   0.936920 0.893540 0.055180 -0.587638
C53   C     C_R   0.077690 0.562032 0.924281 0.965069
C54   C     C_R   0.922126 0.061992 0.075515 0.965920
O15   O     O_R   0.058800 0.395030 0.085390 -0.585597
O16   O     O_R   0.941200 0.895030 0.914610 -0.585857
O17   O     O_R   0.943980 0.223310 0.057440 -0.587561
O18   O     O_R   0.056020 0.723310 0.942560 -0.585831
C55   C     C_R   0.073128 0.564211 0.110958 0.910789
C56   C     C_R   0.926833 0.063070 0.889005 0.909670
O19   O     O_3   0.962360 0.556290 0.990650 -0.276906
O20   O     O_3   0.037640 0.056290 0.009350 -0.275716
V3    V     V_3+5 0.006980 0.281990 0.001730 1.168543
V4    V     V_3+5 0.993020 0.781990 0.998270 1.171017
N1    N     N_R   0.677416 0.778475 0.265738 0.225183
O21   O     O_R   0.657571 0.742916 0.323640 -0.411791
O22   O     O_R   0.668090 0.654149 0.215668 -0.419108
N2    N     N_R   0.322131 0.279997 0.734124 0.225374
O23   O     O_R   0.342271 0.243423 0.676424 -0.414485
O24   O     O_R   0.331242 0.157214 0.784288 -0.416999
C57   C     C_3   0.707528 0.217855 0.938764 -0.363322
C58   C     C_3   0.749896 0.197138 0.008320 -0.867342
H19   H     H_    0.766597 0.050026 0.014832 0.254773
H20   H     H_    0.788399 0.297663 0.011729 0.255846
H21   H     H_    0.724825 0.229535 0.051694 0.267556
H22   H     H_    0.691244 0.365856 0.935381 0.197227
H23   H     H_    0.668223 0.123161 0.940796 0.198676
C59   C     C_3   0.297388 0.585768 0.060043 -0.363470
C60   C     C_3   0.253996 0.586641 0.990787 -0.867663
H24   H     H_    0.224158 0.460303 0.986458 0.253113
H25   H     H_    0.226643 0.717587 0.985669 0.257123
H26   H     H_    0.280382 0.582133 0.947164 0.266969
H27   H     H_    0.328277 0.708640 0.059658 0.199374
H28   H     H_    0.324489 0.454615 0.061170 0.196891
N3    N     N_R   0.692107 0.974136 0.626120 0.216797
O25   O     O_R   0.716098 0.808775 0.639370 -0.387840
O26   O     O_R   0.680682 0.032041 0.561900 -0.439450
N4    N     N_R   0.298461 0.745811 0.377489 0.214568
O27   O     O_R   0.314277 0.679866 0.440147 -0.446867
O28   O     O_R   0.263679 0.893057 0.368160 -0.389020

loop_
_geom_bond_atom_site_label_1
_geom_bond_atom_site_label_2
_geom_bond_distance
_ccdc_geom_bond_type
C36   C40   1.435829 A    
C44   C46   1.406820 A    
C57   H22   1.111454 S    
C41   C43   1.423198 A    
C11   H5    1.083456 S    
C31   C33   1.392626 A    
C18   C24   1.216787 T    
O1    C3    1.314134 A    
O2    C4    1.313541 A    
C2    O7    1.308779 A    
O19   V4    1.735860 S    
O18   V4    1.959845 S    
C26   C42   1.412375 A    
O5    C3    1.318256 A    
C16   N2    1.441938 S    
O12   V3    1.989326 S    
C31   H15   1.082662 S    
C29   H11   1.083844 S    
C30   C52   1.397100 A    
C59   H27   1.111774 S    
C33   H13   1.076937 S    
O14   C54   1.317581 A    
C35   C37   1.427793 A    
H7    C49   1.084154 S    
C58   H19   1.110713 S    
C36   C38   1.427368 A    
O11   C55   1.313406 A    
C34   H14   1.077007 S    
C40   C48   1.439544 A    
C38   C52   1.427440 A    
C39   C41   1.427902 A    
C28   C50   1.390406 A    
C40   C42   1.427787 A    
C37   C45   1.401176 A    
C43   C45   1.406300 A    
O11   V4    1.994149 S    
O20   V4    2.177865 S    
C13   C15   1.421649 A    
C9    C11   1.403102 A    
C37   C51   1.427415 A    
H8    C50   1.084142 S    
C60   H26   1.110662 S    
O5    V1    1.970902 S    
C57   H23   1.111764 S    
O6    V2    1.971490 S    
C27   C47   1.417415 A    
C53   O18   1.314683 A    
C52   C55   1.480353 S    
N2    O23   1.301172 A    
C5    C15   1.414826 A    
C51   C56   1.481117 S    
O14   V4    1.971455 S    
C43   C57   1.530518 S    
C59   C60   1.527170 S    
C30   C32   1.388165 A    
O16   C56   1.314340 A    
C32   H16   1.082690 S    
N3    O26   1.301310 A    
C44   C59   1.530149 S    
C32   C34   1.392346 A    
O13   C53   1.318372 A    
C11   C13   1.405334 A    
C29   C51   1.397030 A    
C12   C14   1.405390 A    
O4    C2    1.305350 A    
O3    C1    1.309388 A    
C47   N3    1.437102 S    
C5    C7    1.402569 A    
C13   C19   1.461310 S    
O15   V3    2.000985 S    
C15   N1    1.441901 S    
C42   C44   1.422819 A    
O4    V2    2.009598 S    
C59   H28   1.111470 S    
C48   N4    1.437163 S    
N1    O21   1.301188 A    
C54   O17   1.314321 A    
O6    C4    1.317696 A    
O20   V3    1.742012 S    
O1    V2    1.960018 S    
O12   C56   1.314043 A    
O17   V3    1.959225 S    
N2    O24   1.301614 A    
O2    V1    1.959399 S    
C6    C16   1.414784 A    
N1    O22   1.301603 A    
C45   H17   1.078633 S    
C14   C20   1.461350 S    
C7    C9    1.400985 A    
C27   C49   1.391524 A    
C8    C10   1.400979 A    
C1    C28   1.477350 S    
N4    O28   1.301398 A    
O3    V1    2.000787 S    
C60   H24   1.110765 S    
C39   C47   1.440791 A    
C23   C54   1.452984 S    
C25   C49   1.386860 A    
C6    C8    1.402568 A    
C10   C12   1.403171 A    
C10   H4    1.083400 S    
C30   H12   1.083861 S    
N3    O25   1.301357 A    
O19   V3    2.186534 S    
C35   C39   1.436352 A    
C7    C17   1.457793 S    
C8    C18   1.457863 S    
C57   C58   1.528445 S    
C46   H18   1.078745 S    
C4    C21   1.453351 S    
C33   C35   1.414806 A    
C28   C48   1.416480 A    
C1    O8    1.304097 A    
C19   C21   1.217097 T    
O8    V2    1.998581 S    
C20   C22   1.217114 T    
C58   H20   1.110859 S    
C12   H6    1.083482 S    
C5    H1    1.083676 S    
C34   C36   1.414961 A    
C26   C50   1.386738 A    
C6    H2    1.083687 S    
C9    H3    1.083420 S    
C2    C27   1.480160 S    
O15   C55   1.315412 A    
C3    C22   1.453414 S    
C17   C23   1.216727 T    
O13   V3    1.970866 S    
C38   C46   1.401645 A    
C25   C41   1.411655 A    
O9    V2    1.736135 S    
O10   V1    1.742288 S    
C24   C53   1.453040 S    
C29   C31   1.388426 A    
N4    O27   1.301194 A    
C25   H9    1.080466 S    
O16   V4    2.009799 S    
C26   H10   1.080329 S    
O7    V1    1.993528 S    
C14   C16   1.421653 A    
C60   H25   1.110849 S    
C58   H21   1.110733 S    
