data_mof_unit_30758.cif
_audit_creation_date              2012-10-26T20:31:19-0400
_audit_creation_method            fapswitch 2.2
_symmetry_space_group_name_H-M    P1
_symmetry_Int_Tables_number       1
_space_group_crystal_system       triclinic
_cell_length_a                    11.700402
_cell_length_b                    10.85854
_cell_length_c                    9.541744
_cell_angle_alpha                 90.030315
_cell_angle_beta                  89.952296
_cell_angle_gamma                 90.189405
_cell_volume                      1212.26452314

loop_
_atom_site_label
_atom_site_type_symbol
_atom_type_description
_atom_site_fract_x
_atom_site_fract_y
_atom_site_fract_z
_atom_type_partial_charge
C1    C     C_R   0.496705 0.262417 0.499698 0.569315
C2    C     C_R   0.420485 0.435581 0.074557 -0.019679
C3    C     C_R   0.420518 0.435384 0.925650 -0.005767
C4    C     C_R   0.283976 0.499558 0.500047 0.532642
C5    C     C_R   0.573956 0.573683 0.926053 0.190172
C6    C     C_3   0.700993 0.567669 0.920709 -0.272474
C7    C     C_3   0.700726 0.573090 0.079454 -0.280990
C8    C     C_R   0.502836 0.737489 0.499849 0.550092
C9    C     C_R   0.716017 0.499954 0.499968 0.541619
C10   C     C_1   0.162326 0.499193 0.500139 -0.040476
C11   C     C_1   0.059862 0.499133 0.500127 -0.056700
C12   C     C_R   0.498741 0.129066 0.497332 -0.004432
C13   C     C_1   0.940111 0.499370 0.500031 -0.056658
C14   C     C_1   0.837653 0.499669 0.499946 -0.038845
C15   C     C_R   0.543054 0.064863 0.611449 -0.006239
C16   C     C_3   0.299736 0.125909 0.275963 -0.016085
C17   C     C_3   0.244280 0.116231 0.132213 -0.383082
C18   C     C_3   0.737705 0.904099 0.782918 0.018050
C19   C     C_3   0.831847 0.902015 0.893044 -0.380971
C20   C     C_3   0.310001 0.043052 0.742088 -0.055110
C21   C     C_3   0.207111 0.125419 0.717264 -0.373501
C22   C     C_3   0.573090 0.139692 0.984019 0.064350
C23   C     C_R   0.466164 0.062063 0.376516 0.212745
C24   C     C_3   0.665477 0.211463 0.060652 -0.371877
C25   C     C_R   0.474688 0.933738 0.376090 -0.143770
C26   C     C_R   0.510058 0.870435 0.496735 -0.080584
C27   C     C_R   0.552626 0.938127 0.609687 -0.100904
C28   C     C_3   0.533624 0.927711 0.765862 0.173835
C29   C     C_3   0.514262 0.069032 0.765227 0.527482
C30   C     C_R   0.573237 0.575010 0.073523 0.169317
Cu1   Cu    Cu3+1 0.499990 0.499980 0.640670 0.974159
Cu2   Cu    Cu3+1 0.500010 0.500020 0.359330 0.936947
H1    H     H_    0.738642 0.649574 0.869591 0.149331
H2    H     H_    0.150156 0.125504 0.142264 0.091327
H3    H     H_    0.276719 0.189831 0.062007 0.153549
H4    H     H_    0.445244 0.884027 0.284374 0.156662
H5    H     H_    0.746347 0.993071 0.726274 0.163163
H6    H     H_    0.751343 0.827054 0.708005 0.131808
H7    H     H_    0.826408 0.817974 0.958408 0.144140
H8    H     H_    0.916708 0.904798 0.840885 0.089344
H9    H     H_    0.824273 0.983255 0.962633 0.154441
H10   H     H_    0.286899 0.973845 0.823061 0.123197
H11   H     H_    0.328466 0.995290 0.641834 0.108960
H12   H     H_    0.735660 0.488552 0.128594 0.145677
H13   H     H_    0.227675 0.194985 0.635603 0.151321
H14   H     H_    0.133355 0.069037 0.681394 0.094086
H15   H     H_    0.183272 0.173562 0.815701 0.148741
H16   H     H_    0.568467 0.045432 0.029229 0.184119
H17   H     H_    0.490873 0.187527 0.003615 0.196202
H18   H     H_    0.669510 0.306233 0.018424 0.151414
H19   H     H_    0.645424 0.215714 0.174292 0.152512
H20   H     H_    0.749867 0.167168 0.046408 0.130265
H21   H     H_    0.357824 0.381538 0.130723 0.129456
H22   H     H_    0.736148 0.660633 0.121673 0.133581
H23   H     H_    0.457459 0.871382 0.792436 0.108149
H24   H     H_    0.358022 0.380462 0.869968 0.144218
H25   H     H_    0.732849 0.478533 0.879094 0.148943
H26   H     H_    0.276782 0.215917 0.323683 0.145628
H27   H     H_    0.262688 0.050989 0.342455 0.111186
H28   H     H_    0.264014 0.025313 0.084884 0.155989
N1    N     N_R   0.500710 0.500930 0.147930 -0.237826
N2    N     N_R   0.500710 0.500890 0.852020 -0.232091
O1    O     O_R   0.500000 0.319640 0.618810 -0.451727
O2    O     O_3   0.629541 0.890428 0.848874 -0.568060
O3    O     O_3   0.401899 0.116507 0.791057 -0.580656
O4    O     O_3   0.598805 0.136711 0.839075 -0.535938
O5    O     O_R   0.500010 0.319680 0.381230 -0.477914
O6    O     O_R   0.337190 0.499990 0.618790 -0.506463
O7    O     O_R   0.337200 0.500030 0.381210 -0.506202
O8    O     O_R   0.499990 0.680320 0.618770 -0.493330
O9    O     O_R   0.500000 0.680360 0.381190 -0.500436
O10   O     O_R   0.662800 0.499970 0.618790 -0.498737
O11   O     O_R   0.662810 0.500010 0.381210 -0.507390
O12   O     O_3   0.419909 0.119434 0.260576 -0.573217

loop_
_geom_bond_atom_site_label_1
_geom_bond_atom_site_label_2
_ccdc_geom_bond_type
Cu2   N1    S    
C20   H10   S    
C9    C14   S    
C6    H1    S    
C24   H20   S    
C6    C7    S    
C16   O12   S    
Cu1   O1    S    
C8    C26   S    
C3    H24   S    
C16   H27   S    
C8    O8    A    
Cu1   Cu2   S    
Cu1   N2    S    
C12   C15   A    
C23   O12   S    
C22   H16   S    
C24   H19   S    
C23   C25   A    
C2    C3    A    
C18   H6    S    
C4    O7    A    
C9    O11   A    
C7    C30   S    
C16   H26   S    
C7    H12   S    
C11   C13   S    
C12   C23   A    
C18   O2    S    
C26   C27   A    
Cu2   O7    S    
C1    C12   S    
C19   H7    S    
Cu2   O5    S    
C29   O3    S    
C1    O1    A    
C17   H3    S    
Cu1   O10   S    
C1    O5    A    
C18   H5    S    
C5    N2    A    
C15   C29   S    
Cu2   O9    S    
C21   H13   S    
C19   H8    S    
C22   H17   S    
C24   H18   S    
C5    C6    S    
C22   C24   S    
C3    N2    A    
C6    H25   S    
C17   H2    S    
C25   H4    S    
C4    C10   S    
C29   O4    S    
C2    H21   S    
C28   O2    S    
C20   O3    S    
C27   C28   S    
C20   H11   S    
C18   C19   S    
C20   C21   S    
C21   H14   S    
C10   C11   T    
C30   N1    A    
Cu2   O11   S    
C4    O6    A    
C28   C29   S    
C9    O10   A    
C17   H28   S    
C7    H22   S    
C21   H15   S    
C25   C26   A    
C13   C14   T    
C15   C27   A    
Cu1   O6    S    
C28   H23   S    
Cu1   O8    S    
C22   O4    S    
C19   H9    S    
C5    C30   A    
C16   C17   S    
C8    O9    A    
C2    N1    A    
