data_mof_unit_30335.cif
_audit_creation_date              2012-12-11T16:58:16-0500
_audit_creation_method            fapswitch 2.2
_symmetry_space_group_name_H-M    P1
_symmetry_Int_Tables_number       1
_space_group_crystal_system       monoclinic
_cell_length_a                    16.778447
_cell_length_b                    7.351533
_cell_length_c                    17.121126
_cell_angle_alpha                 90.0
_cell_angle_beta                  100.181225
_cell_angle_gamma                 90.0
_cell_volume                      2078.59079358

loop_
_atom_site_label
_atom_site_type_symbol
_atom_type_description
_atom_site_fract_x
_atom_site_fract_y
_atom_site_fract_z
_atom_type_partial_charge
O1    O     O_R   0.413450 0.494370 0.415710 -0.485447
O2    O     O_R   0.586550 0.994370 0.584290 -0.485448
O3    O     O_R   0.578420 0.819350 0.429360 -0.543131
O4    O     O_R   0.421580 0.319350 0.570640 -0.543131
C1    C     C_R   0.604794 0.657592 0.414108 0.757238
C2    C     C_R   0.395206 0.157592 0.585892 0.757238
O5    O     O_R   0.413570 0.823780 0.406240 -0.582392
O6    O     O_R   0.586430 0.323780 0.593760 -0.582393
O7    O     O_R   0.420530 0.998740 0.561000 -0.519568
O8    O     O_R   0.579470 0.498740 0.439000 -0.519568
C3    C     C_R   0.387043 0.655521 0.383018 0.717823
C4    C     C_R   0.612957 0.155521 0.616982 0.717823
O9    O     O_3   0.502480 0.662320 0.550800 -0.380474
O10   O     O_3   0.497520 0.162320 0.449200 -0.380474
V1    V     V_3+5 0.499540 0.935370 0.490580 1.460399
V2    V     V_3+5 0.500460 0.435370 0.509420 1.460399
C5    C     C_R   0.747269 0.032177 0.686537 -0.029534
C6    C     C_R   0.252731 0.532177 0.313463 -0.029534
C7    C     C_R   0.681174 0.147711 0.686784 -0.145688
C8    C     C_R   0.318826 0.647711 0.313216 -0.145689
C9    C     C_R   0.672699 0.217912 0.761046 -0.249266
C10   C     C_R   0.327301 0.717912 0.238954 -0.249266
C11   C     C_R   0.734831 0.205651 0.828752 0.458128
C12   C     C_R   0.265168 0.705651 0.171248 0.458128
C13   C     C_R   0.810686 0.119445 0.821736 -0.174154
C14   C     C_R   0.189314 0.619445 0.178264 -0.174154
C15   C     C_R   0.811793 0.021214 0.751284 -0.185135
C16   C     C_R   0.188206 0.521214 0.248716 -0.185135
C17   C     C_3   0.814375 0.815537 0.740702 0.687674
C18   C     C_3   0.185624 0.315537 0.259298 0.687673
C19   C     C_3   0.738594 0.831791 0.674725 0.751474
C20   C     C_3   0.261406 0.331792 0.325275 0.751473
C21   C     C_R   0.332657 0.165833 0.638078 -0.222247
C22   C     C_R   0.667343 0.665834 0.361921 -0.222248
C23   C     C_R   0.162036 0.101769 0.856406 -0.094011
C24   C     C_R   0.837964 0.601769 0.143594 -0.094010
C25   C     C_R   0.251929 0.908897 0.793747 -0.097939
C26   C     C_R   0.748071 0.408897 0.206253 -0.097938
C27   C     C_R   0.198859 0.932296 0.846418 -0.190428
C28   C     C_R   0.801141 0.432296 0.153582 -0.190429
C29   C     C_R   0.176533 0.245841 0.806948 -0.162934
C30   C     C_R   0.823467 0.745841 0.193052 -0.162935
C31   C     C_R   0.227050 0.220169 0.749223 0.008569
C32   C     C_R   0.772950 0.720169 0.250777 0.008568
C33   C     C_R   0.267114 0.050890 0.744480 -0.018208
C34   C     C_R   0.732886 0.550890 0.255520 -0.018208
C35   C     C_R   0.321405 0.025192 0.690611 0.372542
C36   C     C_R   0.678595 0.525192 0.309389 0.372544
C37   C     C_R   0.289158 0.329993 0.640585 -0.294155
C38   C     C_R   0.710842 0.829993 0.359415 -0.294153
C39   C     C_R   0.236163 0.358535 0.694897 0.441346
C40   C     C_R   0.763837 0.858535 0.305103 0.441345
O11   O     O_R   0.920630 0.775410 0.061150 -0.533769
O12   O     O_R   0.079370 0.275410 0.938850 -0.533769
O13   O     O_R   0.086500 0.441450 0.093690 -0.533648
O14   O     O_R   0.913500 0.941450 0.906310 -0.533648
C41   C     C_R   0.116548 0.609570 0.113179 0.696767
C42   C     C_R   0.883452 0.109570 0.886821 0.696767
O15   O     O_R   0.921670 0.445960 0.070740 -0.554859
O16   O     O_R   0.078330 0.945960 0.929260 -0.554859
O17   O     O_R   0.913380 0.271130 0.915780 -0.533696
O18   O     O_R   0.086620 0.771130 0.084220 -0.533695
C43   C     C_R   0.897305 0.612191 0.087619 0.666152
C44   C     C_R   0.102695 0.112191 0.912381 0.666152
O19   O     O_3   0.997500 0.603030 0.949220 -0.386130
O20   O     O_3   0.002500 0.103030 0.050780 -0.386129
V3    V     V_3+5 0.000470 0.329940 0.009420 1.375719
V4    V     V_3+5 0.999530 0.829940 0.990580 1.375719
H1    H     H_    0.614580 0.273617 0.767993 0.126285
H2    H     H_    0.385420 0.773617 0.232007 0.126285
O21   O     O_3   0.197296 0.524178 0.700585 -0.563449
C45   C     C_3   0.163411 0.594766 0.625326 -0.235694
H3    H     H_    0.135467 0.487195 0.583371 0.140627
H4    H     H_    0.209501 0.672855 0.600034 0.163967
H5    H     H_    0.114701 0.691666 0.632966 0.159429
O22   O     O_3   0.802704 0.024179 0.299415 -0.563448
C46   C     C_3   0.836591 0.094762 0.374674 -0.235690
H6    H     H_    0.864536 0.987189 0.416627 0.140625
H7    H     H_    0.790502 0.172850 0.399968 0.163965
H8    H     H_    0.885301 0.191663 0.367034 0.159428
H9    H     H_    0.186208 0.812851 0.878613 0.133386
H10   H     H_    0.813792 0.312852 0.121387 0.133386
H11   H     H_    0.146009 0.374311 0.811353 0.159130
H12   H     H_    0.853990 0.874311 0.188647 0.159130
O23   O     O_3   0.706392 0.224150 0.899815 -0.571312
C47   C     C_3   0.759629 0.315169 0.959065 -0.245309
H13   H     H_    0.795090 0.423005 0.935841 0.168411
H14   H     H_    0.799197 0.214522 0.995314 0.142466
H15   H     H_    0.722854 0.383602 0.998152 0.151187
O24   O     O_3   0.293608 0.724150 0.100185 -0.571312
C48   C     C_3   0.240371 0.815169 0.040935 -0.245309
H16   H     H_    0.204910 0.923005 0.064158 0.168411
H17   H     H_    0.200803 0.714521 0.004686 0.142466
H18   H     H_    0.277146 0.883601 0.001848 0.151187
O25   O     O_3   0.806146 0.698112 0.806128 -0.564751
C49   C     C_3   0.753218 0.757379 0.857399 -0.262941
H19   H     H_    0.706439 0.855605 0.830905 0.168153
H20   H     H_    0.787210 0.811119 0.913760 0.167267
H21   H     H_    0.720042 0.639272 0.875015 0.144315
O26   O     O_3   0.193854 0.198112 0.193872 -0.564751
C50   C     C_3   0.246781 0.257378 0.142601 -0.262940
H22   H     H_    0.293561 0.355605 0.169095 0.168153
H23   H     H_    0.212789 0.311119 0.086239 0.167267
H24   H     H_    0.279958 0.139272 0.124986 0.144315
O27   O     O_3   0.881124 0.762357 0.705000 -0.573951
C51   C     C_3   0.955473 0.779521 0.757325 -0.125593
H25   H     H_    0.957111 0.691643 0.809964 0.198042
H26   H     H_    0.968827 0.923707 0.774005 0.118365
H27   H     H_    0.004391 0.731919 0.726405 0.133562
O28   O     O_3   0.118876 0.262357 0.295000 -0.573951
C52   C     C_3   0.044527 0.279522 0.242674 -0.125592
H28   H     H_    0.042889 0.191642 0.190036 0.198042
H29   H     H_    0.031174 0.423708 0.225994 0.118365
H30   H     H_    0.995609 0.231921 0.273595 0.133561
O29   O     O_3   0.660597 0.790919 0.692013 -0.575121
C53   C     C_3   0.647311 0.610586 0.710198 -0.253943
H31   H     H_    0.699388 0.521073 0.707174 0.153108
H32   H     H_    0.591712 0.568231 0.671513 0.206367
H33   H     H_    0.629734 0.602507 0.769193 0.130801
O30   O     O_3   0.339403 0.290919 0.307987 -0.575121
C54   C     C_3   0.352689 0.110586 0.289801 -0.253943
H34   H     H_    0.300612 0.021073 0.292826 0.153108
H35   H     H_    0.408287 0.068231 0.328487 0.206367
H36   H     H_    0.370266 0.102508 0.230807 0.130801
O31   O     O_3   0.748154 0.795997 0.595239 -0.560138
C55   C     C_3   0.754711 0.608888 0.579620 -0.210613
H37   H     H_    0.693930 0.546260 0.567318 0.155951
H38   H     H_    0.794689 0.534090 0.627633 0.152280
H39   H     H_    0.781342 0.593716 0.525119 0.147328
O32   O     O_3   0.251846 0.295997 0.404761 -0.560138
C56   C     C_3   0.245288 0.108888 0.420380 -0.210614
H40   H     H_    0.306070 0.046260 0.432682 0.155950
H41   H     H_    0.205311 0.034090 0.372367 0.152280
H42   H     H_    0.218658 0.093717 0.474881 0.147328
O33   O     O_3   0.361889 0.861601 0.688332 -0.549658
C57   C     C_3   0.435985 0.870655 0.742104 -0.181021
H43   H     H_    0.468352 0.739668 0.739956 0.159067
H44   H     H_    0.426149 0.890609 0.804118 0.114743
H45   H     H_    0.475826 0.980073 0.725730 0.125084
O34   O     O_3   0.638111 0.361601 0.311668 -0.549657
C58   C     C_3   0.564015 0.370654 0.257896 -0.181020
H46   H     H_    0.531648 0.239667 0.260044 0.159067
H47   H     H_    0.573851 0.390608 0.195882 0.114743
H48   H     H_    0.524174 0.480072 0.274270 0.125084
H49   H     H_    0.298391 0.439835 0.601152 0.186919
H50   H     H_    0.701609 0.939835 0.398848 0.186920
H51   H     H_    0.279737 0.776781 0.790800 0.190239
H52   H     H_    0.720263 0.276781 0.209200 0.190239

loop_
_geom_bond_atom_site_label_1
_geom_bond_atom_site_label_2
_ccdc_geom_bond_type
C18   C20   S    
C55   H37   S    
C15   C17   S    
C24   C30   A    
C52   H28   S    
O1    C3    A    
C56   H42   S    
O2    C4    A    
C2    O7    A    
C20   O32   S    
O33   C57   S    
O23   C47   S    
O5    C3    A    
C50   H22   S    
C30   C32   A    
C18   O28   S    
C7    C9    A    
C12   C14   A    
C45   H5    S    
C47   H14   S    
C51   H25   S    
C21   C37   A    
O29   C53   S    
C29   H11   S    
C49   H21   S    
C18   O26   S    
C53   H31   S    
C33   C35   A    
O11   V4    S    
O28   C52   S    
C54   H36   S    
O15   V3    S    
O25   C49   S    
O14   C42   A    
C37   C39   A    
C49   H20   S    
C38   C40   A    
C23   C44   S    
C24   C43   S    
C46   H6    S    
C32   C40   A    
C42   O17   A    
O5    V1    S    
O20   V3    S    
O6    V2    S    
C49   H19   S    
C29   C31   A    
C17   O27   S    
C39   O21   S    
C20   O30   S    
C57   H45   S    
C19   O29   S    
C32   C34   A    
C46   H7    S    
C34   C36   A    
C3    C8    S    
C22   C38   A    
C26   C34   A    
C36   O34   S    
C5    C15   A    
C28   H10   S    
C24   C28   A    
C38   H50   S    
C6    C16   A    
O22   C46   S    
C27   H9    S    
C57   H44   S    
C58   H48   S    
C48   H16   S    
C17   O25   S    
C47   H13   S    
C45   H3    S    
O12   V3    S    
C55   H39   S    
C41   O18   A    
O14   V4    S    
C25   H51   S    
C9    H1    S    
O4    V2    S    
C23   C27   A    
O13   C41   A    
C48   H17   S    
O17   V3    S    
C30   H12   S    
O6    C4    A    
O19   V4    S    
C1    C22   S    
C37   H49   S    
C52   H29   S    
O1    V2    S    
O34   C58   S    
O2    V1    S    
C31   C33   A    
C26   H52   S    
C54   H34   S    
C45   H4    S    
C8    C10   A    
C50   H24   S    
C9    C11   A    
C40   O22   S    
O31   C55   S    
C21   C35   A    
C10   C12   A    
O4    C2    A    
C22   C36   A    
C13   C42   S    
C19   O31   S    
C25   C33   A    
C56   H40   S    
O3    C1    A    
O3    V1    S    
O30   C54   S    
C50   H23   S    
C46   H8    S    
C55   H38   S    
C35   O33   S    
O15   C43   A    
C57   H43   S    
C56   H41   S    
C47   H15   S    
C12   O24   S    
O13   V3    S    
C2    C21   S    
C13   C15   A    
O27   C51   S    
C14   C16   A    
C53   H33   S    
O18   V4    S    
O16   C44   A    
O16   V4    S    
C58   H47   S    
O32   C56   S    
O7    V1    S    
O21   C45   S    
C25   C27   A    
O8    V2    S    
C58   H46   S    
C48   H18   S    
C26   C28   A    
O11   C43   A    
C31   C39   A    
O24   C48   S    
C51   H26   S    
C5    C19   S    
C4    C7    S    
C16   C18   S    
O26   C50   S    
C5    C7    A    
C53   H32   S    
C52   H30   S    
C6    C8    A    
C11   C13   A    
C23   C29   A    
C14   C41   S    
C54   H35   S    
C1    O8    A    
C6    C20   S    
O12   C44   A    
C17   C19   S    
C11   O23   S    
O9    V2    S    
O10   V1    S    
C10   H2    S    
C51   H27   S    
