data_mof_unit_31711.cif
_audit_creation_date              2012-12-10T20:30:59-0500
_audit_creation_method            fapswitch 2.2
_symmetry_space_group_name_H-M    P1
_symmetry_Int_Tables_number       1
_space_group_crystal_system       triclinic
_cell_length_a                    14.928345
_cell_length_b                    10.677707
_cell_length_c                    9.864469
_cell_angle_alpha                 89.842539
_cell_angle_beta                  89.699329
_cell_angle_gamma                 90.362527
_cell_volume                      1572.34202294

loop_
_atom_site_label
_atom_site_type_symbol
_atom_type_description
_atom_site_fract_x
_atom_site_fract_y
_atom_site_fract_z
_atom_type_partial_charge
C1    C     C_R   0.502543 0.259991 0.500146 0.915579
C2    C     C_R   0.907888 0.582939 0.416594 0.124010
C3    C     C_R   0.949604 0.322339 0.660664 -0.244243
C4    C     C_R   0.042482 0.317817 0.658098 -0.155101
C5    C     C_R   0.091836 0.402948 0.577838 0.043373
C6    C     C_R   0.046476 0.493370 0.498935 -0.006387
C7    C     C_R   0.094281 0.580794 0.418459 0.120119
C8    C     C_R   0.049042 0.668118 0.338326 -0.205429
C9    C     C_R   0.956001 0.668622 0.336662 -0.216959
C10   C     C_R   0.185325 0.400237 0.573852 0.300332
C11   C     C_R   0.231383 0.492488 0.499351 -0.134893
C12   C     C_R   0.326952 0.497528 0.500094 0.980035
C13   C     C_R   0.186759 0.580139 0.420281 -0.333528
C14   C     C_R   0.519866 0.063666 0.622556 0.096299
C15   C     C_R   0.516579 0.128779 0.500314 -0.091495
C16   C     C_R   0.530377 0.065241 0.377676 -0.227751
C17   C     C_R   0.530336 0.935793 0.377513 -0.231546
C18   C     C_R   0.515997 0.871364 0.499864 -0.104818
C19   C     C_R   0.518410 0.936051 0.622240 0.076295
C20   C     C_3   0.461653 0.929296 0.748410 -0.207664
C21   C     C_3   0.463087 0.072053 0.747713 -0.509172
C22   C     C_R   0.458937 0.405512 0.072129 0.208605
C23   C     C_R   0.502512 0.739957 0.499828 0.879671
C24   C     C_R   0.547085 0.587307 0.071303 -0.135384
C25   C     C_R   0.547080 0.587330 0.927303 -0.146720
C26   C     C_R   0.459094 0.405226 0.929589 0.193422
C27   C     C_3   0.362180 0.370740 0.926192 -0.446674
C28   C     C_3   0.362238 0.371585 0.079840 -0.519712
C29   C     C_R   0.673035 0.500601 0.499684 0.878572
C30   C     C_R   0.815082 0.582764 0.415723 -0.266009
C31   C     C_R   0.768371 0.499325 0.499234 -0.053844
C32   C     C_R   0.812195 0.414234 0.582584 -0.258832
C33   C     C_R   0.904819 0.410341 0.581502 0.125468
C34   C     C_R   0.953125 0.495638 0.499153 0.079949
H1    H     H_    0.779034 0.648586 0.352521 0.143324
H2    H     H_    0.535252 0.887317 0.281444 0.165543
H3    H     H_    0.500097 0.889884 0.834828 0.142466
H4    H     H_    0.397424 0.116653 0.728231 0.245771
H5    H     H_    0.500701 0.112547 0.834300 0.189602
H6    H     H_    0.583698 0.659223 0.125110 0.140794
H7    H     H_    0.583592 0.659328 0.872468 0.145720
H8    H     H_    0.319966 0.445246 0.881116 0.234883
H9    H     H_    0.351357 0.275510 0.884690 0.239735
H10   H     H_    0.320523 0.447382 0.123821 0.225625
H11   H     H_    0.773942 0.349633 0.645703 0.147937
H12   H     H_    0.351348 0.277351 0.125422 0.210686
H13   H     H_    0.912764 0.256514 0.723927 0.151344
H14   H     H_    0.074831 0.248353 0.720703 0.205056
H15   H     H_    0.224452 0.648797 0.361522 0.161238
H16   H     H_    0.085629 0.735455 0.276629 0.146064
H17   H     H_    0.921710 0.736112 0.273543 0.147166
H18   H     H_    0.535052 0.114352 0.281618 0.170651
N1    N     N_R   0.499390 0.499140 0.142800 -0.105112
N2    N     N_R   0.499390 0.499180 0.857150 -0.105983
O1    O     O_R   0.500010 0.316790 0.614690 -0.605735
O2    O     O_R   0.500000 0.316760 0.385350 -0.627751
O3    O     O_R   0.367850 0.499990 0.614680 -0.586360
O4    O     O_R   0.367840 0.499950 0.385340 -0.629240
O5    O     O_R   0.500000 0.683240 0.614650 -0.624995
O6    O     O_R   0.499990 0.683210 0.385310 -0.634543
O7    O     O_R   0.632160 0.500050 0.614660 -0.624060
O8    O     O_R   0.632150 0.500010 0.385320 -0.620593
Zn1   Zn    Zn3+2 0.500010 0.500020 0.653130 0.962495
Zn2   Zn    Zn3+2 0.499990 0.499980 0.346870 0.944307
C35   C     C_R   0.369282 0.870953 0.731164 0.188519
C36   C     C_R   0.340221 0.778412 0.823364 -0.116001
C37   C     C_R   0.255715 0.722787 0.809957 -0.133204
C38   C     C_R   0.199297 0.758984 0.704629 -0.109991
C39   C     C_R   0.227445 0.850400 0.611948 -0.141010
C40   C     C_R   0.311912 0.906283 0.624789 -0.127415
H19   H     H_    0.382933 0.749167 0.905830 0.116908
H20   H     H_    0.233884 0.651700 0.881448 0.129039
H21   H     H_    0.133909 0.715742 0.694450 0.141598
H22   H     H_    0.183813 0.877799 0.529896 0.145994
H23   H     H_    0.332487 0.976745 0.551705 0.159355
Cl1   Cl    Cl    0.244798 0.275607 0.649634 -0.735396

loop_
_geom_bond_atom_site_label_1
_geom_bond_atom_site_label_2
_ccdc_geom_bond_type
C32   H11   S    
C19   C20   S    
C9    H17   S    
C6    C34   A    
C7    C8    A    
C23   O5    A    
C28   H12   S    
C26   C27   S    
C30   H1    S    
C14   C21   S    
C1    O2    A    
C18   C19   A    
C5    C6    A    
N1    Zn2   S    
C16   C17   A    
N2    Zn1   S    
C3    C33   A    
C35   C40   A    
C17   C18   A    
C37   H20   S    
O7    Zn1   S    
O8    Zn2   S    
C10   Cl1   S    
C21   H4    S    
C31   C32   A    
C8    C9    A    
O1    Zn1   S    
O2    Zn2   S    
C1    C15   S    
C17   H2    S    
C12   O4    A    
C2    C34   A    
C36   C37   A    
C22   C28   S    
C26   N2    A    
O3    Zn1   S    
C22   N1    A    
O4    Zn2   S    
C23   O6    A    
C29   O7    A    
C37   C38   A    
C38   H21   S    
C20   C35   S    
C25   N2    A    
C25   H7    S    
C38   C39   A    
C24   N1    A    
C28   H10   S    
C18   C23   S    
C36   H19   S    
C21   H5    S    
C33   C34   A    
C39   H22   S    
C24   C25   A    
C13   H15   S    
C12   O3    A    
C3    C4    A    
C8    H16   S    
C40   H23   S    
C4    H14   S    
C29   O8    A    
C14   C19   A    
C16   H18   S    
C4    C5    A    
C11   C12   S    
C6    C7    A    
O5    Zn1   S    
C2    C30   A    
O6    Zn2   S    
C32   C33   A    
C1    O1    A    
C5    C10   A    
C29   C31   S    
C20   H3    S    
C11   C13   A    
C27   H8    S    
C30   C31   A    
C3    H13   S    
C24   H6    S    
C39   C40   A    
C10   C11   A    
C27   H9    S    
C7    C13   A    
C20   C21   S    
C35   C36   A    
C22   C26   A    
C27   C28   S    
C14   C15   A    
C2    C9    A    
C15   C16   A    
