data_mof_unit_30399.cif
_audit_creation_date              2012-12-11T17:07:25-0500
_audit_creation_method            fapswitch 2.2
_symmetry_space_group_name_H-M    P1
_symmetry_Int_Tables_number       1
_space_group_crystal_system       triclinic
_cell_length_a                    6.967725
_cell_length_b                    14.784104
_cell_length_c                    15.882364
_cell_angle_alpha                 90.201517
_cell_angle_beta                  89.337314
_cell_angle_gamma                 89.790959
_cell_volume                      1635.93658488

loop_
_atom_site_label
_atom_site_type_symbol
_atom_type_description
_atom_site_fract_x
_atom_site_fract_y
_atom_site_fract_z
_atom_type_partial_charge
O1    O     O_R   0.505720 0.583900 0.413310 -0.541954
O2    O     O_R   0.175940 0.594920 0.586080 -0.546758
O3    O     O_R   0.005640 0.416100 0.586690 -0.535576
C1    C     C_R   0.343417 0.615099 0.616625 0.692611
O4    O     O_R   0.176000 0.594930 0.413930 -0.540939
O5    O     O_R   0.005700 0.416110 0.413310 -0.537630
C2    C     C_R   0.345335 0.617026 0.385220 0.691481
O6    O     O_R   0.505660 0.583890 0.586690 -0.542477
O7    O     O_3   0.339200 0.441330 0.500000 -0.364643
V1    V     V_3+5 0.064350 0.510880 0.500000 1.391971
O8    O     O_R   0.675980 0.405080 0.413920 -0.542959
C3    C     C_R   0.846036 0.382267 0.385948 0.690627
O9    O     O_R   0.675920 0.405070 0.586070 -0.541293
C4    C     C_R   0.843594 0.386897 0.616764 0.700039
V2    V     V_3+5 0.564340 0.489120 0.500000 1.396513
O10   O     O_3   0.839360 0.558670 0.500000 -0.378454
C5    C     C_R   0.940203 0.437753 0.786705 -0.135084
C6    C     C_R   0.968213 0.466167 0.869012 -0.122347
C7    C     C_R   0.935698 0.406787 0.934960 -0.185776
C8    C     C_R   0.885137 0.316525 0.919203 0.270452
C9    C     C_R   0.887197 0.282332 0.835187 0.039361
C10   C     C_R   0.895981 0.346653 0.768389 0.017062
C11   C     C_R   0.882363 0.187627 0.815417 -0.183040
C12   C     C_R   0.869023 0.162059 0.728284 -0.015618
C13   C     C_R   0.823902 0.228052 0.666841 -0.023567
C14   C     C_R   0.851919 0.319880 0.685362 -0.115880
C15   C     C_R   0.905552 0.073454 0.698153 0.228218
C16   C     C_R   0.846636 0.047136 0.617396 -0.212283
C17   C     C_R   0.764837 0.109400 0.563270 0.446109
C18   C     C_R   0.765706 0.200220 0.585611 -0.234324
H1    H     H_    0.953356 0.487916 0.737643 0.101685
H2    H     H_    0.004242 0.535956 0.881946 0.146475
H3    H     H_    0.939098 0.432430 0.998897 0.108729
H4    H     H_    0.873154 0.978944 0.594854 0.159253
H5    H     H_    0.721807 0.247921 0.538106 0.142710
C19   C     C_R   0.735123 0.177633 0.249343 0.109164
C20   C     C_R   0.882374 0.179100 0.188439 -0.128671
C21   C     C_R   0.032240 0.241579 0.200814 -0.191030
H6    H     H_    0.151946 0.244186 0.156935 0.128438
C22   C     C_R   0.021972 0.306332 0.266012 -0.179647
H7    H     H_    0.134154 0.356489 0.270300 0.122793
C23   C     C_R   0.861748 0.310461 0.320923 -0.118782
C24   C     C_R   0.725073 0.241659 0.313659 0.163966
C25   C     C_3   0.511614 0.245925 0.310930 -0.397424
C26   C     C_3   0.522228 0.175562 0.240834 -0.410691
H8    H     H_    0.459164 0.312950 0.289526 0.161798
H9    H     H_    0.443548 0.220207 0.369729 0.185739
H10   H     H_    0.474136 0.201709 0.179279 0.166176
H11   H     H_    0.460119 0.109335 0.259337 0.165352
C27   C     C_R   0.512063 0.736053 0.698465 0.065645
C28   C     C_R   0.350887 0.681203 0.687539 -0.129924
C29   C     C_R   0.208860 0.683711 0.751849 -0.173020
H12   H     H_    0.087477 0.638600 0.749122 0.125821
C30   C     C_R   0.223885 0.743802 0.821040 -0.168001
H13   H     H_    0.112853 0.745504 0.868882 0.116513
C31   C     C_R   0.383645 0.800703 0.829037 -0.090546
C32   C     C_R   0.534881 0.786850 0.772401 -0.001562
C33   C     C_3   0.721383 0.737454 0.787698 0.255050
C34   C     C_3   0.713757 0.703237 0.697720 0.076497
H14   H     H_    0.846348 0.778890 0.800207 0.067214
H15   H     H_    0.736648 0.629066 0.691333 0.136623
C35   C     C_R   0.507839 0.747631 0.311327 0.029801
C36   C     C_R   0.353933 0.687208 0.318464 -0.106015
C37   C     C_R   0.203424 0.697078 0.260560 -0.154520
H16   H     H_    0.081801 0.652025 0.263386 0.115640
C38   C     C_R   0.214790 0.760600 0.194554 -0.139332
H17   H     H_    0.101247 0.762899 0.148771 0.117196
C39   C     C_R   0.376489 0.816638 0.184599 -0.149806
C40   C     C_R   0.518147 0.810987 0.246215 0.084083
C41   C     C_3   0.729638 0.796601 0.235814 0.136736
C42   C     C_3   0.718083 0.728261 0.307323 -0.389292
H18   H     H_    0.768236 0.765033 0.174186 0.074554
H19   H     H_    0.793357 0.748356 0.365647 0.178506
H20   H     H_    0.747795 0.657729 0.286366 0.131176
O11   O     O_R   0.229140 0.916090 0.913340 -0.542671
O12   O     O_R   0.558860 0.905090 0.086080 -0.546883
O13   O     O_R   0.729100 0.083920 0.086690 -0.530851
C43   C     C_R   0.389389 0.882881 0.114659 0.686004
O14   O     O_R   0.558860 0.905090 0.913930 -0.548232
O15   O     O_R   0.729100 0.083920 0.913310 -0.522874
C44   C     C_R   0.390200 0.877076 0.890707 0.680021
O16   O     O_R   0.229140 0.916080 0.086720 -0.541916
O17   O     O_3   0.395570 0.058660 0.000020 -0.367960
V3    V     V_3+5 0.670450 0.989140 0.000000 1.373444
O18   O     O_R   0.058810 0.094980 0.913910 -0.544943
C45   C     C_R   0.890643 0.116876 0.884174 0.814978
O19   O     O_R   0.058810 0.094980 0.086060 -0.541362
C46   C     C_R   0.889667 0.114540 0.116748 0.732903
V4    V     V_3+5 0.170450 0.010950 0.999970 1.373933
O20   O     O_3   0.895460 0.941370 0.999990 -0.392012
O21   O     O_3   0.710097 0.083801 0.483495 -0.558472
C47   C     C_3   0.518389 0.053971 0.488292 -0.285742
H21   H     H_    0.421065 0.107917 0.513323 0.148448
H22   H     H_    0.505838 0.991717 0.527169 0.139266
H23   H     H_    0.469704 0.037065 0.423931 0.160519
O22   O     O_3   0.700486 0.664021 0.844358 -0.552869
C48   C     C_3   0.713603 0.693501 0.928879 -0.222070
H24   H     H_    0.568982 0.711058 0.953976 0.139915
H25   H     H_    0.812301 0.751586 0.938162 0.115960
H26   H     H_    0.768556 0.636695 0.967244 0.137815
N1    N     N_2   0.833942 0.756689 0.640841 -0.551974
H27   H     H_    0.974358 0.735810 0.638034 0.272295
C49   C     C_3   0.759755 0.779107 0.558537 -0.529304
H28   H     H_    0.873112 0.813073 0.520559 0.181163
H29   H     H_    0.636825 0.826724 0.564751 0.186507
H30   H     H_    0.713596 0.717434 0.524802 0.224918
N2    N     N_2   0.845606 0.876135 0.254457 -0.503641
H31   H     H_    0.891570 0.909227 0.200888 0.261037
C50   C     C_3   0.783459 0.938307 0.320236 -0.461721
H32   H     H_    0.898764 0.988262 0.332036 0.204815
H33   H     H_    0.753106 0.902178 0.379963 0.201589
H34   H     H_    0.653212 0.975438 0.300154 0.174712
N3    N     N_2   0.802327 0.266556 0.986341 -0.537504
H35   H     H_    0.858088 0.283488 0.044041 0.238670
C51   C     C_3   0.594550 0.271164 0.987673 -0.484619
H36   H     H_    0.537002 0.227874 0.038593 0.197887
H37   H     H_    0.535376 0.246747 0.927049 0.204940
H38   H     H_    0.545561 0.341815 0.999319 0.171243
N4    N     N_2   0.032953 0.015496 0.740409 -0.540901
H39   H     H_    0.145455 0.041570 0.774072 0.265683
C52   C     C_3   0.961680 0.927686 0.760892 -0.517698
H40   H     H_    0.064839 0.876822 0.736330 0.216530
H41   H     H_    0.819489 0.915164 0.732245 0.198205
H42   H     H_    0.942386 0.922193 0.829867 0.213908

loop_
_geom_bond_atom_site_label_1
_geom_bond_atom_site_label_2
_ccdc_geom_bond_type
C38   C39   A    
O19   C46   A    
N1    H27   S    
C20   C46   S    
C7    C8    A    
C12   C15   A    
O15   V3    S    
O12   V3    S    
C48   H24   S    
C31   C44   S    
O18   C45   A    
C29   H12   S    
C20   C21   A    
O16   V4    S    
C18   H5    S    
C27   C34   S    
C19   C20   A    
O12   C43   A    
C41   N2    S    
C50   H33   S    
O5    C3    A    
C8    N3    S    
C33   H14   S    
C51   H36   S    
C31   C32   A    
C6    C7    A    
C33   O22   S    
C52   H42   S    
O15   C45   A    
O8    V2    S    
O13   C46   A    
C29   C30   A    
C39   C40   A    
C51   H37   S    
C11   C45   S    
C3    C23   S    
C11   C12   A    
C41   C42   S    
O1    V2    S    
O7    V1    S    
C25   H9    S    
C1    O6    A    
C22   C23   A    
C38   H17   S    
C16   H4    S    
N1    C49   S    
O9    C4    A    
N2    C50   S    
V3    O20   S    
C48   H25   S    
C25   H8    S    
C27   C28   A    
N4    C52   S    
C9    C11   A    
C39   C43   S    
C21   H6    S    
O17   V4    S    
C30   C31   A    
C34   H15   S    
C1    C28   S    
C28   C29   A    
C34   N1    S    
C12   C13   A    
C7    H3    S    
C50   H34   S    
O21   C47   S    
O4    C2    A    
O18   V4    S    
O11   C44   A    
O13   V3    S    
C13   C14   A    
C47   H23   S    
C35   C40   A    
C37   C38   A    
O2    C1    A    
C24   C25   S    
C17   C18   A    
C43   O16   A    
O17   V3    S    
C26   H11   S    
N2    H31   S    
C51   H38   S    
O22   C48   S    
C35   C36   A    
C47   H22   S    
C5    C6    A    
C19   C26   S    
C49   H29   S    
C4    C14   S    
C2    C36   S    
C52   H40   S    
O3    C4    A    
C22   H7    S    
O6    V2    S    
O9    V2    S    
C5    H1    S    
C6    H2    S    
C23   C24   A    
O2    V1    S    
C17   O21   S    
C48   H26   S    
C25   C26   S    
C42   H19   S    
N3    H35   S    
C26   H10   S    
C13   C18   A    
C30   H13   S    
C16   C17   A    
O1    C2    A    
C27   C32   A    
O5    V1    S    
C42   H20   S    
N4    H39   S    
C15   N4    S    
O14   C44   A    
C5    C10   A    
C37   H16   S    
O19   V4    S    
C33   C34   S    
O4    V1    S    
O3    V1    S    
V1    O10   S    
C50   H32   S    
C21   C22   A    
C32   C33   S    
O14   V3    S    
C47   H21   S    
C35   C42   S    
C49   H30   S    
O7    V2    S    
C40   C41   S    
C52   H41   S    
O11   V4    S    
C36   C37   A    
C8    C9    A    
C10   C14   A    
C49   H28   S    
C19   C24   A    
C41   H18   S    
N3    C51   S    
V4    O20   S    
C9    C10   A    
V2    O10   S    
O8    C3    A    
C15   C16   A    
