data_mof_unit_68594.cif
_audit_creation_date              2013-03-05T15:58:41-0500
_audit_creation_method            fapswitch 2.2
_symmetry_space_group_name_H-M    P1
_symmetry_Int_Tables_number       1
_space_group_crystal_system       triclinic
_cell_length_a                    8.28971
_cell_length_b                    12.704025
_cell_length_c                    14.921507
_cell_angle_alpha                 96.820117
_cell_angle_beta                  97.042548
_cell_angle_gamma                 99.111613
_cell_volume                      1524.50544862

loop_
_atom_site_label
_atom_site_type_symbol
_atom_site_description
_atom_site_fract_x
_atom_site_fract_y
_atom_site_fract_z
_atom_type_partial_charge
P1    P     P_3+3 0.998770 0.403620 0.291990 0.478065
O1    O     O_2   0.827930 0.435360 0.277760 -0.347281
O2    O     O_3   0.100310 0.439010 0.391180 -0.412006
O3    O     O_3   0.625610 0.634200 0.333270 -0.362276
O4    O     O_2   0.696759 0.545189 0.175545 -0.365687
O5    O     O_3   0.950754 0.262854 0.270874 -0.559742
O6    O     O_3   0.663845 0.744062 0.180248 -0.485295
H1    H     H_    0.562242 0.839173 0.272346 0.055551
C1    C     C_3   0.607574 0.917552 0.154792 -0.100597
H2    H     H_    0.540173 0.981415 0.179917 0.123444
H3    H     H_    0.742412 0.946520 0.173180 0.186589
P2    P     P_3+3 0.687370 0.751000 0.571300 0.464196
P3    P     P_3+3 0.109817 0.829293 0.382536 0.471043
O7    O     O_2   0.857120 0.766320 0.543890 -0.372455
O8    O     O_3   0.056570 0.691100 0.379020 -0.380859
O9    O     O_2   0.000228 0.883837 0.443420 -0.364951
O10   O     O_3   0.717609 0.794804 0.688453 -0.608440
O11   O     O_3   0.050297 0.860808 0.273975 -0.518718
C2    C     C_3   0.086382 0.781560 0.209108 0.400939
H4    H     H_    0.983248 0.711715 0.194927 0.173168
H5    H     H_    0.202001 0.752267 0.231854 -0.007992
C3    C     C_3   0.106954 0.828818 0.121620 -0.782738
H6    H     H_    0.989225 0.851305 0.092810 0.297686
H7    H     H_    0.204927 0.901642 0.135400 0.237932
C4    C     C_3   0.269772 0.778174 0.648507 0.379410
H8    H     H_    0.388945 0.758518 0.633202 0.095487
H9    H     H_    0.171974 0.746217 0.589511 0.131411
C5    C     C_3   0.281755 0.899524 0.664676 -0.897753
H10   H     H_    0.359075 0.932932 0.730721 0.269015
H11   H     H_    0.337142 0.937317 0.610023 0.222303
H12   H     H_    0.156601 0.919301 0.665807 0.266109
Ba1   Ba    Ba6+2 0.843760 0.550230 0.455610 1.588122
C6    C     C_3   0.932604 0.222726 0.353140 0.418782
H13   H     H_    0.834875 0.256302 0.385013 0.110349
H14   H     H_    0.049632 0.243150 0.400794 0.146485
C7    C     C_3   0.885434 0.100974 0.334134 -0.965195
H15   H     H_    0.754813 0.078711 0.301914 0.240328
H16   H     H_    0.899350 0.066090 0.398519 0.252163
H17   H     H_    0.966719 0.067196 0.288644 0.289239
C8    C     C_3   0.772422 0.718602 0.738938 0.152570
H18   H     H_    0.902500 0.715072 0.730177 0.129832
H19   H     H_    0.693885 0.637952 0.717782 0.109291
C9    C     C_3   0.758817 0.756783 0.838629 -0.069780
H20   H     H_    0.774211 0.846078 0.851206 0.178156
H21   H     H_    0.633706 0.724522 0.852842 0.134989
P4    P     P_3+3 0.190950 0.596470 0.708020 0.497975
O12   O     O_2   0.361790 0.564680 0.722290 -0.382471
O13   O     O_3   0.089410 0.561080 0.608830 -0.382831
O14   O     O_3   0.564100 0.365890 0.666740 -0.346753
O15   O     O_3   0.234348 0.737287 0.728241 -0.543532
P5    P     P_3+3 0.087462 0.168203 0.620406 0.498089
O16   O     O_3   0.601940 0.368260 0.453780 -0.336500
O17   O     O_3   0.133140 0.308990 0.620990 -0.288476
O18   O     O_2   0.185369 0.117892 0.550219 -0.379563
O19   O     O_3   0.180387 0.135093 0.723022 -0.553982
Ba2   Ba    Ba6+2 0.346080 0.449860 0.544400 1.622479
P6    P     P_3+3 0.585354 0.620894 0.213771 0.476273
C10   C     C_3   0.556425 0.816520 0.197503 0.257774
H22   H     H_    0.428268 0.781440 0.166426 0.052184
O20   O     O_3   0.587770 0.631830 0.546230 -0.383233
C11   C     C_3   0.413864 0.280321 0.267612 0.342825
H23   H     H_    0.298758 0.296951 0.293071 0.093957
H24   H     H_    0.509143 0.354633 0.281839 0.129721
C12   C     C_3   0.376056 0.247699 0.164852 -0.805778
H25   H     H_    0.278958 0.174466 0.148270 0.268793
H26   H     H_    0.331589 0.313795 0.132059 0.226116
H27   H     H_    0.489269 0.230695 0.137310 0.269400
P7    P     P_3+3 0.507336 0.232241 0.426111 0.456501
O21   O     O_2   0.332600 0.233710 0.456170 -0.375304
O22   O     O_3   0.471405 0.196058 0.307554 -0.578350
H28   H     H_    0.143598 0.768356 0.071741 0.260530
C13   C     C_3   0.077347 0.139933 0.791301 0.884668
H29   H     H_    0.960020 0.166822 0.769300 -0.105385
C14   C     C_3   0.034236 0.027260 0.818214 -0.980355
H30   H     H_    0.148349 0.994750 0.837614 0.299339
H31   H     H_    0.963749 0.029773 0.876796 0.253872
H32   H     H_    0.957038 0.972085 0.760262 0.226626
P8    P     P_3+3 0.605867 0.383090 0.786285 0.540522
C15   C     C_3   0.596259 0.177888 0.766383 0.442045
H33   H     H_    0.712051 0.206050 0.739476 0.029171
O23   O     O_2   0.487616 0.452878 0.824925 -0.330568
O24   O     O_3   0.546662 0.259270 0.823432 -0.457894
H34   H     H_    0.497592 0.146576 0.707658 0.137583
H35   H     H_    0.727352 0.117366 0.877987 0.266482
C16   C     C_3   0.625169 0.087257 0.820931 -0.960373
H36   H     H_    0.658018 0.019863 0.776300 0.227076
H37   H     H_    0.512291 0.057855 0.850122 0.303457
C17   C     C_R   0.366150 0.561880 0.169360 0.148198
H38   H     H_    0.327583 0.526408 0.303079 0.173030
H39   H     H_    0.508481 0.641656 0.031832 0.217778
C18   C     C_R   0.110891 0.466600 0.206359 0.293181
C19   C     C_R   0.914931 0.494713 0.771843 -0.443046
C20   C     C_R   0.820786 0.445383 0.830684 0.218350
C21   C     C_R   0.889451 0.443473 0.920738 -0.203929
C22   C     C_R   0.054306 0.495110 0.954364 0.140606
C23   C     C_R   0.149622 0.544532 0.891562 0.062667
C24   C     C_R   0.126502 0.500986 0.048211 0.069067
C25   C     C_R   0.293424 0.554275 0.076820 -0.027645
C26   C     C_R   0.382204 0.601027 0.013178 -0.151350
C27   C     C_R   0.310033 0.599553 0.923939 -0.003524
C28   C     C_R   0.038781 0.455943 0.114883 -0.256302
C29   C     C_R   0.272238 0.520390 0.232703 -0.505984
C30   C     C_R   0.080100 0.539053 0.798152 0.283307
H40   H     H_    0.914199 0.412338 0.098334 0.162706
H41   H     H_    0.856828 0.502303 0.704951 0.178842
H42   H     H_    0.809872 0.403449 0.962801 0.146729
H43   H     H_    0.382438 0.642934 0.880641 0.161206
C31   C     C_R   0.763017 0.181212 0.546524 -0.046014
C32   C     C_R   0.426447 0.806143 0.459560 -0.518312
C33   C     C_R   0.394342 0.984860 0.430422 -0.190870
C34   C     C_R   0.329442 0.876510 0.425060 0.191290
C35   C     C_R   0.584014 0.845355 0.508651 0.328052
C36   C     C_R   0.648408 0.957772 0.519575 -0.037601
C37   C     C_R   0.552305 0.027690 0.478424 -0.109285
C38   C     C_R   0.612801 0.139576 0.490213 0.189899
C39   C     C_R   0.865459 0.113118 0.579919 0.085448
C40   C     C_R   0.806150 0.002570 0.569077 -0.248881
H44   H     H_    0.315256 0.035232 0.400765 0.194305
H45   H     H_    0.887059 0.953294 0.598013 0.190594
H46   H     H_    0.373750 0.721723 0.454546 0.168654
N1    N     N_R   0.883560 0.723862 0.901215 0.223218
O25   O     O_R   0.839267 0.672762 0.967220 -0.416453
O26   O     O_R   0.038367 0.763961 0.902364 -0.414337
Br1   Br    Br    0.555705 0.889590 0.022928 -0.533411
N2    N     N_R   0.165097 0.217051 0.869269 0.240231
O27   O     O_R   0.206687 0.317161 0.858618 -0.383816
O28   O     O_R   0.206560 0.187644 0.948332 -0.400495
Br2   Br    Br    0.829728 0.332216 0.579110 -0.449102

loop_
_geom_bond_atom_site_label_1
_geom_bond_atom_site_label_2
_geom_bond_distance
_ccdc_geom_bond_type
C11   O22   1.404352 S    
C20   C21   1.398147 A    
H38   C29   1.082026 S    
C3    H28   1.108950 S    
C2    H4    1.110773 S    
P2    C35   1.854680 S    
C33   H44   1.078952 S    
C37   C38   1.412810 A    
O8    Ba1   2.757026 S    
C16   H36   1.110661 S    
O14   P8    1.755435 S    
C4    C5    1.517235 S    
C14   H31   1.109539 S    
P3    O11   1.745964 S    
C31   C38   1.402026 A    
C5    H10   1.105343 S    
C2    H5    1.111532 S    
O11   C2    1.405305 S    
C32   C34   1.395087 A    
P8    C20   1.838159 S    
C23   C27   1.399334 A    
C1    Br1   1.939263 S    
C39   C40   1.395739 A    
O1    Ba1   2.850190 S    
C1    C10   1.523659 S    
C11   H24   1.111432 S    
C33   C34   1.385373 A    
Ba1   O16   2.804872 S    
C19   C30   1.384745 A    
H1    C10   1.112831 S    
C4    O15   1.398456 S    
C8    C9    1.532285 S    
C22   C23   1.435569 A    
P7    O21   1.570219 D    
C14   H32   1.107652 S    
P2    O10   1.745195 S    
C6    C7    1.517502 S    
C1    H2    1.110708 S    
C9    N1    1.452340 S    
O6    C10   1.402177 S    
O19   C13   1.409446 S    
O16   P7    1.758807 S    
C11   H23   1.110459 S    
C8    H19   1.111212 S    
P1    C18   1.853416 S    
P2    Ba1   3.422944 S    
Ba1   O13   2.843844 S    
C21   C22   1.421065 A    
C18   C28   1.403276 A    
C35   C36   1.425847 A    
C24   C25   1.430067 A    
C16   H37   1.110280 S    
P4    O13   1.586776 S    
C14   H30   1.110949 S    
P1    O5    1.750911 S    
C12   H27   1.110878 S    
C2    C3    1.517238 S    
H35   C16   1.109882 S    
C13   C14   1.532191 S    
C32   C35   1.401243 A    
C4    H8    1.100166 S    
C7    H17   1.110627 S    
P1    Ba1   3.395328 S    
Ba2   O20   2.804242 S    
P1    O2    1.586775 S    
O10   C8    1.392733 S    
C12   H26   1.109846 S    
O3    P6    1.756136 S    
C11   C12   1.520261 S    
C9    H20   1.111802 S    
C1    H3    1.109349 S    
O2    Ba2   2.844452 S    
P8    O24   1.746942 S    
C26   C27   1.388003 A    
C6    H13   1.104631 S    
C31   Br2   1.897066 S    
C9    H21   1.108396 S    
N1    O25   1.300503 A    
O3    Ba1   2.829259 S    
C36   C40   1.416692 A    
P7    O22   1.750382 S    
C8    H18   1.109197 S    
P2    O7    1.502866 D    
Ba2   O21   2.879972 S    
C28   H40   1.076196 S    
P3    O8    1.734006 S    
N2    O27   1.297747 A    
C3    H7    1.110720 S    
P3    O9    1.543711 D    
Ba1   O20   2.910966 S    
C18   C29   1.388612 A    
H39   C26   1.078423 S    
C15   C16   1.519124 S    
P6    C17   1.859690 S    
C36   C37   1.426331 A    
O17   Ba2   2.757658 S    
O13   Ba2   2.928992 S    
C33   C37   1.405560 A    
P4    O12   1.530272 D    
C21   H42   1.076453 S    
C27   H43   1.075310 S    
C5    H12   1.107084 S    
O7    Ba1   2.879709 S    
C13   H29   1.106332 S    
C15   O24   1.404994 S    
C17   C29   1.395001 A    
C22   C24   1.442293 A    
C4    H9    1.110364 S    
O14   Ba2   2.828593 S    
P4    C30   1.873235 S    
P4    O15   1.749901 S    
P5    C39   1.860274 S    
O5    C6    1.399621 S    
O4    P6    1.543827 D    
C13   N2    1.462377 S    
P5    O18   1.542016 D    
C12   H25   1.110846 S    
C31   C39   1.396103 A    
C40   H45   1.074396 S    
C10   H22   1.105654 S    
C5    H11   1.105161 S    
P3    C34   1.832364 S    
C15   H34   1.110623 S    
P8    O23   1.540072 D    
P1    O1    1.529966 D    
C7    H16   1.105826 S    
C19   C20   1.384379 A    
C6    H14   1.105173 S    
Ba1   Ba2   4.525197 S    
P5    O19   1.755345 S    
O2    Ba1   2.928157 S    
C17   C25   1.423105 A    
N1    O26   1.300824 A    
P7    C38   1.858339 S    
C15   H33   1.109245 S    
P2    O20   1.583514 S    
C19   H41   1.075751 S    
C7    H15   1.107550 S    
C25   C26   1.401110 A    
C23   C30   1.430736 A    
P4    Ba2   3.395876 S    
N2    O28   1.302082 A    
C3    H6    1.110613 S    
P5    O17   1.767311 S    
O6    P6    1.750782 S    
C24   C28   1.423654 A    
O16   Ba2   2.910058 S    
C32   H46   1.082209 S    
O12   Ba2   2.850603 S    
