data_mof_unit_12431.cif
_audit_creation_date              2012-12-10T20:42:36-0500
_audit_creation_method            fapswitch 2.2
_symmetry_space_group_name_H-M    P1
_symmetry_Int_Tables_number       1
_space_group_crystal_system       triclinic
_cell_length_a                    8.887282
_cell_length_b                    10.657833
_cell_length_c                    9.937315
_cell_angle_alpha                 89.507929
_cell_angle_beta                  88.973254
_cell_angle_gamma                 90.494841
_cell_volume                      941.031993886

loop_
_atom_site_label
_atom_site_type_symbol
_atom_type_description
_atom_site_fract_x
_atom_site_fract_y
_atom_site_fract_z
_atom_type_partial_charge
C1    C     C_R   0.507738 0.260320 0.500443 0.903818
C2    C     C_R   0.572699 0.939543 0.375014 0.292515
C3    C     C_R   0.541359 0.871774 0.496136 -0.193877
C4    C     C_R   0.547404 0.935053 0.618290 0.035194
C5    C     C_3   0.452538 0.925071 0.743962 -0.436437
C6    C     C_3   0.455923 0.067674 0.747128 0.138760
C7    C     C_R   0.368191 0.494587 0.072528 0.116005
C8    C     C_R   0.628886 0.523362 0.066090 0.348023
C9    C     C_R   0.628132 0.520482 0.923912 -0.096981
C10   C     C_R   0.368198 0.496348 0.931219 0.144499
C11   C     C_3   0.244406 0.401728 0.925173 -0.474340
C12   C     C_R   0.218978 0.499781 0.500739 0.929028
C13   C     C_3   0.243289 0.399347 0.078771 0.103056
C14   C     C_R   0.508818 0.740082 0.498733 0.902983
C15   C     C_R   0.781041 0.499951 0.499297 0.934900
C16   C     C_1   0.065484 0.499708 0.501100 -0.167305
C17   C     C_1   0.934544 0.499768 0.498989 -0.134194
C18   C     C_R   0.548677 0.062874 0.620604 0.105624
C19   C     C_R   0.540955 0.130018 0.500558 -0.207449
C20   C     C_R   0.572108 0.069398 0.378900 -0.173902
H1    H     H_    0.584897 0.121680 0.285360 0.240163
H2    H     H_    0.281361 0.313070 0.877233 0.244392
H3    H     H_    0.138440 0.438016 0.123932 0.176313
H4    H     H_    0.338539 0.885735 0.725359 0.184421
H5    H     H_    0.513431 0.879407 0.827710 0.256349
H6    H     H_    0.344063 0.111464 0.733375 0.125339
H7    H     H_    0.731522 0.536380 0.867107 0.178249
H8    H     H_    0.140318 0.442269 0.883014 0.196052
N1    N     N_R   0.499010 0.499140 0.142800 -0.112128
N2    N     N_R   0.499010 0.499180 0.857150 -0.110927
O1    O     O_R   0.500020 0.316790 0.614690 -0.605892
O2    O     O_R   0.500000 0.316760 0.385350 -0.581017
O3    O     O_R   0.285350 0.500020 0.614650 -0.624207
O4    O     O_R   0.285340 0.499980 0.385310 -0.600700
O5    O     O_R   0.500000 0.683240 0.614650 -0.620424
O6    O     O_R   0.499980 0.683210 0.385310 -0.567183
O7    O     O_R   0.714660 0.500020 0.614690 -0.634977
O8    O     O_R   0.714650 0.499980 0.385350 -0.565345
Zn1   Zn    Zn3+2 0.500010 0.500020 0.653130 0.976769
Zn2   Zn    Zn3+2 0.499990 0.499980 0.346870 1.055003
Br1   Br    Br    0.297898 0.236647 0.150996 -0.414433
Br2   Br    Br    0.603626 0.868116 0.199350 -0.390321
Br3   Br    Br    0.573289 0.134141 0.893718 -0.406216
Br4   Br    Br    0.819986 0.572066 0.135121 -0.469200

loop_
_geom_bond_atom_site_label_1
_geom_bond_atom_site_label_2
_ccdc_geom_bond_type
C7    C10   A    
O5    Zn1   S    
C15   O8    A    
C7    N1    A    
C3    C14   S    
C10   N2    A    
C11   H2    S    
C19   C20   A    
C7    C13   S    
C4    C18   A    
C13   Br1   S    
C2    C3    A    
O7    Zn1   S    
O3    Zn1   S    
O8    Zn2   S    
C11   C13   S    
C9    H7    S    
C6    H6    S    
C5    H4    S    
C11   H8    S    
C2    Br2   S    
C5    H5    S    
C8    N1    A    
C9    N2    A    
N1    Zn2   S    
O1    Zn1   S    
N2    Zn1   S    
C6    Br3   S    
O2    Zn2   S    
C14   O6    A    
C5    C6    S    
C6    C18   S    
O4    Zn2   S    
C1    C19   S    
C16   C17   T    
C10   C11   S    
C2    C20   A    
C3    C4    A    
C8    Br4   S    
C1    O1    A    
C20   H1    S    
C13   H3    S    
C18   C19   A    
C14   O5    A    
C15   C17   S    
C8    C9    A    
O6    Zn2   S    
C12   O3    A    
C12   O4    A    
C1    O2    A    
C15   O7    A    
C12   C16   S    
C4    C5    S    
