data_mof_unit_42726.cif
_audit_creation_date              2013-03-05T16:09:56-0500
_audit_creation_method            fapswitch 2.2
_symmetry_space_group_name_H-M    P1
_symmetry_Int_Tables_number       1
_space_group_crystal_system       triclinic
_cell_length_a                    10.782965
_cell_length_b                    9.811597
_cell_length_c                    10.725662
_cell_angle_alpha                 90.29708
_cell_angle_beta                  89.880996
_cell_angle_gamma                 89.738614
_cell_volume                      1134.72517079

loop_
_atom_site_label
_atom_site_type_symbol
_atom_site_description
_atom_site_fract_x
_atom_site_fract_y
_atom_site_fract_z
_atom_type_partial_charge
O1    O     O_R   0.316770 0.614620 0.499990 -0.618535
O2    O     O_R   0.683230 0.614620 0.500010 -0.620514
O3    O     O_R   0.316800 0.385290 0.500000 -0.608987
O4    O     O_R   0.683200 0.385290 0.500000 -0.610017
C1    C     C_R   0.259812 0.500341 0.500949 0.894193
C2    C     C_R   0.740185 0.499611 0.502288 0.892993
O5    O     O_R   0.500010 0.614690 0.316770 -0.634720
O6    O     O_R   0.499990 0.614690 0.683230 -0.636887
O7    O     O_R   0.500040 0.385360 0.316770 -0.625120
O8    O     O_R   0.499960 0.385360 0.683230 -0.624329
C3    C     C_R   0.511815 0.500401 0.260140 0.882569
C4    C     C_R   0.489044 0.501321 0.740104 0.881270
Zn1   Zn    Zn3+2 0.500000 0.653120 0.500000 0.939704
Zn2   Zn    Zn3+2 0.500000 0.346880 0.500000 0.960646
H1    H     H_    0.502777 0.283262 0.110297 0.165370
H2    H     H_    0.479895 0.284671 0.888119 0.166858
C5    C     C_R   0.572587 0.751856 0.115751 -0.167474
C6    C     C_R   0.450640 0.759348 0.888639 -0.169025
H3    H     H_    0.626175 0.753151 0.200821 0.152980
H4    H     H_    0.395825 0.767651 0.804807 0.154209
C7    C     C_R   0.549566 0.876694 0.058656 -0.162194
C8    C     C_R   0.483930 0.880679 0.947644 -0.166704
H5    H     H_    0.579340 0.970678 0.102196 0.128639
H6    H     H_    0.461406 0.977834 0.905894 0.124162
C9    C     C_R   0.484774 0.631439 0.939809 0.111598
C10   C     C_R   0.528539 0.628720 0.062165 0.108727
C11   C     C_R   0.522915 0.503083 0.126644 -0.128865
C12   C     C_R   0.479398 0.505739 0.873847 -0.129628
C13   C     C_R   0.504612 0.380472 0.062786 -0.223257
C14   C     C_R   0.487140 0.381568 0.936518 -0.226218
C15   C     C_R   0.063941 0.377047 0.523496 -0.052550
C16   C     C_R   0.938939 0.374975 0.496334 -0.054542
C17   C     C_R   0.872869 0.498834 0.508772 -0.165616
C18   C     C_R   0.127087 0.500834 0.505447 -0.169784
C19   C     C_R   0.936913 0.622203 0.525271 -0.058183
C20   C     C_R   0.060417 0.623750 0.494251 -0.062061
C21   C     C_R   0.547128 0.072341 0.598726 -0.066444
C22   C     C_R   0.452566 0.071715 0.401409 -0.066335
H7    H     H_    0.585430 0.127070 0.677369 0.128058
H8    H     H_    0.414212 0.126006 0.322826 0.126775
C23   C     C_R   0.547159 0.928373 0.598653 -0.106885
C24   C     C_R   0.452535 0.927723 0.401452 -0.092337
H9    H     H_    0.585679 0.874151 0.677060 0.161040
H10   H     H_    0.414029 0.872995 0.322956 0.158387
N1    N     N_R   0.500000 0.857200 0.500000 -0.091497
N2    N     N_R   0.500000 0.142810 0.500000 -0.072607
C25   C     C_R   0.116102 0.266998 0.602132 0.149402
C26   C     C_R   0.152154 0.140645 0.551690 -0.101056
C27   C     C_R   0.204698 0.041343 0.629010 -0.116404
C28   C     C_R   0.219730 0.066786 0.756235 -0.134261
C29   C     C_R   0.184743 0.192544 0.806701 -0.139533
C30   C     C_R   0.133501 0.292515 0.729991 -0.153446
H11   H     H_    0.141708 0.120476 0.452960 0.140683
H12   H     H_    0.235185 0.944759 0.591097 0.156266
H13   H     H_    0.258540 0.988960 0.815612 0.122529
H14   H     H_    0.197499 0.212657 0.905158 0.133191
H15   H     H_    0.107227 0.390043 0.770105 0.122667
C31   C     C_R   0.892322 0.260606 0.419140 0.147427
C32   C     C_R   0.848263 0.139882 0.472573 -0.098395
C33   C     C_R   0.804171 0.035002 0.395660 -0.119056
C34   C     C_R   0.806284 0.048826 0.266236 -0.130189
C35   C     C_R   0.849638 0.168862 0.212729 -0.136323
C36   C     C_R   0.892086 0.274657 0.288805 -0.161100
H16   H     H_    0.846703 0.128045 0.572877 0.134705
H17   H     H_    0.767404 0.942879 0.435398 0.158172
H18   H     H_    0.774467 0.966319 0.207526 0.123037
H19   H     H_    0.850461 0.179898 0.112374 0.134397
H20   H     H_    0.925498 0.367472 0.246277 0.125420
C37   C     C_1   0.883799 0.741174 0.586130 0.202961
N3    N     N_1   0.842973 0.835049 0.637754 -0.246563
C38   C     C_1   0.110346 0.745688 0.437747 0.203891
N4    N     N_1   0.148794 0.841915 0.389546 -0.245287

loop_
_geom_bond_atom_site_label_1
_geom_bond_atom_site_label_2
_geom_bond_distance
_ccdc_geom_bond_type
O5    Zn1   1.999188 S    
C22   H8    1.081339 S    
O7    Zn2   2.003123 S    
C20   C38   1.449330 S    
H1    C13   1.083949 S    
C25   C30   1.405873 A    
C16   C31   1.481432 S    
C22   N2    1.365372 A    
C11   C13   1.396237 A    
C23   H9    1.080208 S    
O5    C3    1.278236 A    
C28   H13   1.080300 S    
C2    C17   1.432556 S    
C3    C11   1.436964 S    
O6    C4    1.277204 A    
C9    C10   1.395895 A    
C1    C18   1.431867 S    
C34   C35   1.394958 A    
C35   C36   1.396384 A    
C12   C14   1.396744 A    
C28   C29   1.394908 A    
C10   C11   1.418043 A    
C15   C18   1.409144 A    
C38   N4    1.156847 T    
C21   H7    1.081291 S    
O4    Zn2   2.012754 S    
O2    C2    1.282622 A    
C7    C8    1.387045 A    
C16   C17   1.411455 A    
C9    C12   1.420119 A    
Zn1   N1    2.002351 S    
O7    C3    1.291198 A    
C32   H16   1.082779 S    
C13   C14   1.367836 A    
C6    C9    1.419667 A    
C24   H10   1.080904 S    
C35   H19   1.082391 S    
O3    Zn2   2.009377 S    
O1    C1    1.280978 A    
C5    C10   1.419418 A    
O8    C4    1.292964 A    
C26   C27   1.401192 A    
C17   C19   1.406883 A    
C18   C20   1.406994 A    
C4    C12   1.438456 S    
C33   H17   1.078140 S    
C22   C24   1.412799 A    
C6    H4    1.080277 S    
C37   N3    1.157039 T    
C7    H5    1.081835 S    
C21   C23   1.412547 A    
C26   H11   1.082471 S    
C8    H6    1.082103 S    
C31   C32   1.402936 A    
O1    Zn1   2.013241 S    
C30   H15   1.083417 S    
H2    C14   1.084043 S    
C27   H12   1.078918 S    
O6    Zn1   2.003027 S    
O3    C1    1.282777 A    
C32   C33   1.400994 A    
C29   C30   1.396305 A    
C19   C37   1.449526 S    
O4    C2    1.281557 A    
C29   H14   1.082461 S    
O8    Zn2   1.999276 S    
C31   C36   1.405420 A    
C27   C28   1.395850 A    
O2    Zn1   2.009855 S    
C23   N1    1.365158 A    
C36   H20   1.083422 S    
C15   C25   1.483057 S    
C5    H3    1.081070 S    
C21   N2    1.365359 A    
C6    C8    1.394118 A    
C34   H18   1.080599 S    
C24   N1    1.365490 A    
C15   C16   1.379828 A    
C5    C7    1.393755 A    
C25   C26   1.403036 A    
C33   C34   1.395621 A    
Zn2   N2    2.002254 S    
C19   C20   1.372173 A    
