data_mof_unit_60300.cif
_audit_creation_date              2012-12-10T21:13:09-0500
_audit_creation_method            fapswitch 2.2
_symmetry_space_group_name_H-M    P1
_symmetry_Int_Tables_number       1
_space_group_crystal_system       triclinic
_cell_length_a                    17.421905
_cell_length_b                    16.934106
_cell_length_c                    15.001972
_cell_angle_alpha                 89.866257
_cell_angle_beta                  92.583631
_cell_angle_gamma                 90.622673
_cell_volume                      4421.1799182

loop_
_atom_site_label
_atom_site_type_symbol
_atom_type_description
_atom_site_fract_x
_atom_site_fract_y
_atom_site_fract_z
_atom_type_partial_charge
C1    C     C_R   0.353540 0.499671 0.509029 0.918003
C2    C     C_R   0.647287 0.500402 0.495520 0.926629
C3    C     C_R   0.367246 0.450215 0.037992 -0.151014
C4    C     C_R   0.631599 0.550300 0.961761 -0.150973
C5    C     C_R   0.850501 0.573734 0.532843 -0.183231
C6    C     C_R   0.151915 0.430344 0.559247 -0.180413
C7    C     C_R   0.158974 0.571650 0.576603 -0.180361
C8    C     C_R   0.850263 0.431179 0.533742 -0.188907
C9    C     C_R   0.773777 0.573611 0.503432 0.178143
C10   C     C_R   0.229398 0.427906 0.541668 0.164861
C11   C     C_R   0.236790 0.571413 0.559726 0.165516
C12   C     C_R   0.773441 0.429615 0.504475 0.158947
C13   C     C_R   0.732004 0.501239 0.498059 -0.157437
C14   C     C_R   0.272506 0.499595 0.535061 -0.146429
C15   C     C_R   0.887401 0.502908 0.551257 0.056040
C16   C     C_R   0.116889 0.501787 0.574097 0.065411
C17   C     C_1   0.967681 0.503782 0.569502 -0.010145
C18   C     C_1   0.035957 0.503678 0.576468 -0.014972
C19   C     C_R   0.449294 0.833064 0.442794 0.372418
C20   C     C_R   0.547233 0.166753 0.561589 0.370169
C21   C     C_R   0.550304 0.834237 0.556924 0.356224
C22   C     C_R   0.453376 0.165265 0.439714 0.352993
C23   C     C_R   0.452420 0.749137 0.441104 0.169407
C24   C     C_R   0.544385 0.250766 0.562383 0.170026
C25   C     C_R   0.547586 0.750314 0.558505 0.201318
C26   C     C_R   0.455882 0.249238 0.438199 0.201843
C27   C     C_R   0.499738 0.876378 0.499904 -0.179758
C28   C     C_R   0.500329 0.123312 0.500833 -0.179950
C29   C     C_1   0.499824 0.963646 0.500263 0.130776
C30   C     C_1   0.500255 0.036024 0.500778 0.128241
C31   C     C_R   0.498335 0.500417 0.326798 1.032735
C32   C     C_R   0.501190 0.499631 0.673130 1.023478
C33   C     C_R   0.568084 0.522292 0.818087 0.403368
C34   C     C_R   0.431027 0.477893 0.181741 0.402950
C35   C     C_R   0.502027 0.497416 0.768590 -0.269125
C36   C     C_R   0.497111 0.502811 0.231202 -0.276267
C37   C     C_R   0.437604 0.466628 0.809880 0.392985
C38   C     C_R   0.560969 0.534491 0.189642 0.390165
C39   C     C_R   0.435222 0.470460 0.902766 0.014169
C40   C     C_R   0.563559 0.530032 0.096852 0.011184
C41   C     C_R   0.500398 0.498280 0.953282 -0.017189
C42   C     C_R   0.498618 0.501633 0.046415 -0.016716
C43   C     C_R   0.567143 0.523437 0.910844 0.018931
C44   C     C_R   0.431867 0.476651 0.088918 0.018744
C45   C     C_R   0.368636 0.447935 0.945831 -0.174261
C46   C     C_R   0.630018 0.553007 0.053856 -0.173275
H1    H     H_    0.317283 0.428255 0.908619 0.189507
H2    H     H_    0.681105 0.573360 0.091110 0.191517
H3    H     H_    0.315207 0.431242 0.069016 0.192522
H4    H     H_    0.683586 0.569480 0.930763 0.193165
H5    H     H_    0.882489 0.628975 0.537181 0.170631
H6    H     H_    0.118290 0.376095 0.560115 0.169443
H7    H     H_    0.130962 0.626704 0.591149 0.167935
H8    H     H_    0.882061 0.376556 0.538870 0.170248
N1    N     N_R   0.500000 0.707230 0.500000 -0.174257
N2    N     N_R   0.500000 0.292770 0.500000 -0.174519
O1    O     O_R   0.389110 0.566570 0.500000 -0.587501
O2    O     O_R   0.610890 0.433430 0.500000 -0.587159
O3    O     O_R   0.610890 0.566570 0.500000 -0.576213
O4    O     O_R   0.389110 0.433430 0.500000 -0.574217
O5    O     O_R   0.499980 0.566550 0.367850 -0.615704
O6    O     O_R   0.500020 0.433450 0.632150 -0.620924
O7    O     O_R   0.500020 0.566550 0.632150 -0.574272
O8    O     O_R   0.499980 0.433450 0.367850 -0.576789
Zn1   Zn    Zn3+2 0.500000 0.588860 0.500000 1.037982
Zn2   Zn    Zn3+2 0.500000 0.411140 0.500000 1.037420
O9    O     O_3   0.631255 0.552322 0.776286 -0.588339
C47   C     C_3   0.681792 0.490960 0.756870 -0.269593
H9    H     H_    0.740899 0.515890 0.756101 0.196792
H10   H     H_    0.667337 0.468252 0.689006 0.188731
H11   H     H_    0.682699 0.442049 0.806841 0.166468
O10   O     O_3   0.367445 0.449108 0.223717 -0.588246
C48   C     C_3   0.316856 0.511004 0.241049 -0.263882
H12   H     H_    0.326937 0.530488 0.311035 0.193015
H13   H     H_    0.257155 0.487611 0.234642 0.195757
H14   H     H_    0.320602 0.562142 0.194326 0.163804
O11   O     O_3   0.374539 0.439627 0.758608 -0.609290
C49   C     C_3   0.375146 0.356154 0.756994 -0.242312
H15   H     H_    0.316852 0.334742 0.735798 0.207532
H16   H     H_    0.389266 0.329003 0.823335 0.149858
H17   H     H_    0.415895 0.334646 0.708004 0.213508
O12   O     O_3   0.622812 0.564747 0.240500 -0.602874
C50   C     C_3   0.619365 0.648194 0.239391 -0.228562
H18   H     H_    0.600418 0.673430 0.173436 0.144839
H19   H     H_    0.677802 0.672204 0.255064 0.208779
H20   H     H_    0.580963 0.669374 0.291092 0.210762
I1    I     I_    0.734242 0.683408 0.451180 -0.401913
I2    I     I_    0.270858 0.310640 0.535616 -0.410860
I3    I     I_    0.292015 0.682723 0.585291 -0.345580
I4    I     I_    0.732407 0.318478 0.454748 -0.346957
O13   O     O_3   0.399800 0.872746 0.384041 -0.557475
C51   C     C_3   0.330726 0.886486 0.426849 -0.206954
H21   H     H_    0.301500 0.830145 0.444045 0.192469
H22   H     H_    0.291297 0.919174 0.380285 0.183821
H23   H     H_    0.340527 0.923139 0.487830 0.138417
O14   O     O_3   0.592334 0.127089 0.624995 -0.556504
C52   C     C_3   0.663939 0.111309 0.588835 -0.192079
H24   H     H_    0.699321 0.077695 0.638785 0.188409
H25   H     H_    0.695711 0.166806 0.574451 0.190493
H26   H     H_    0.657479 0.074785 0.527382 0.134965
O15   O     O_3   0.598878 0.875038 0.616530 -0.555081
C53   C     C_3   0.667846 0.892618 0.574438 -0.217220
H27   H     H_    0.698847 0.837932 0.558062 0.190775
H28   H     H_    0.705854 0.927352 0.621259 0.186994
H29   H     H_    0.657614 0.928729 0.513100 0.136560
O16   O     O_3   0.409162 0.124188 0.375980 -0.556609
C54   C     C_3   0.337673 0.105117 0.411567 -0.198318
H30   H     H_    0.303756 0.069169 0.361905 0.191276
H31   H     H_    0.304268 0.159108 0.424200 0.189760
H32   H     H_    0.344369 0.069663 0.473878 0.134041
I5    I     I_    0.380156 0.693850 0.342067 -0.329951
I6    I     I_    0.612288 0.305070 0.666358 -0.331186
I7    I     I_    0.620467 0.697319 0.656905 -0.156230
I8    I     I_    0.387612 0.300720 0.334460 -0.145878

loop_
_geom_bond_atom_site_label_1
_geom_bond_atom_site_label_2
_ccdc_geom_bond_type
O7    Zn1   S    
O15   C53   S    
C27   C29   S    
C54   H31   S    
C41   C42   A    
C31   O5    A    
C24   I6    S    
C52   H24   S    
C3    H3    S    
C39   C41   A    
C4    C46   A    
O11   C49   S    
C7    C11   A    
C10   I2    S    
C12   I4    S    
C35   C37   A    
C25   I7    S    
C33   C35   A    
C11   C14   A    
C49   H16   S    
O16   C54   S    
C53   H29   S    
C48   H12   S    
C2    C13   S    
C9    C13   A    
N1    Zn1   S    
O2    Zn2   S    
C20   C24   A    
C47   H9    S    
C54   H30   S    
C19   C27   A    
C41   C43   A    
C39   C45   A    
C21   O15   S    
C40   C42   A    
C20   O14   S    
O4    Zn2   S    
C22   C28   A    
C38   O12   S    
C48   H13   S    
C42   C44   A    
C52   H25   S    
C45   H1    S    
C46   H2    S    
C3    C44   A    
O6    Zn2   S    
O9    C47   S    
C33   C43   A    
C32   C35   S    
C34   C44   A    
C10   C14   A    
C1    O4    A    
C8    H8    S    
O13   C51   S    
C49   H15   S    
C20   C28   A    
C22   O16   S    
C37   O11   S    
C3    C45   A    
C51   H23   S    
C4    H4    S    
O8    Zn2   S    
C19   C23   A    
C26   I8    S    
C5    C9    A    
C29   C30   T    
C1    O1    A    
C11   I3    S    
C50   H18   S    
C8    C12   A    
O14   C52   S    
C51   H22   S    
C17   C18   T    
C53   H28   S    
C16   C18   S    
C7    C16   A    
C50   H19   S    
C8    C15   A    
C54   H32   S    
C40   C46   A    
C34   O10   S    
C52   H26   S    
C33   O9    S    
C15   C17   S    
C21   C25   A    
C2    O3    A    
C31   O8    A    
C25   N1    A    
C32   O7    A    
O1    Zn1   S    
O10   C48   S    
C26   N2    A    
C6    C10   A    
C2    O2    A    
C23   N1    A    
C4    C43   A    
C24   N2    A    
C23   I5    S    
C28   C30   S    
C32   O6    A    
C37   C39   A    
C9    I1    S    
C38   C40   A    
C49   H17   S    
C47   H11   S    
N2    Zn2   S    
C36   C38   A    
C51   H21   S    
C48   H14   S    
C34   C36   A    
C21   C27   A    
C53   H27   S    
C5    C15   A    
C19   O13   S    
C6    C16   A    
O5    Zn1   S    
C50   H20   S    
C12   C13   A    
C47   H10   S    
O12   C50   S    
C22   C26   A    
C7    H7    S    
C31   C36   S    
C5    H5    S    
C1    C14   S    
C6    H6    S    
O3    Zn1   S    
