data_mof_unit_29071.cif
_audit_creation_date              2012-12-11T15:16:41-0500
_audit_creation_method            fapswitch 2.2
_symmetry_space_group_name_H-M    P1
_symmetry_Int_Tables_number       1
_space_group_crystal_system       triclinic
_cell_length_a                    25.094567
_cell_length_b                    7.242449
_cell_length_c                    21.903831
_cell_angle_alpha                 89.984941
_cell_angle_beta                  110.185445
_cell_angle_gamma                 90.054769
_cell_volume                      3736.42833231

loop_
_atom_site_label
_atom_site_type_symbol
_atom_type_description
_atom_site_fract_x
_atom_site_fract_y
_atom_site_fract_z
_atom_type_partial_charge
O1    O     O_R   0.554350 0.505270 0.581390 -0.530888
O2    O     O_R   0.445650 0.005270 0.418610 -0.530764
O3    O     O_R   0.553380 0.177580 0.454800 -0.539473
O4    O     O_R   0.446620 0.677580 0.545200 -0.540597
C1    C     C_R   0.565629 0.344455 0.438135 0.679125
C2    C     C_R   0.434194 0.844273 0.561655 0.678540
O5    O     O_R   0.560970 0.175640 0.583140 -0.532251
O6    O     O_R   0.439030 0.675640 0.416860 -0.532978
O7    O     O_R   0.453290 0.004120 0.547860 -0.536726
O8    O     O_R   0.546710 0.504120 0.452140 -0.538886
C3    C     C_R   0.576024 0.343914 0.607568 0.685870
C4    C     C_R   0.423957 0.843798 0.392437 0.684498
O9    O     O_3   0.464660 0.338800 0.488280 -0.373949
O10   O     O_3   0.535340 0.838800 0.511720 -0.373391
V1    V     V_3+5 0.506560 0.064420 0.502170 1.425992
V2    V     V_3+5 0.493440 0.564420 0.497830 1.423305
C5    C     C_R   0.148830 0.990044 0.288617 -0.153034
C6    C     C_R   0.851601 0.482084 0.711120 -0.149785
H1    H     H_    0.063452 0.017691 0.222316 0.110027
H2    H     H_    0.937004 0.509656 0.777420 0.123389
H3    H     H_    0.234597 0.991667 0.400651 0.130785
H4    H     H_    0.766027 0.479719 0.598926 0.132036
H5    H     H_    0.136698 0.023248 0.330269 0.123419
H6    H     H_    0.863935 0.511511 0.669320 0.127301
C7    C     C_R   0.120833 0.943181 0.172414 -0.037332
C8    C     C_R   0.879211 0.442376 0.827598 -0.042040
C9    C     C_R   0.396772 0.807602 0.274021 -0.200251
C10   C     C_R   0.602931 0.313011 0.726152 -0.201649
C11   C     C_R   0.357527 0.801818 0.210555 0.018165
C12   C     C_R   0.642070 0.309391 0.789702 0.016446
C13   C     C_R   0.300001 0.836467 0.199847 -0.210782
C14   C     C_R   0.699716 0.341866 0.800344 -0.206345
C15   C     C_R   0.280503 0.877474 0.251714 0.058820
C16   C     C_R   0.719445 0.378460 0.748328 0.058522
C17   C     C_R   0.321518 0.884923 0.316170 0.075808
C18   C     C_R   0.678564 0.383318 0.683766 0.075669
C19   C     C_R   0.221606 0.911015 0.241680 0.083531
C20   C     C_R   0.778440 0.410138 0.758314 0.083682
C21   C     C_R   0.205745 0.953353 0.296451 0.134266
C22   C     C_R   0.794556 0.447695 0.703366 0.132166
C23   C     C_R   0.246669 0.959820 0.358843 -0.195982
C24   C     C_R   0.753763 0.451544 0.640868 -0.194276
C25   C     C_R   0.303501 0.925738 0.368657 -0.184437
C26   C     C_R   0.696819 0.419514 0.631118 -0.184202
C27   C     C_R   0.177665 0.905071 0.179477 -0.207854
C28   C     C_R   0.822244 0.406768 0.820633 -0.204908
C29   C     C_R   0.106948 0.986384 0.227190 -0.162043
C30   C     C_R   0.893375 0.480645 0.772635 -0.157643
C31   C     C_R   0.379758 0.849219 0.326825 -0.100826
C32   C     C_R   0.620197 0.349975 0.673187 -0.101130
H7    H     H_    0.186005 0.874133 0.135521 0.101789
H8    H     H_    0.813720 0.379381 0.864725 0.105274
H9    H     H_    0.441206 0.779015 0.282743 0.144925
H10   H     H_    0.558383 0.286464 0.717502 0.147620
H11   H     H_    0.271270 0.830388 0.150380 0.154654
H12   H     H_    0.728353 0.337655 0.849881 0.157491
H13   H     H_    0.333360 0.932102 0.417996 0.109217
H14   H     H_    0.667061 0.423737 0.581696 0.109869
C33   C     C_R   0.134421 0.778609 0.897097 -0.127479
C34   C     C_R   0.890479 0.278646 0.133340 -0.132581
H15   H     H_    0.129240 0.654937 0.922302 0.129610
H16   H     H_    0.913999 0.155423 0.130679 0.125896
C35   C     C_R   0.171471 0.773984 0.861775 -0.098810
C36   C     C_R   0.855606 0.274364 0.171232 -0.146311
H17   H     H_    0.193349 0.646282 0.860548 0.154823
H18   H     H_    0.852992 0.147186 0.195941 0.170150
C37   C     C_R   0.179518 0.929759 0.827464 -0.050685
C38   C     C_R   0.823918 0.429847 0.176669 -0.051404
C39   C     C_R   0.150783 0.095898 0.831662 0.006675
C40   C     C_R   0.829641 0.595138 0.144239 0.006365
C41   C     C_R   0.113606 0.098382 0.867415 -0.190280
C42   C     C_R   0.864587 0.596830 0.105882 -0.194097
H19   H     H_    0.091839 0.225620 0.870174 0.145796
H20   H     H_    0.868650 0.723602 0.081537 0.150381
C43   C     C_R   0.104893 0.940714 0.900306 -0.074378
C44   C     C_R   0.895494 0.439880 0.100142 -0.064304
N1    N     N_R   0.205105 0.011249 0.730724 -0.249429
N2    N     N_R   0.737018 0.517413 0.199976 -0.237251
N3    N     N_R   0.238305 0.997580 0.694751 -0.278937
N4    N     N_R   0.702604 0.503733 0.234467 -0.262435
C45   C     C_R   0.283532 0.881328 0.712189 0.517521
C46   C     C_R   0.713700 0.382038 0.284512 0.513603
N5    N     N_R   0.293752 0.778024 0.766898 -0.270103
N6    N     N_R   0.760401 0.272884 0.297996 -0.268495
N7    N     N_R   0.260836 0.793251 0.803243 -0.283066
N8    N     N_R   0.795091 0.287807 0.263774 -0.257478
C47   C     C_R   0.216143 0.912007 0.786419 0.555977
C48   C     C_R   0.784634 0.412409 0.214533 0.542815
C49   C     C_R   0.353914 0.711084 0.674340 -0.120271
C50   C     C_R   0.675635 0.214013 0.361581 -0.124949
H21   H     H_    0.351286 0.593181 0.703596 0.143937
H22   H     H_    0.702629 0.097148 0.361936 0.142822
C51   C     C_R   0.389773 0.701580 0.637488 -0.142359
C52   C     C_R   0.639747 0.204652 0.398413 -0.159786
H23   H     H_    0.414214 0.576981 0.639730 0.126345
H24   H     H_    0.640270 0.081093 0.426470 0.126099
C53   C     C_R   0.394925 0.852437 0.599351 -0.047240
C54   C     C_R   0.604101 0.353684 0.399475 -0.050836
C55   C     C_R   0.362565 0.011774 0.598155 -0.162235
C56   C     C_R   0.605004 0.511581 0.362403 -0.143278
H25   H     H_    0.365274 0.130087 0.569106 0.123833
H26   H     H_    0.577951 0.628588 0.361708 0.127351
C57   C     C_R   0.325838 0.019761 0.633926 -0.125200
C58   C     C_R   0.640136 0.519630 0.324805 -0.117626
H27   H     H_    0.301600 0.144661 0.631950 0.136586
H28   H     H_    0.639590 0.643308 0.296795 0.146997
C59   C     C_R   0.321387 0.870113 0.672867 0.020078
C60   C     C_R   0.676010 0.371260 0.324020 0.016423
O11   O     O_R   0.953220 0.285790 0.047790 -0.536790
O12   O     O_R   0.046780 0.785790 0.952210 -0.536704
O13   O     O_R   0.939020 0.617570 0.916840 -0.532692
O14   O     O_R   0.060980 0.117570 0.083160 -0.534533
C61   C     C_R   0.924013 0.448710 0.892459 0.688207
C62   C     C_R   0.076000 0.948833 0.107548 0.679718
O15   O     O_R   0.946600 0.615450 0.045180 -0.541133
O16   O     O_R   0.053400 0.115450 0.954820 -0.540458
O17   O     O_R   0.054370 0.786770 0.081410 -0.532493
O18   O     O_R   0.945630 0.286770 0.918590 -0.530814
C63   C     C_R   0.934283 0.447175 0.061647 0.685671
C64   C     C_R   0.065691 0.947350 0.938308 0.688403
O19   O     O_3   0.035300 0.454160 0.011680 -0.374680
O20   O     O_3   0.964700 0.954160 0.988320 -0.371804
V3    V     V_3+5 0.993450 0.728620 0.997830 1.429842
V4    V     V_3+5 0.006550 0.228620 0.002170 1.428129
C65   C     C_2   0.160436 0.271674 0.802323 0.757562
O21   O     O_2   0.120734 0.376778 0.777360 -0.560413
O22   O     O_R   0.215139 0.320309 0.805010 -0.643112
H29   H     H_    0.215837 0.440111 0.781401 0.319857
C66   C     C_2   0.802654 0.771837 0.151419 0.766513
O23   O     O_2   0.802367 0.820678 0.204745 -0.537788
O24   O     O_R   0.779589 0.886528 0.097334 -0.656327
H30   H     H_    0.762252 0.003063 0.108048 0.308150
C67   C     C_2   0.376525 0.758175 0.154988 0.790052
O25   O     O_2   0.426659 0.727549 0.164302 -0.545227
O26   O     O_R   0.337126 0.751879 0.091652 -0.663662
H31   H     H_    0.355269 0.720781 0.058132 0.318236
C68   C     C_2   0.622831 0.270486 0.845444 0.795551
O27   O     O_2   0.572576 0.242172 0.836212 -0.544431
O28   O     O_R   0.662142 0.266004 0.908850 -0.658501
H32   H     H_    0.643837 0.238087 0.942488 0.319106

loop_
_geom_bond_atom_site_label_1
_geom_bond_atom_site_label_2
_ccdc_geom_bond_type
C55   C57   A    
C35   H17   S    
C51   C53   A    
C9    C11   A    
C11   C67   S    
O1    C3    A    
C42   C44   A    
O2    C4    A    
C2    O7    A    
C58   H28   S    
C4    C31   S    
O3    V1    S    
O26   H31   S    
C21   C23   A    
H4    C24   S    
O5    C3    A    
C68   O28   S    
C5    H5    S    
C6    H6    S    
C36   C38   A    
C20   C22   A    
N6    N8    A    
O14   V4    S    
N2    N4    A    
C52   C54   A    
C28   H8    S    
C56   C58   A    
C34   H16   S    
C5    C21   A    
C39   C41   A    
C6    C22   A    
O19   V4    S    
C45   N5    A    
C10   C32   A    
O13   C61   A    
C26   H14   S    
C45   C59   S    
C17   C31   A    
C13   C15   A    
C46   C60   S    
C12   C14   A    
C17   C25   A    
C7    C29   A    
C16   C18   A    
C8    C30   A    
N7    C47   A    
C39   C65   S    
C51   H23   S    
C12   C68   S    
C11   C13   A    
C23   C25   A    
C33   C43   A    
C24   C26   A    
O14   C62   A    
C53   C55   A    
C50   C52   A    
N1    N3    A    
C35   C37   A    
C33   H15   S    
C44   C63   S    
O15   V3    S    
O13   V3    S    
C2    C53   S    
N4    C46   A    
O12   C64   A    
N3    C45   A    
C10   H10   S    
O5    V1    S    
C34   C44   A    
C40   C66   S    
C15   C19   A    
O16   C64   A    
C37   C39   A    
C36   H18   S    
O4    V2    S    
C65   O22   S    
O12   V3    S    
C50   H22   S    
C46   N6    A    
O6    C4    A    
C49   C59   A    
C56   H26   S    
C25   H13   S    
H1    C29   S    
C57   H27   S    
O1    V2    S    
O18   V4    S    
C52   H24   S    
O2    V1    S    
H2    C30   S    
H3    C23   S    
C42   H20   S    
N5    N7    A    
O15   C63   A    
C67   O25   D    
C38   C48   S    
C18   C26   A    
O4    C2    A    
C49   H21   S    
C19   C27   A    
O24   H30   S    
C7    C27   A    
C58   C60   A    
C18   C32   A    
O11   C63   A    
C41   H19   S    
C66   O23   D    
N2    C48   A    
O16   V4    S    
C55   H25   S    
C16   C20   A    
C33   C35   A    
C43   C64   S    
C5    C29   A    
O3    C1    A    
C6    C30   A    
C40   C42   A    
O28   H32   S    
C9    H9    S    
O11   V4    S    
C68   O27   D    
C37   C47   S    
C34   C36   A    
C10   C12   A    
O17   V3    S    
C8    C61   S    
C50   C60   A    
C1    O8    A    
C19   C21   A    
C3    C32   S    
O8    V2    S    
C7    C62   S    
C41   C43   A    
C65   O21   D    
C22   C24   A    
C15   C17   A    
N8    C48   A    
C49   C51   A    
C54   C56   A    
C20   C28   A    
C62   O17   A    
C8    C28   A    
C61   O18   A    
C9    C31   A    
C1    C54   S    
N1    C47   A    
O6    V2    S    
O9    V2    S    
C67   O26   S    
C38   C40   A    
C27   H7    S    
O10   V1    S    
C57   C59   A    
C13   H11   S    
O20   V3    S    
C14   H12   S    
O22   H29   S    
O7    V1    S    
C14   C16   A    
C66   O24   S    
