data_mof_unit_26767.cif
_audit_creation_date              2012-12-11T15:23:40-0500
_audit_creation_method            fapswitch 2.2
_symmetry_space_group_name_H-M    P1
_symmetry_Int_Tables_number       1
_space_group_crystal_system       triclinic
_cell_length_a                    7.065709
_cell_length_b                    17.688327
_cell_length_c                    19.305746
_cell_angle_alpha                 109.099534
_cell_angle_beta                  90.252144
_cell_angle_gamma                 90.475574
_cell_volume                      2279.87673935

loop_
_atom_site_label
_atom_site_type_symbol
_atom_type_description
_atom_site_fract_x
_atom_site_fract_y
_atom_site_fract_z
_atom_type_partial_charge
O1    O     O_R   0.505810 0.439670 0.562310 -0.548761
O2    O     O_R   0.169070 0.404920 0.411210 -0.519356
O3    O     O_R   0.005550 0.560330 0.437690 -0.511138
C1    C     C_R   0.337512 0.383674 0.382009 0.818084
O4    O     O_R   0.175650 0.430000 0.560110 -0.543248
O5    O     O_R   0.012170 0.585580 0.587650 -0.512779
C2    C     C_R   0.344389 0.414312 0.580913 0.784038
O6    O     O_R   0.499180 0.414420 0.412350 -0.556041
O7    O     O_3   0.341430 0.551020 0.508860 -0.356985
V1    V     V_3+5 0.063930 0.490540 0.498360 1.686631
O8    O     O_R   0.682850 0.595080 0.588790 -0.538200
C3    C     C_R   0.853121 0.618266 0.616124 0.853603
O9    O     O_R   0.676280 0.570000 0.439890 -0.546362
C4    C     C_R   0.847006 0.587808 0.421146 0.859232
V2    V     V_3+5 0.564760 0.509460 0.501640 1.647560
O10   O     O_3   0.837130 0.448980 0.491140 -0.397985
C5    C     C_R   0.030578 0.885258 0.192235 0.410264
C6    C     C_R   0.910873 0.864500 0.129624 -0.301848
C7    C     C_R   0.767573 0.805170 0.120978 0.375725
C8    C     C_R   0.748790 0.768075 0.175499 -0.010937
C9    C     C_R   0.884663 0.781275 0.232507 -0.024829
C10   C     C_R   0.032042 0.839005 0.240556 -0.131686
C11   C     C_R   0.588447 0.721250 0.176796 -0.036966
C12   C     C_R   0.571706 0.679142 0.225260 0.435743
C13   C     C_R   0.722181 0.679325 0.273791 -0.027107
C14   C     C_R   0.870159 0.736587 0.281913 -0.035379
C15   C     C_R   0.003391 0.748867 0.338963 -0.085251
C16   C     C_R   0.131876 0.813732 0.352864 0.375638
C17   C     C_R   0.163992 0.851557 0.300012 0.391081
C18   C     C_R   0.729865 0.625062 0.314096 0.349300
C19   C     C_R   0.860684 0.637827 0.371995 -0.256443
C20   C     C_R   0.008416 0.694892 0.379417 0.454040
H1    H     H_    0.466614 0.719333 0.142512 0.225184
C21   C     C_3   0.773412 0.809278 0.749248 0.408837
C22   C     C_3   0.929858 0.774811 0.693439 0.211315
C23   C     C_3   0.870582 0.688439 0.686286 -0.363733
C24   C     C_3   0.709782 0.721362 0.741524 -0.155371
C25   C     C_3   0.848576 0.723151 0.804626 0.297040
C26   C     C_3   0.008927 0.691835 0.749099 0.243170
C27   C     C_3   0.064679 0.778371 0.756751 0.179591
C28   C     C_3   0.907334 0.810490 0.813029 -0.375097
H2    H     H_    0.568209 0.693289 0.736559 0.254812
C29   C     C_3   0.546461 0.277368 0.282789 -0.105650
C30   C     C_3   0.467692 0.191561 0.269464 -0.179552
H3    H     H_    0.539555 0.144451 0.285930 0.235798
H4    H     H_    0.665686 0.300840 0.320919 0.217682
C31   C     C_3   0.409494 0.185828 0.189719 -0.315447
C32   C     C_3   0.487740 0.270750 0.202509 0.465588
C33   C     C_3   0.296001 0.307226 0.231057 0.224374
C34   C     C_3   0.216534 0.222236 0.219406 0.218620
C35   C     C_3   0.274979 0.229240 0.298418 0.359053
C36   C     C_3   0.352388 0.313831 0.310511 -0.388151
C37   C     C_R   0.554016 0.127924 0.815376 -0.027251
C38   C     C_R   0.417100 0.135089 0.869527 -0.127135
C39   C     C_R   0.267340 0.188302 0.875531 -0.055660
C40   C     C_R   0.250819 0.233799 0.827777 0.007346
C41   C     C_R   0.392047 0.227342 0.774282 -0.014566
C42   C     C_R   0.546022 0.174123 0.767824 0.025647
C43   C     C_R   0.094187 0.284325 0.831454 0.362857
C44   C     C_R   0.077343 0.327579 0.781999 0.332802
C45   C     C_R   0.218635 0.322171 0.729000 -0.027528
C46   C     C_R   0.377230 0.272921 0.726159 0.046275
C47   C     C_R   0.520634 0.268622 0.674429 0.100565
C48   C     C_R   0.671808 0.216556 0.668550 -0.182451
C49   C     C_R   0.684824 0.168027 0.713076 0.432588
C50   C     C_R   0.205796 0.364972 0.678687 -0.044066
C51   C     C_R   0.353385 0.364129 0.629761 -0.082394
C52   C     C_R   0.510484 0.315622 0.628194 -0.083567
H5    H     H_    0.663509 0.084593 0.810354 0.212907
H6    H     H_    0.162468 0.192775 0.917299 0.192955
H7    H     H_    0.082662 0.400388 0.677841 0.195786
H8    H     H_    0.623405 0.313047 0.589643 0.119454
H9    H     H_    0.778107 0.212265 0.627204 0.181329
O11   O     O_R   0.271890 0.085690 0.087580 -0.522276
O12   O     O_R   0.595690 0.070020 0.939870 -0.539138
O13   O     O_R   0.758900 0.914390 0.912370 -0.519560
C53   C     C_R   0.426899 0.085108 0.918516 0.750318
O14   O     O_R   0.602020 0.095100 0.088770 -0.500928
O15   O     O_R   0.765280 0.939660 0.062330 -0.524053
C54   C     C_R   0.432082 0.116278 0.118102 0.822823
O16   O     O_R   0.265520 0.060430 0.937620 -0.543973
O17   O     O_3   0.429560 0.949050 0.991100 -0.365694
V3    V     V_3+5 0.707160 0.009450 0.001650 1.768883
O18   O     O_R   0.094540 0.929890 0.060190 -0.517403
C55   C     C_R   0.924364 0.912728 0.079272 0.851612
O19   O     O_R   0.088200 0.904800 0.911290 -0.522086
C56   C     C_R   0.918943 0.880939 0.884040 0.843398
V4    V     V_3+5 0.206300 0.990390 0.998440 1.764449
O20   O     O_3   0.934030 0.050940 0.008900 -0.358148
Cl1   Cl    Cl    0.133168 0.982134 0.217882 -0.456699
Cl2   Cl    Cl    0.677935 0.902803 0.749450 -0.417272
Cl3   Cl    Cl    0.800782 0.671697 0.867957 -0.362963
S1    S     S_3+6 0.171703 0.616707 0.754128 0.092117
O21   O     O_2   0.062458 0.544751 0.757009 -0.272423
O22   O     O_2   0.296548 0.592971 0.687943 -0.356500
O23   O     O_3   0.308052 0.651451 0.829760 -0.410259
H10   H     H_    0.220208 0.678670 0.869790 0.382339
S2    S     S_3+6 0.286509 0.823803 0.762627 0.091980
O24   O     O_2   0.260717 0.912218 0.779373 -0.305293
O25   O     O_2   0.398309 0.809780 0.823454 -0.341147
O26   O     O_3   0.392120 0.785310 0.680701 -0.406322
H11   H     H_    0.351243 0.728579 0.661589 0.357438
Cl4   Cl    Cl    0.604896 0.294359 0.129957 -0.339213
S3    S     S_3+6 0.189094 0.381819 0.197499 0.212424
O27   O     O_2   0.089280 0.441966 0.259453 -0.277199
O28   O     O_2   0.334967 0.423853 0.167349 -0.180544
O29   O     O_3   0.034930 0.341207 0.128675 -0.389068
H12   H     H_    0.976742 0.387316 0.118561 0.432676
S4    S     S_3+6 0.983283 0.202233 0.188823 0.127003
O30   O     O_2   0.970496 0.185865 0.107830 -0.259779
O31   O     O_2   0.895024 0.135437 0.209870 -0.304415
O32   O     O_3   0.881404 0.289451 0.231433 -0.441346
H13   H     H_    0.943191 0.311259 0.280095 0.347281
S5    S     S_3+6 0.602566 0.777769 0.045378 0.067384
O33   O     O_2   0.580454 0.688193 0.016860 -0.248939
O34   O     O_2   0.414064 0.814086 0.072456 -0.333004
O35   O     O_3   0.665278 0.807285 0.975014 -0.488069
H14   H     H_    0.550840 0.797907 0.943421 0.402276
S6    S     S_3+6 0.145850 0.206763 0.369286 0.098165
O36   O     O_2   0.088887 0.120279 0.345528 -0.205255
O37   O     O_2   0.270783 0.225144 0.436093 -0.336163
O38   O     O_3   0.950462 0.262898 0.390620 -0.524292
H15   H     H_    0.895176 0.250814 0.432928 0.360019
Cl5   Cl    Cl    0.913936 0.293124 0.897111 -0.482650
Cl6   Cl    Cl    0.878793 0.389970 0.788646 -0.461780
S7    S     S_3+6 0.865851 0.095248 0.692079 0.055694
O39   O     O_2   0.775694 0.015491 0.652509 -0.221372
O40   O     O_2   0.010786 0.113871 0.642987 -0.301893
O41   O     O_3   0.975070 0.091067 0.768223 -0.537929
H16   H     H_    0.095240 0.062893 0.751048 0.375642
Cl7   Cl    Cl    0.343987 0.638931 0.227974 -0.470238
S8    S     S_3+6 0.630265 0.527571 0.275471 0.162054
O42   O     O_2   0.641841 0.505114 0.193524 -0.207227
O43   O     O_2   0.732281 0.464953 0.297762 -0.323577
O44   O     O_3   0.404766 0.529089 0.302640 -0.405318
H17   H     H_    0.409896 0.526726 0.352973 0.347337
Cl8   Cl    Cl    0.227487 0.681799 0.418973 -0.449900
Cl9   Cl    Cl    0.223088 0.860166 0.442908 -0.243620
S9    S     S_3+6 0.384726 0.904244 0.307665 0.128396
O45   O     O_2   0.358185 0.989735 0.355065 -0.208714
O46   O     O_2   0.530740 0.867158 0.343063 -0.297107
O47   O     O_3   0.467977 0.901512 0.225565 -0.489371
H18   H     H_    0.573516 0.940992 0.236689 0.368753
S10   S     S_3+6 0.976802 0.803432 0.614538 0.206505
O48   O     O_2   0.105036 0.742129 0.565921 -0.281600
O49   O     O_2   0.795159 0.804794 0.574215 -0.236942
O50   O     O_3   0.084210 0.893334 0.636974 -0.345218
H19   H     H_    0.024775 0.925347 0.683371 0.393319

loop_
_geom_bond_atom_site_label_1
_geom_bond_atom_site_label_2
_ccdc_geom_bond_type
C9    C14   A    
S7    O39   D    
C10   C17   A    
C21   C24   S    
C7    C8    A    
C4    C19   S    
C1    O6    A    
C37   H5    S    
C33   S3    S    
S3    O28   D    
S5    O33   D    
O44   H17   S    
C19   C20   A    
C37   C38   A    
C14   C15   A    
O26   H11   S    
C1    C36   S    
O16   V4    S    
C16   C17   A    
C24   C25   S    
C6    C7    A    
S4    O31   D    
C27   S2    S    
C18   C19   A    
S9    O47   S    
O19   V4    S    
C29   C36   S    
V2    O10   S    
S2    O24   D    
C25   Cl3   S    
C13   C18   A    
C28   C56   S    
C40   C41   A    
C21   C22   S    
C24   H2    S    
C21   Cl2   S    
O32   H13   S    
C47   C52   A    
O8    V2    S    
C45   C50   A    
C26   S1    S    
O50   H19   S    
S8    O42   D    
C11   H1    S    
C35   S6    S    
C48   H9    S    
O1    V2    S    
C3    C23   S    
C29   C32   S    
O17   V4    S    
C30   C31   S    
C37   C42   A    
C22   S10   S    
C38   C53   S    
C50   C51   A    
C43   C44   A    
S1    O22   D    
O11   C54   A    
O9    C4    A    
C21   C28   S    
C31   C54   S    
S10   O50   S    
C17   S9    S    
O14   V3    S    
O13   V3    S    
S3    O27   D    
C5    C6    A    
C31   C34   S    
S6    O37   D    
V3    O20   S    
C6    C55   S    
C35   C36   S    
S5    O35   S    
C41   C46   A    
C16   Cl9   S    
C12   C13   A    
C25   C28   S    
S10   O49   D    
S4    O32   S    
C26   C27   S    
O4    C2    A    
O19   C56   A    
C7    S5    S    
C13   C14   A    
C32   Cl4   S    
C34   S4    S    
C51   C52   A    
C44   C45   A    
C22   C23   S    
O2    C1    A    
C29   C30   S    
C50   H7    S    
C46   C47   A    
C42   C49   A    
C31   C32   S    
C8    C11   A    
C53   O16   A    
C52   H8    S    
C33   C36   S    
O23   H10   S    
C8    C9    A    
C39   C40   A    
C34   C35   S    
S1    O21   D    
O18   C55   A    
S6    O36   D    
O12   C53   A    
O13   C56   A    
O3    C4    A    
C30   C35   S    
S8    O43   D    
C27   C28   S    
O17   V3    S    
S1    O23   S    
S2    O25   D    
O9    V2    S    
O29   H12   S    
O2    V1    S    
O5    C3    A    
O15   C55   A    
C30   H3    S    
O41   H16   S    
O7    V1    S    
S6    O38   S    
C43   Cl5   S    
C38   C39   A    
C44   Cl6   S    
S7    O40   D    
C15   C20   A    
O1    C2    A    
C23   C26   S    
C5    Cl1   S    
O18   V4    S    
S10   O48   D    
O5    V1    S    
S5    O34   D    
S9    O45   D    
O6    V2    S    
S2    O26   S    
O35   H14   S    
C5    C10   A    
S7    O41   S    
C40   C43   A    
C48   C49   A    
C22   C27   S    
O7    V2    S    
O4    V1    S    
O3    V1    S    
V1    O10   S    
S4    O30   D    
C49   S7    S    
O15   V3    S    
S9    O46   D    
C12   Cl7   S    
O12   V3    S    
C41   C42   A    
C25   C26   S    
S8    O44   S    
C32   C33   S    
O14   C54   A    
C45   C46   A    
C29   H4    S    
C39   H6    S    
C11   C12   A    
C2    C51   S    
C47   C48   A    
C18   S8    S    
C20   Cl8   S    
V4    O20   S    
C23   C24   S    
C33   C34   S    
C15   C16   A    
O47   H18   S    
O11   V4    S    
O38   H15   S    
C9    C10   A    
S3    O29   S    
O8    C3    A    
