data_mof_unit_45918.cif
_audit_creation_date              2012-12-11T16:19:06-0500
_audit_creation_method            fapswitch 2.2
_symmetry_space_group_name_H-M    P1
_symmetry_Int_Tables_number       1
_space_group_crystal_system       triclinic
_cell_length_a                    6.905913
_cell_length_b                    31.342084
_cell_length_c                    35.050598
_cell_angle_alpha                 89.999934
_cell_angle_beta                  89.999379
_cell_angle_gamma                 90.0
_cell_volume                      7586.55140634

loop_
_atom_site_label
_atom_site_type_symbol
_atom_type_description
_atom_site_fract_x
_atom_site_fract_y
_atom_site_fract_z
_atom_type_partial_charge
O1    O     O_R   0.417270 0.211480 0.210950 -0.518413
O2    O     O_R   0.582730 0.788520 0.789050 -0.518413
O3    O     O_R   0.582730 0.788520 0.710950 -0.518414
O4    O     O_R   0.417270 0.211480 0.289050 -0.518414
O5    O     O_R   0.917270 0.288520 0.289050 -0.518414
O6    O     O_R   0.082730 0.711480 0.710950 -0.518414
O7    O     O_R   0.082730 0.711480 0.789050 -0.518413
O8    O     O_R   0.917270 0.288520 0.210950 -0.518413
O9    O     O_R   0.746940 0.206370 0.288750 -0.536407
O10   O     O_R   0.253060 0.793630 0.711250 -0.536407
O11   O     O_R   0.253060 0.793630 0.788750 -0.536407
O12   O     O_R   0.746940 0.206370 0.211250 -0.536407
O13   O     O_R   0.246940 0.293630 0.211250 -0.536407
O14   O     O_R   0.753060 0.706370 0.788750 -0.536407
O15   O     O_R   0.753060 0.706370 0.711250 -0.536406
O16   O     O_R   0.246940 0.293630 0.288750 -0.536407
C1    C     C_R   0.577858 0.196581 0.302610 0.790826
C2    C     C_R   0.422142 0.803419 0.697390 0.790825
C3    C     C_R   0.422140 0.803419 0.802610 0.790825
C4    C     C_R   0.577860 0.196581 0.197390 0.790825
C5    C     C_R   0.077859 0.303419 0.197390 0.790826
C6    C     C_R   0.922140 0.696581 0.802610 0.790827
C7    C     C_R   0.922142 0.696581 0.697390 0.790825
C8    C     C_R   0.077858 0.303419 0.302610 0.790825
O17   O     O_3   0.583760 0.276950 0.250000 -0.363471
O18   O     O_3   0.416240 0.723050 0.750000 -0.363470
O19   O     O_3   0.083760 0.223050 0.250000 -0.363470
O20   O     O_3   0.916240 0.776950 0.750000 -0.363471
V1    V     V_3+5 0.858600 0.245000 0.250000 1.620174
V2    V     V_3+5 0.141400 0.755000 0.750000 1.620174
V3    V     V_3+5 0.358600 0.255000 0.250000 1.620174
V4    V     V_3+5 0.641400 0.745000 0.750000 1.620174
C9    C     C_R   0.920977 0.586545 0.537812 0.603160
C10   C     C_R   0.079023 0.413455 0.462188 0.603161
C11   C     C_R   0.079024 0.413455 0.037811 0.603160
C12   C     C_R   0.920976 0.586545 0.962189 0.603160
C13   C     C_R   0.420977 0.913455 0.962189 0.603162
C14   C     C_R   0.579023 0.086545 0.037811 0.603162
C15   C     C_R   0.579018 0.086545 0.462188 0.603161
C16   C     C_R   0.420982 0.913455 0.537812 0.603161
N1    N     N_R   0.954339 0.573622 0.574621 -0.558478
N2    N     N_R   0.045660 0.426378 0.425379 -0.558478
N3    N     N_R   0.045667 0.426378 0.074621 -0.558478
N4    N     N_R   0.954333 0.573622 0.925379 -0.558478
N5    N     N_R   0.454333 0.926378 0.925379 -0.558478
N6    N     N_R   0.545666 0.073622 0.074621 -0.558478
N7    N     N_R   0.545661 0.073622 0.425379 -0.558479
N8    N     N_R   0.454339 0.926378 0.574621 -0.558479
C17   C     C_R   0.004368 0.532227 0.582651 0.614549
C18   C     C_R   0.995632 0.467773 0.417349 0.614549
C19   C     C_R   0.995641 0.467773 0.082651 0.614551
C20   C     C_R   0.004359 0.532227 0.917349 0.614551
C21   C     C_R   0.504359 0.967773 0.917349 0.614551
C22   C     C_R   0.495641 0.032227 0.082651 0.614551
C23   C     C_R   0.495637 0.032227 0.417349 0.614549
C24   C     C_R   0.504363 0.967773 0.582651 0.614549
C25   C     C_R   0.023440 0.502030 0.553076 -0.035944
C26   C     C_R   0.976560 0.497970 0.446924 -0.035944
C27   C     C_R   0.976567 0.497970 0.053076 -0.035944
C28   C     C_R   0.023433 0.502030 0.946923 -0.035944
C29   C     C_R   0.523433 0.997970 0.946923 -0.035944
C30   C     C_R   0.476567 0.002030 0.053076 -0.035944
C31   C     C_R   0.476565 0.002030 0.446923 -0.035944
C32   C     C_R   0.523435 0.997970 0.553076 -0.035944
C33   C     C_R   0.990313 0.514882 0.515119 -0.014461
C34   C     C_R   0.009687 0.485118 0.484881 -0.014461
C35   C     C_R   0.009689 0.485118 0.015119 -0.014460
C36   C     C_R   0.990311 0.514882 0.984881 -0.014460
C37   C     C_R   0.490311 0.985118 0.984881 -0.014460
C38   C     C_R   0.509688 0.014882 0.015119 -0.014460
C39   C     C_R   0.509687 0.014882 0.484881 -0.014461
C40   C     C_R   0.490313 0.985118 0.515119 -0.014461
C41   C     C_R   0.938092 0.557445 0.507326 -0.041466
C42   C     C_R   0.061908 0.442555 0.492674 -0.041466
C43   C     C_R   0.061906 0.442554 0.007326 -0.041466
C44   C     C_R   0.938094 0.557445 0.992674 -0.041466
C45   C     C_R   0.438095 0.942554 0.992674 -0.041467
C46   C     C_R   0.561905 0.057445 0.007326 -0.041466
C47   C     C_R   0.561902 0.057446 0.492674 -0.041465
C48   C     C_R   0.438097 0.942554 0.507326 -0.041465
C49   C     C_R   0.075823 0.459475 0.560493 -0.121855
C50   C     C_R   0.924176 0.540525 0.439507 -0.121855
C51   C     C_R   0.924187 0.540525 0.060494 -0.121855
C52   C     C_R   0.075814 0.459475 0.939506 -0.121855
C53   C     C_R   0.575812 0.040525 0.939506 -0.121855
C54   C     C_R   0.424188 0.959475 0.060494 -0.121854
C55   C     C_R   0.424187 0.959475 0.439506 -0.121855
C56   C     C_R   0.575813 0.040525 0.560493 -0.121856
C57   C     C_R   0.094798 0.430111 0.530673 -0.125881
C58   C     C_R   0.905202 0.569889 0.469327 -0.125881
C59   C     C_R   0.905209 0.569889 0.030674 -0.125881
C60   C     C_R   0.094791 0.430111 0.969326 -0.125881
C61   C     C_R   0.594789 0.069889 0.969326 -0.125881
C62   C     C_R   0.405211 0.930111 0.030674 -0.125881
C63   C     C_R   0.405212 0.930111 0.469326 -0.125881
C64   C     C_R   0.594788 0.069889 0.530674 -0.125881
O21   O     O_2   0.871527 0.627420 0.530715 -0.492794
O22   O     O_2   0.128473 0.372579 0.469285 -0.492794
O23   O     O_2   0.128472 0.372579 0.030714 -0.492794
O24   O     O_2   0.871528 0.627421 0.969286 -0.492794
O25   O     O_2   0.371530 0.872579 0.969286 -0.492795
O26   O     O_2   0.628470 0.127421 0.030714 -0.492795
O27   O     O_2   0.628464 0.127421 0.469285 -0.492794
O28   O     O_2   0.371536 0.872579 0.530715 -0.492794
O29   O     O_2   0.036848 0.520379 0.619093 -0.501924
O30   O     O_2   0.963152 0.479621 0.380907 -0.501924
O31   O     O_2   0.963166 0.479621 0.119093 -0.501925
O32   O     O_2   0.036834 0.520378 0.880907 -0.501925
O33   O     O_2   0.536833 0.979622 0.880907 -0.501925
O34   O     O_2   0.463167 0.020378 0.119093 -0.501925
O35   O     O_2   0.463162 0.020378 0.380907 -0.501924
O36   O     O_2   0.536838 0.979622 0.619093 -0.501924
H1    H     H_    0.102460 0.448699 0.589378 0.179358
H2    H     H_    0.897540 0.551301 0.410622 0.179358
H3    H     H_    0.897554 0.551301 0.089378 0.179358
H4    H     H_    0.102446 0.448699 0.910621 0.179358
H5    H     H_    0.602444 0.051301 0.910621 0.179358
H6    H     H_    0.397556 0.948699 0.089379 0.179358
H7    H     H_    0.397555 0.948698 0.410622 0.179358
H8    H     H_    0.602445 0.051301 0.589378 0.179358
H9    H     H_    0.135193 0.397613 0.537521 0.180626
H10   H     H_    0.864807 0.602387 0.462479 0.180625
H11   H     H_    0.864817 0.602387 0.037522 0.180626
H12   H     H_    0.135183 0.397613 0.962478 0.180626
H13   H     H_    0.635181 0.102387 0.962477 0.180625
H14   H     H_    0.364819 0.897613 0.037523 0.180625
H15   H     H_    0.364822 0.897612 0.462478 0.180626
H16   H     H_    0.635178 0.102387 0.537522 0.180625
C65   C     C_R   0.219213 0.392810 0.370855 -0.009120
C66   C     C_R   0.780787 0.607189 0.629145 -0.009120
C67   C     C_R   0.780782 0.607189 0.870856 -0.009119
C68   C     C_R   0.219218 0.392810 0.129144 -0.009119
C69   C     C_R   0.719218 0.107189 0.129144 -0.009120
C70   C     C_R   0.280782 0.892810 0.870856 -0.009120
C71   C     C_R   0.280787 0.892810 0.629144 -0.009119
C72   C     C_R   0.719213 0.107190 0.370856 -0.009119
C73   C     C_R   0.224075 0.362700 0.341177 -0.236353
C74   C     C_R   0.775925 0.637300 0.658823 -0.236353
C75   C     C_R   0.775921 0.637300 0.841177 -0.236354
C76   C     C_R   0.224079 0.362700 0.158823 -0.236355
C77   C     C_R   0.724079 0.137300 0.158823 -0.236353
C78   C     C_R   0.275921 0.862700 0.841177 -0.236353
C79   C     C_R   0.275924 0.862700 0.658823 -0.236353
C80   C     C_R   0.724076 0.137300 0.341177 -0.236353
H17   H     H_    0.350514 0.361319 0.322882 0.169402
H18   H     H_    0.649486 0.638681 0.677118 0.169403
H19   H     H_    0.649483 0.638681 0.822883 0.169403
H20   H     H_    0.350517 0.361319 0.177117 0.169403
H21   H     H_    0.850517 0.138681 0.177117 0.169403
H22   H     H_    0.149483 0.861319 0.822883 0.169403
H23   H     H_    0.149485 0.861319 0.677118 0.169403
H24   H     H_    0.850515 0.138681 0.322882 0.169403
C81   C     C_R   0.067325 0.334777 0.334706 -0.134194
C82   C     C_R   0.932675 0.665222 0.665294 -0.134194
C83   C     C_R   0.932671 0.665223 0.834706 -0.134193
C84   C     C_R   0.067329 0.334777 0.165294 -0.134193
C85   C     C_R   0.567329 0.165223 0.165294 -0.134193
C86   C     C_R   0.432671 0.834777 0.834706 -0.134193
C87   C     C_R   0.432675 0.834777 0.665294 -0.134195
C88   C     C_R   0.567325 0.165222 0.334706 -0.134195
C89   C     C_R   0.904811 0.337326 0.359465 0.354445
C90   C     C_R   0.095189 0.662674 0.640535 0.354445
C91   C     C_R   0.095183 0.662675 0.859465 0.354444
C92   C     C_R   0.904817 0.337325 0.140535 0.354445
C93   C     C_R   0.404816 0.162674 0.140535 0.354445
C94   C     C_R   0.595183 0.837325 0.859465 0.354445
C95   C     C_R   0.595189 0.837326 0.640535 0.354444
C96   C     C_R   0.404811 0.162674 0.359465 0.354444
C97   C     C_R   0.900923 0.367548 0.388899 -0.102369
C98   C     C_R   0.099077 0.632452 0.611101 -0.102369
C99   C     C_R   0.099070 0.632452 0.888899 -0.102370
C100  C     C_R   0.900930 0.367547 0.111101 -0.102370
C101  C     C_R   0.400929 0.132452 0.111101 -0.102370
C102  C     C_R   0.599071 0.867547 0.888899 -0.102370
C103  C     C_R   0.599077 0.867548 0.611101 -0.102368
C104  C     C_R   0.400923 0.132452 0.388899 -0.102368
H25   H     H_    0.776305 0.369238 0.407614 0.168250
H26   H     H_    0.223694 0.630762 0.592386 0.168250
H27   H     H_    0.223687 0.630763 0.907614 0.168250
H28   H     H_    0.776313 0.369237 0.092386 0.168250
H29   H     H_    0.276312 0.130763 0.092386 0.168251
H30   H     H_    0.723688 0.869237 0.907614 0.168251
H31   H     H_    0.723694 0.869238 0.592386 0.168250
H32   H     H_    0.276305 0.130762 0.407614 0.168250
C105  C     C_R   0.056002 0.395519 0.394780 0.275136
C106  C     C_R   0.943998 0.604481 0.605220 0.275137
C107  C     C_R   0.943991 0.604481 0.894780 0.275136
C108  C     C_R   0.056009 0.395519 0.105220 0.275136
C109  C     C_R   0.556008 0.104481 0.105220 0.275136
C110  C     C_R   0.443992 0.895519 0.894780 0.275136
C111  C     C_R   0.443997 0.895519 0.605220 0.275136
C112  C     C_R   0.556003 0.104481 0.394780 0.275136
C113  C     C_1   0.383280 0.420533 0.376649 0.371365
N9    N     N_1   0.514772 0.442808 0.381343 -0.311063
C114  C     C_1   0.616719 0.579466 0.623351 0.371365
N10   N     N_1   0.485227 0.557192 0.618657 -0.311063
C115  C     C_1   0.616715 0.579466 0.876650 0.371366
N11   N     N_1   0.485222 0.557192 0.881344 -0.311066
C116  C     C_1   0.383285 0.420533 0.123349 0.371366
N12   N     N_1   0.514777 0.442808 0.118656 -0.311066
C117  C     C_1   0.883285 0.079466 0.123349 0.371367
N13   N     N_1   0.014778 0.057192 0.118655 -0.311067
C118  C     C_1   0.116714 0.920533 0.876651 0.371367
N14   N     N_1   0.985222 0.942808 0.881345 -0.311067
C119  C     C_1   0.116718 0.920533 0.623350 0.371366
N15   N     N_1   0.985226 0.942807 0.618657 -0.311065
C120  C     C_1   0.883282 0.079467 0.376650 0.371366
N16   N     N_1   0.014774 0.057192 0.381344 -0.311065
Cl1   Cl    Cl    0.704907 0.302435 0.356482 -0.594746
Cl2   Cl    Cl    0.295093 0.697565 0.643518 -0.594746
Cl3   Cl    Cl    0.295087 0.697566 0.856482 -0.594747
Cl4   Cl    Cl    0.704913 0.302434 0.143518 -0.594747
Cl5   Cl    Cl    0.204912 0.197565 0.143518 -0.594747
Cl6   Cl    Cl    0.795088 0.802435 0.856482 -0.594748
Cl7   Cl    Cl    0.795094 0.802435 0.643518 -0.594747
Cl8   Cl    Cl    0.204906 0.197565 0.356482 -0.594747

loop_
_geom_bond_atom_site_label_1
_geom_bond_atom_site_label_2
_ccdc_geom_bond_type
O17   V3    S    
C16   O28   S    
C56   C64   A    
O18   V4    S    
C65   C105  A    
O12   V1    S    
O19   V1    S    
C117  N13   T    
C37   C45   A    
C10   N2    A    
C95   Cl7   S    
C78   H22   S    
C118  N14   T    
C32   C40   A    
C76   H20   S    
C68   C108  A    
C39   C47   A    
C69   C109  A    
C70   C118  S    
C29   C37   A    
C119  N15   T    
O16   V3    S    
C30   C54   A    
C75   H19   S    
C57   H9    S    
C98   H26   S    
O8    V1    S    
C42   C57   A    
C73   H17   S    
C67   C115  S    
C54   C62   A    
C41   C58   A    
C26   C50   A    
C103  C111  A    
C72   C80   A    
C104  C112  A    
C38   C46   A    
C80   C88   A    
C46   C61   A    
C93   C101  A    
C98   C106  A    
C34   C42   A    
C45   C62   A    
O1    V3    S    
C40   C48   A    
C17   C25   A    
C64   H16   S    
O3    C2    A    
C16   N8    A    
N1    C17   A    
N7    C112  S    
C10   C42   A    
C1    C88   S    
C70   C110  A    
N8    C111  S    
C2    C87   S    
C20   C28   A    
C27   C35   A    
C21   C29   A    
C26   C34   A    
C68   C76   A    
O11   V2    S    
C102  H30   S    
C23   C31   A    
C31   C55   A    
C16   C48   A    
C56   H8    S    
C11   N3    A    
N6    C22   A    
C113  N9    T    
O9    V1    S    
C71   C119  S    
C89   C97   A    
C100  H28   S    
C79   H23   S    
C101  H29   S    
C116  N12   T    
O16   C8    A    
O7    V2    S    
C59   H11   S    
C12   C44   A    
O17   V1    S    
C58   H10   S    
C30   C38   A    
C99   H27   S    
O3    V4    S    
C53   C61   A    
C78   C86   A    
C19   O31   S    
C11   O23   S    
C97   H25   S    
C3    C86   S    
C65   C73   A    
C82   C90   A    
O5    V1    S    
C6    C83   S    
C62   H14   S    
C76   C84   A    
C69   C117  S    
O10   C2    A    
C94   C102  A    
O19   V3    S    
C120  N16   T    
C18   C26   A    
C51   H3    S    
O20   V4    S    
C50   H2    S    
C54   H6    S    
C66   C114  S    
C33   C41   A    
C85   C93   A    
C104  H32   S    
C17   O29   S    
C14   C46   A    
C83   C91   A    
C15   N7    A    
C89   Cl1   S    
N5    C21   A    
C68   C116  S    
C35   C36   A    
C55   C63   A    
C90   Cl2   S    
C22   O34   S    
C15   C47   A    
C44   C59   A    
C72   C112  A    
C55   H7    S    
C70   C78   A    
C49   H1    S    
O10   V2    S    
C115  N11   T    
C90   C98   A    
C75   C83   A    
N2    C18   A    
O11   C3    A    
O12   C4    A    
C24   C32   A    
O8    C5    A    
O13   C5    A    
C12   O24   S    
O9    C1    A    
C48   C63   A    
C53   H5    S    
C71   C111  A    
C31   C39   A    
C29   C53   A    
C43   C60   A    
C102  C110  A    
C96   C104  A    
O4    C1    A    
C77   C85   A    
N2    C105  S    
C9    C41   A    
O6    V2    S    
C94   Cl6   S    
O18   V2    S    
C4    C85   S    
O14   C6    A    
C25   C49   A    
C12   N4    A    
C35   C43   A    
N6    C109  S    
C13   N5    A    
C66   C74   A    
C91   C99   A    
C8    C81   S    
C86   C94   A    
N7    C23   A    
C93   Cl5   S    
N8    C24   A    
C92   C100  A    
C73   C81   A    
O1    C4    A    
C91   Cl3   S    
C101  C109  A    
C23   O35   S    
O2    C3    A    
C103  H31   S    
O13   V3    S    
C11   C43   A    
C27   C51   A    
O15   V4    S    
N4    C20   A    
C72   C120  S    
C65   C113  S    
C66   C106  A    
O20   V2    S    
C15   O27   S    
C36   C44   A    
O7    C6    A    
C51   C59   A    
C77   H21   S    
C69   C77   A    
C50   C58   A    
C99   C107  A    
C74   H18   S    
C9    N1    A    
C96   Cl8   S    
C60   H12   S    
C49   C57   A    
C39   C40   A    
C14   O26   S    
C24   O36   S    
C84   C92   A    
C13   O25   S    
C28   C52   A    
N3    C19   A    
O5    C8    A    
C13   C45   A    
N3    C108  S    
C92   Cl4   S    
O6    C7    A    
O15   C7    A    
C71   C79   A    
C10   O22   S    
C5    C84   S    
C87   C95   A    
N1    C106  S    
C95   C103  A    
C9    O21   S    
C79   C87   A    
C88   C96   A    
C37   C38   A    
C61   H13   S    
C14   N6    A    
O4    V3    S    
C67   C75   A    
N4    C107  S    
C97   C105  A    
C114  N10   T    
C63   H15   S    
N5    C110  S    
C47   C64   A    
C19   C27   A    
C100  C108  A    
C28   C36   A    
C52   H4    S    
C33   C34   A    
C7    C82   S    
C81   C89   A    
C18   O30   S    
C22   C30   A    
C20   O32   S    
C21   O33   S    
C52   C60   A    
C74   C82   A    
O14   V4    S    
C32   C56   A    
C80   H24   S    
O2    V4    S    
C25   C33   A    
C67   C107  A    
