data_mof_unit_65647.cif
_audit_creation_date              2012-12-10T20:49:06-0500
_audit_creation_method            fapswitch 2.2
_symmetry_space_group_name_H-M    P1
_symmetry_Int_Tables_number       1
_space_group_crystal_system       triclinic
_cell_length_a                    19.195986
_cell_length_b                    19.179969
_cell_length_c                    19.494263
_cell_angle_alpha                 89.948057
_cell_angle_beta                  94.867763
_cell_angle_gamma                 85.520521
_cell_volume                      7129.42935082

loop_
_atom_site_label
_atom_site_type_symbol
_atom_type_description
_atom_site_fract_x
_atom_site_fract_y
_atom_site_fract_z
_atom_type_partial_charge
C1    C     C_R   0.492940 0.689245 0.507320 0.793891
C2    C     C_2   0.500759 0.518710 0.018606 -0.218094
C3    C     C_2   0.525397 0.465155 0.981083 -0.236704
C4    C     C_R   0.506541 0.310817 0.492333 0.799634
C5    C     C_R   0.515150 0.484482 0.763192 0.003698
C6    C     C_R   0.503978 0.234612 0.485678 -0.017120
C7    C     C_R   0.460246 0.199236 0.525689 -0.261828
C8    C     C_R   0.454367 0.127621 0.517766 0.007015
C9    C     C_R   0.493659 0.090114 0.469775 0.274285
C10   C     C_R   0.536018 0.125665 0.428905 -0.204609
C11   C     C_R   0.541658 0.197312 0.437038 -0.215459
C12   C     C_R   0.495859 0.514716 0.093563 0.186975
C13   C     C_R   0.463774 0.879600 0.455728 -0.165929
C14   C     C_R   0.460406 0.807201 0.454631 -0.216821
C15   C     C_R   0.499196 0.911519 0.512285 0.322739
C16   C     C_R   0.689708 0.491603 0.508085 0.793044
C17   C     C_R   0.492579 0.765797 0.509561 -0.002766
C18   C     C_R   0.526805 0.797928 0.566188 -0.210440
C19   C     C_R   0.529460 0.870199 0.567609 -0.189788
C20   C     C_R   0.233297 0.508558 0.488014 -0.001399
C21   C     C_R   0.200823 0.469672 0.535396 -0.223417
C22   C     C_R   0.128264 0.468614 0.530657 -0.167107
C23   C     C_R   0.481827 0.577133 0.129002 -0.218978
C24   C     C_R   0.086555 0.506667 0.478130 0.321456
C25   C     C_R   0.119069 0.544772 0.430445 -0.195134
C26   C     C_R   0.191899 0.546260 0.435516 -0.210236
C27   C     C_R   0.873634 0.482851 0.454850 -0.163855
C28   C     C_R   0.310139 0.507669 0.492538 0.792450
C29   C     C_R   0.800927 0.482629 0.452270 -0.240639
C30   C     C_R   0.913251 0.487527 0.518662 0.305923
C31   C     C_R   0.766609 0.487878 0.512953 -0.039541
C32   C     C_R   0.806450 0.490795 0.577157 -0.026511
C33   C     C_R   0.879368 0.489963 0.579302 -0.231494
C34   C     C_R   0.478660 0.576673 0.200311 -0.010816
C35   C     C_R   0.508852 0.491196 0.688308 0.795448
C36   C     C_R   0.492016 0.508819 0.311833 0.792182
C37   C     C_R   0.489905 0.512593 0.236772 -0.042553
C38   C     C_R   0.502157 0.450232 0.201008 -0.221110
C39   C     C_R   0.504386 0.450987 0.130130 -0.145491
C40   C     C_1   0.405994 0.094267 0.557527 0.179427
C41   C     C_1   0.774242 0.492633 0.641567 0.184333
C42   C     C_1   0.467290 0.642710 0.234813 0.178068
C43   C     C_R   0.545881 0.531796 0.875618 -0.156970
C44   C     C_R   0.541426 0.538041 0.804255 -0.198421
C45   C     C_R   0.495640 0.423660 0.794102 -0.194318
C46   C     C_R   0.501409 0.416884 0.865382 -0.172674
C47   C     C_R   0.524957 0.471492 0.906328 0.196799
H1    H     H_    0.509844 0.400483 0.228095 0.157928
H2    H     H_    0.771267 0.479904 0.402645 0.164535
H3    H     H_    0.557305 0.585079 0.781251 0.159112
H4    H     H_    0.898699 0.479193 0.407140 0.154273
H5    H     H_    0.087755 0.573815 0.389539 0.144680
H6    H     H_    0.215772 0.576204 0.397970 0.169007
H7    H     H_    0.105054 0.437556 0.567775 0.152834
H8    H     H_    0.910199 0.492070 0.628423 0.147218
H9    H     H_    0.231475 0.439848 0.576196 0.169780
H10   H     H_    0.476226 0.381264 0.763185 0.159276
H11   H     H_    0.542192 0.414402 0.003617 0.147627
H12   H     H_    0.485574 0.369938 0.888647 0.133338
H13   H     H_    0.474599 0.626507 0.101125 0.132661
H14   H     H_    0.565587 0.573880 0.906769 0.136126
H15   H     H_    0.482993 0.568062 0.992914 0.151197
H16   H     H_    0.512540 0.401230 0.105100 0.127085
H17   H     H_    0.433687 0.783580 0.410420 0.176869
H18   H     H_    0.438522 0.910340 0.412688 0.155134
H19   H     H_    0.565539 0.097457 0.391351 0.151881
H20   H     H_    0.574996 0.223531 0.404897 0.170419
H21   H     H_    0.551611 0.767204 0.609474 0.167147
H22   H     H_    0.555955 0.894178 0.611739 0.146295
H23   H     H_    0.429717 0.227501 0.562537 0.173018
N1    N     N_2   0.490989 0.017097 0.461263 -0.203009
N2    N     N_2   0.503591 0.984802 0.516999 -0.185431
N3    N     N_2   0.012314 0.507053 0.471233 -0.199948
N4    N     N_2   0.987245 0.488069 0.524524 -0.198369
N5    N     N_1   0.367227 0.067552 0.589384 -0.198316
N6    N     N_1   0.748453 0.494085 0.693156 -0.194024
N7    N     N_1   0.458209 0.695620 0.262444 -0.206133
O1    O     O_3   0.500000 0.500000 0.500000 -0.480933
O2    O     O_R   0.546320 0.532340 0.658770 -0.640009
O3    O     O_R   0.450550 0.549430 0.344370 -0.634673
O4    O     O_R   0.467400 0.453980 0.652500 -0.648652
O5    O     O_R   0.535730 0.464240 0.344360 -0.644514
O6    O     O_R   0.656240 0.454400 0.463600 -0.640333
O7    O     O_R   0.340160 0.549180 0.454800 -0.644315
O8    O     O_R   0.536860 0.652450 0.548350 -0.647110
O9    O     O_R   0.466740 0.343960 0.533260 -0.648032
O10   O     O_R   0.451210 0.659450 0.463610 -0.638392
O11   O     O_R   0.545190 0.344140 0.454780 -0.645893
O12   O     O_R   0.656710 0.532590 0.548340 -0.631994
O13   O     O_R   0.346890 0.463830 0.533270 -0.646331
Zn1   Zn    Zn3+2 0.558280 0.441710 0.441700 0.970476
Zn2   Zn    Zn3+2 0.558950 0.553420 0.562770 0.983104
Zn3   Zn    Zn3+2 0.446190 0.441460 0.553820 0.966415
Zn4   Zn    Zn3+2 0.436580 0.563410 0.441710 0.981830

loop_
_geom_bond_atom_site_label_1
_geom_bond_atom_site_label_2
_ccdc_geom_bond_type
C1    O10   A    
C33   H8    S    
C46   H12   S    
C27   C29   A    
C34   C37   A    
N3    N4    D    
C34   C42   S    
C2    C12   S    
C7    H23   S    
C35   O4    A    
C7    C8    A    
C22   H7    S    
C29   H2    S    
C45   C46   A    
C16   C31   S    
C15   C19   A    
C15   N2    S    
C12   C23   A    
C45   H10   S    
C36   C37   S    
C38   C39   A    
C30   N4    S    
C24   N3    S    
C28   O7    A    
O1    Zn3   S    
C18   H21   S    
O10   Zn4   S    
C18   C19   A    
C3    C47   S    
C11   H20   S    
C8    C9    A    
C32   C41   S    
C9    C10   A    
C38   H1    S    
C16   O12   A    
C21   C22   A    
C27   C30   A    
C14   C17   A    
O8    Zn2   S    
C27   H4    S    
C10   H19   S    
C1    O8    A    
C23   H13   S    
C24   C25   A    
C4    C6    S    
C36   O3    A    
C36   O5    A    
C6    C11   A    
C13   H18   S    
C20   C28   S    
O1    Zn2   S    
C25   C26   A    
C5    C45   A    
C16   O6    A    
O5    Zn1   S    
C43   C44   A    
C37   C38   A    
O9    Zn3   S    
O4    Zn3   S    
C31   C32   A    
O11   Zn1   S    
C23   C34   A    
C14   H17   S    
C17   C18   A    
O7    Zn4   S    
O12   Zn2   S    
O2    Zn2   S    
C5    C44   A    
C13   C15   A    
C22   C24   A    
C19   H22   S    
O3    Zn4   S    
C26   H6    S    
C39   H16   S    
C43   H14   S    
O13   Zn3   S    
C44   H3    S    
C46   C47   A    
C30   C33   A    
C9    N1    S    
C21   H9    S    
C6    C7    A    
C4    O11   A    
O1    Zn1   S    
O6    Zn1   S    
C1    C17   S    
C40   N5    T    
C32   C33   A    
C12   C39   A    
C2    C3    D    
C25   H5    S    
N1    N2    D    
C29   C31   A    
C41   N6    T    
C20   C26   A    
O1    Zn4   S    
C5    C35   S    
C35   O2    A    
C10   C11   A    
C3    H11   S    
C4    O9    A    
C20   C21   A    
C42   N7    T    
C28   O13   A    
C8    C40   S    
C13   C14   A    
C43   C47   A    
C2    H15   S    
