data_mof_unit_32118.cif
_audit_creation_date              2012-12-11T14:49:42-0500
_audit_creation_method            fapswitch 2.2
_symmetry_space_group_name_H-M    P1
_symmetry_Int_Tables_number       1
_space_group_crystal_system       triclinic
_cell_length_a                    16.901681
_cell_length_b                    7.135722
_cell_length_c                    16.756889
_cell_angle_alpha                 88.534099
_cell_angle_beta                  100.828512
_cell_angle_gamma                 91.709538
_cell_volume                      1983.69621579

loop_
_atom_site_label
_atom_site_type_symbol
_atom_type_description
_atom_site_fract_x
_atom_site_fract_y
_atom_site_fract_z
_atom_type_partial_charge
O1    O     O_R   0.579510 0.506290 0.439030 -0.534579
O2    O     O_R   0.420490 0.006290 0.560970 -0.535871
O3    O     O_R   0.412540 0.170090 0.405290 -0.516463
O4    O     O_R   0.587460 0.670090 0.594710 -0.516834
C1    C     C_R   0.388134 0.345572 0.379785 0.707377
C2    C     C_R   0.611761 0.845204 0.620406 0.708372
O5    O     O_R   0.578390 0.176230 0.429330 -0.537204
O6    O     O_R   0.421610 0.676230 0.570670 -0.539626
O7    O     O_R   0.587530 0.011250 0.585190 -0.540199
O8    O     O_R   0.412470 0.511250 0.414810 -0.539558
C3    C     C_R   0.604386 0.349220 0.413773 0.716277
C4    C     C_R   0.395889 0.841044 0.587145 0.715456
O9    O     O_3   0.502800 0.340940 0.551110 -0.358741
O10   O     O_3   0.497200 0.840940 0.448890 -0.355949
V1    V     V_3+5 0.499480 0.064020 0.490520 1.499849
V2    V     V_3+5 0.500520 0.564020 0.509480 1.503861
C5    C     C_R   0.165139 0.933170 0.858601 -0.069371
C6    C     C_R   0.832497 0.389412 0.137043 -0.068607
C7    C     C_R   0.335480 0.833477 0.641977 -0.058232
C8    C     C_R   0.666332 0.377773 0.361772 -0.060371
C9    C     C_R   0.239641 0.646924 0.706089 -0.184197
C10   C     C_R   0.768877 0.585097 0.318252 -0.179085
C11   C     C_R   0.292191 0.664350 0.650888 -0.146417
C12   C     C_R   0.716063 0.541198 0.371256 -0.140550
C13   C     C_R   0.323870 0.986579 0.689491 -0.193541
C14   C     C_R   0.671853 0.256485 0.298392 -0.198415
C15   C     C_R   0.271608 0.968946 0.746117 0.153457
C16   C     C_R   0.724719 0.300911 0.244235 0.148791
C17   C     C_R   0.229225 0.797585 0.754657 0.157574
C18   C     C_R   0.773420 0.467000 0.254010 0.157043
C19   C     C_R   0.176734 0.780119 0.811066 -0.221066
C20   C     C_R   0.826488 0.511165 0.200068 -0.229014
C21   C     C_R   0.208708 0.102052 0.849987 -0.150273
C22   C     C_R   0.782567 0.226367 0.127279 -0.139878
C23   C     C_R   0.261335 0.119459 0.794837 -0.167793
C24   C     C_R   0.729334 0.182890 0.179972 -0.161792
H1    H     H_    0.143517 0.649474 0.816341 0.130223
H2    H     H_    0.864920 0.636135 0.208887 0.129407
H3    H     H_    0.201818 0.222619 0.885828 0.130990
H4    H     H_    0.785370 0.130059 0.079010 0.128951
H5    H     H_    0.207441 0.514846 0.711065 0.118168
H6    H     H_    0.805707 0.712508 0.327204 0.121209
H7    H     H_    0.293663 0.251417 0.789979 0.135869
H8    H     H_    0.692441 0.055631 0.170933 0.140991
H9    H     H_    0.299144 0.543624 0.615169 0.125536
H10   H     H_    0.713514 0.637459 0.419633 0.123615
H11   H     H_    0.356937 0.117361 0.684063 0.147203
H12   H     H_    0.633377 0.131543 0.289628 0.150884
C25   C     C_3   0.775588 0.694657 0.810011 0.012338
C26   C     C_3   0.224015 0.199831 0.189434 0.016011
H13   H     H_    0.770842 0.643053 0.872400 0.111599
H14   H     H_    0.228716 0.157213 0.126921 0.110814
C27   C     C_3   0.691128 0.693635 0.756146 0.031452
C28   C     C_3   0.308447 0.202272 0.243328 0.028783
H15   H     H_    0.657198 0.727011 0.804064 0.153540
H16   H     H_    0.342577 0.246793 0.195626 0.152403
H17   H     H_    0.887386 0.879816 0.721235 0.168029
H18   H     H_    0.112458 0.358925 0.278509 0.168433
H19   H     H_    0.774561 0.773063 0.629672 0.183128
H20   H     H_    0.224810 0.253297 0.369783 0.185252
C29   C     C_3   0.832434 0.952446 0.729685 -0.302157
C30   C     C_3   0.167743 0.439501 0.270457 -0.304313
C31   C     C_3   0.741361 0.038099 0.824013 -0.405409
C32   C     C_3   0.259293 0.549476 0.176640 -0.404323
C33   C     C_3   0.810558 0.903799 0.813549 0.003476
C34   C     C_3   0.189554 0.405081 0.186464 0.001343
H21   H     H_    0.764474 0.184338 0.833024 0.204119
H22   H     H_    0.236632 0.693972 0.168062 0.205310
H23   H     H_    0.718690 0.995652 0.880094 0.164692
H24   H     H_    0.282051 0.517452 0.120558 0.167709
C35   C     C_3   0.680731 0.862842 0.694101 -0.015569
C36   C     C_3   0.319195 0.363922 0.306049 -0.015644
C37   C     C_3   0.760428 0.900060 0.660896 -0.376958
C38   C     C_3   0.239468 0.386434 0.339167 -0.375578
C39   C     C_3   0.670462 0.031682 0.748003 0.020879
C40   C     C_3   0.330040 0.541628 0.252845 0.022489
H25   H     H_    0.674387 0.160082 0.710515 0.186203
H26   H     H_    0.326341 0.664362 0.290784 0.186165
H27   H     H_    0.846963 0.104055 0.725278 0.188766
H28   H     H_    0.153848 0.588783 0.275441 0.187915
H29   H     H_    0.752637 0.016024 0.614603 0.145252
H30   H     H_    0.247549 0.496831 0.385967 0.143414
O11   O     O_R   0.087500 0.266000 0.085220 -0.528181
O12   O     O_R   0.912500 0.766000 0.914780 -0.529043
O13   O     O_R   0.921600 0.589950 0.070670 -0.538330
O14   O     O_R   0.078400 0.089950 0.929330 -0.544733
C41   C     C_R   0.895039 0.417586 0.085687 0.700049
C42   C     C_R   0.104480 0.925716 0.913157 0.701120
O15   O     O_R   0.087460 0.596020 0.094710 -0.527706
O16   O     O_R   0.912540 0.096020 0.905290 -0.528745
O17   O     O_R   0.079520 0.760970 0.939020 -0.533503
O18   O     O_R   0.920480 0.260970 0.060980 -0.537323
C43   C     C_R   0.116432 0.426057 0.117203 0.692223
C44   C     C_R   0.883623 0.925397 0.882706 0.691246
O19   O     O_3   0.997180 0.425140 0.948910 -0.358736
O20   O     O_3   0.002820 0.925140 0.051090 -0.356000
V3    V     V_3+5 0.000520 0.702080 0.009480 1.471537
V4    V     V_3+5 0.999480 0.202080 0.990520 1.467522
I1    I     I_    0.605380 0.474822 0.753353 -0.352988
I2    I     I_    0.393516 0.994327 0.245335 -0.363009
I3    I     I_    0.552628 0.009707 0.786446 -0.366353
I4    I     I_    0.448382 0.540378 0.215316 -0.355421
I5    I     I_    0.850356 0.496617 0.765421 -0.483253
I6    I     I_    0.148747 0.985849 0.233396 -0.477415

loop_
_geom_bond_atom_site_label_1
_geom_bond_atom_site_label_2
_ccdc_geom_bond_type
H18   C30   S    
C18   C20   A    
C31   C33   S    
C26   I6    S    
C11   H9    S    
C15   C17   A    
C5    C42   S    
O1    C3    A    
C36   C40   S    
O2    C4    A    
C2    O7    A    
O19   V4    S    
O18   V4    S    
C27   I1    S    
O5    C3    A    
C26   C28   S    
C25   C33   S    
C22   H4    S    
O12   V3    S    
C32   H22   S    
C30   H28   S    
C40   H26   S    
C1    C36   S    
O14   C42   A    
O11   C43   A    
C39   H25   S    
C21   H3    S    
C8    C12   A    
C25   H13   S    
O11   V4    S    
O20   V4    S    
C26   H14   S    
C32   H24   S    
C23   H7    S    
C13   H11   S    
C14   H12   S    
O5    V1    S    
O6    V2    S    
C41   O18   A    
C28   I2    S    
C5    C21   A    
C38   H30   S    
O14   V4    S    
C37   H29   S    
O16   C44   A    
C31   H21   S    
C27   H15   S    
C40   I4    S    
C2    C35   S    
C28   H16   S    
C3    C8    S    
C30   C34   S    
O13   C41   A    
C31   H23   S    
O4    C2    A    
C35   C37   S    
C29   C37   S    
C9    C17   A    
C19   H1    S    
O15   V3    S    
C32   C34   S    
O4    V2    S    
C7    C11   A    
C26   C34   S    
C42   O17   A    
O6    C4    A    
O20   V3    S    
C32   C40   S    
O1    V2    S    
O12   C44   A    
O17   V3    S    
O2    V1    S    
C6    C22   A    
C34   C43   S    
C9    H5    S    
C36   C38   S    
C33   C44   S    
C20   H2    S    
C9    C11   A    
C5    C19   A    
C10   C12   A    
C24   H8    S    
C6    C20   A    
C27   C35   S    
O3    V1    S    
C31   C39   S    
H19   C37   S    
C10   C18   A    
O3    C1    A    
C25   I5    S    
O19   V3    S    
H17   C29   S    
C13   C15   A    
C14   C16   A    
C6    C41   S    
C15   C23   A    
C16   C18   A    
O7    V1    S    
C12   H10   S    
C1    O8    A    
C17   C19   A    
O8    V2    S    
C35   C39   S    
C10   H6    S    
C8    C14   A    
C29   H27   S    
C25   C27   S    
C4    C7    S    
H20   C38   S    
C21   C23   A    
C22   C24   A    
O15   C43   A    
C7    C13   A    
O13   V3    S    
C29   C33   S    
C28   C36   S    
C16   C24   A    
O9    V2    S    
C39   I3    S    
O10   V1    S    
C30   C38   S    
O16   V4    S    
