data_mof_unit_8190.cif
_audit_creation_date              2012-12-11T15:57:43-0500
_audit_creation_method            fapswitch 2.2
_symmetry_space_group_name_H-M    P1
_symmetry_Int_Tables_number       1
_space_group_crystal_system       triclinic
_cell_length_a                    10.701735
_cell_length_b                    10.775751
_cell_length_c                    16.957486
_cell_angle_alpha                 99.689995
_cell_angle_beta                  99.412088
_cell_angle_gamma                 61.204262
_cell_volume                      1681.54579068

loop_
_atom_site_label
_atom_site_type_symbol
_atom_type_description
_atom_site_fract_x
_atom_site_fract_y
_atom_site_fract_z
_atom_type_partial_charge
C1    C     C_R   0.354485 0.775594 0.401676 0.567445
C2    C     C_2   0.889863 0.304334 0.173648 -0.016518
C3    C     C_2   0.951425 0.192354 0.217679 -0.188544
C4    C     C_2   0.904089 0.200566 0.295369 -0.056298
C5    C     C_2   0.328668 0.851236 0.332797 -0.118126
C6    C     C_2   0.341069 0.831630 0.160510 -0.093777
C7    C     C_2   0.421372 0.872563 0.217096 -0.136603
C8    C     C_2   0.438530 0.843323 0.300218 -0.136391
C9    C     C_2   0.306193 0.314844 0.640750 -0.119318
C10   C     C_2   0.264942 0.254668 0.793559 -0.126897
C11   C     C_2   0.360939 0.155000 0.744018 -0.050654
C12   C     C_R   0.369085 0.345989 0.357360 0.548426
C13   C     C_2   0.366717 0.182936 0.663084 -0.150961
C14   C     C_1   0.817442 0.342091 0.708659 -0.028043
C15   C     C_1   0.844202 0.313490 0.776376 -0.030202
C16   C     C_1   0.359247 0.761464 0.713606 -0.023800
C17   C     C_1   0.326756 0.809130 0.780712 -0.022052
C18   C     C_R   0.946256 0.287690 0.098670 0.541255
C19   C     C_R   0.319127 0.300139 0.119644 0.557664
C20   C     C_R   0.293478 0.892854 0.084590 0.541535
C21   C     C_R   0.885535 0.297023 0.858693 0.552971
C22   C     C_R   0.272929 0.245818 0.879356 0.568558
C23   C     C_R   0.783655 0.373371 0.408621 0.558673
C24   C     C_R   0.281047 0.880153 0.857410 0.546569
C25   C     C_R   0.381885 0.712706 0.631200 0.554909
C26   C     C_R   0.365150 0.345413 0.579829 0.542659
C27   C     C_R   0.773225 0.381048 0.629582 0.537752
C28   C     C_1   0.342637 0.335862 0.273979 -0.027792
C29   C     C_1   0.331136 0.326755 0.203011 -0.029149
C30   C     C_2   0.884337 0.315185 0.347876 -0.115810
Cr1   Cr    Cr6+3 0.608020 0.610770 0.522990 1.042646
Cr2   Cr    Cr6+3 0.289390 0.599570 0.488050 1.045032
Cr3   Cr    Cr6+3 0.602610 0.289690 0.489020 1.054608
Cr4   Cr    Cr6+3 0.053780 0.052210 0.965970 1.049580
Cr5   Cr    Cr6+3 0.060060 0.372530 0.992430 1.047856
Cr6   Cr    Cr6+3 0.372600 0.061970 0.991430 1.054083
H1    H     H_    0.174042 0.347988 0.770766 0.099158
H2    H     H_    0.227255 0.406467 0.673962 0.109446
H3    H     H_    0.926374 0.384140 0.336828 0.111863
H4    H     H_    0.472944 0.930786 0.203154 0.169194
H5    H     H_    0.544623 0.806087 0.332395 0.179428
O1    O     O_R   0.749250 0.499990 0.439200 -0.508802
O2    O     O_R   0.299400 0.468710 0.556310 -0.512198
O3    O     O_R   0.489240 0.256450 0.560730 -0.507436
O4    O     O_R   0.723350 0.306730 0.584410 -0.497963
O5    O     O_3   0.500010 0.500010 0.500020 -0.279025
O6    O     O_R   0.170650 0.915100 0.051290 -0.514881
O7    O     O_R   0.941960 0.184500 0.049060 -0.483968
O8    O     O_R   0.922640 0.402670 0.071640 -0.493199
O9    O     O_R   0.196880 0.368740 0.083740 -0.503074
O10   O     O_R   0.411120 0.181190 0.091480 -0.501884
O11   O     O_R   0.364220 0.944920 0.062310 -0.495612
O12   O     O_R   0.477870 0.725740 0.440280 -0.490373
O13   O     O_R   0.158740 0.906940 0.874970 -0.497756
O14   O     O_R   0.930920 0.176940 0.885610 -0.484189
O15   O     O_R   0.910730 0.394510 0.895320 -0.507291
O16   O     O_R   0.185840 0.361180 0.920280 -0.489897
O17   O     O_R   0.399210 0.173040 0.915160 -0.481163
O18   O     O_R   0.353170 0.937370 0.898860 -0.500502
O19   O     O_3   0.162150 0.162240 0.983280 -0.311449
O20   O     O_R   0.260770 0.742210 0.412610 -0.495781
O21   O     O_R   0.297990 0.466320 0.394220 -0.496069
O22   O     O_R   0.487720 0.253870 0.385870 -0.496001
O23   O     O_R   0.721940 0.304340 0.422320 -0.477789
O24   O     O_R   0.750770 0.502570 0.614050 -0.507845
O25   O     O_R   0.479280 0.728140 0.602370 -0.486814
O26   O     O_R   0.262290 0.744790 0.587460 -0.502954
H6    H     H_    0.037152 0.091432 0.195239 0.129677
H7    H     H_    0.444623 0.095310 0.626515 0.161210
C31   C     C_1   0.869904 0.091550 0.308489 0.253003
N1    N     N_1   0.842735 0.004105 0.318839 -0.277569
C32   C     C_1   0.763211 0.435693 0.194711 0.227601
N2    N     N_1   0.662057 0.540123 0.211371 -0.297127
H8    H     H_    0.292287 0.770977 0.174788 0.121627
H9    H     H_    0.222026 0.893713 0.300900 0.108022
C33   C     C_1   0.476104 0.022294 0.770312 0.253224
N3    N     N_1   0.569177 0.916494 0.790894 -0.266126

loop_
_geom_bond_atom_site_label_1
_geom_bond_atom_site_label_2
_ccdc_geom_bond_type
Cr1   O25   S    
Cr1   O1    S    
C9    C26   S    
C2    C18   S    
Cr3   O4    S    
C3    H6    S    
C25   O26   A    
Cr6   O18   S    
C22   O16   A    
C4    C31   S    
C26   O3    A    
C7    C8    S    
C10   C22   S    
C23   O1    A    
C12   C28   S    
C10   H1    S    
C1    C5    S    
C28   C29   T    
Cr2   O20   S    
Cr6   O17   S    
C11   C33   S    
Cr3   O23   S    
C24   O13   A    
C1    O12   A    
C9    C13   D    
C16   C17   T    
Cr1   O5    S    
Cr5   O8    S    
C7    H4    S    
C31   N1    T    
C14   C27   S    
Cr6   O11   S    
C27   O4    A    
Cr4   O14   S    
Cr4   O19   S    
Cr3   O5    S    
C2    C32   S    
C26   O2    A    
C6    H8    S    
C17   C24   S    
C23   C30   S    
C33   N3    T    
C21   O14   A    
C12   O22   A    
Cr1   O12   S    
C1    O20   A    
Cr5   O19   S    
C5    H9    S    
C27   O24   A    
C5    C8    D    
C12   O21   A    
Cr3   O22   S    
Cr5   O9    S    
C8    H5    S    
Cr6   O10   S    
Cr2   O26   S    
C23   O23   A    
Cr4   O13   S    
Cr4   O7    S    
C3    C4    S    
C19   C29   S    
C16   C25   S    
Cr1   O24   S    
Cr5   O15   S    
Cr3   O3    S    
Cr2   O5    S    
C25   O25   A    
C32   N2    T    
Cr6   O19   S    
C18   O7    A    
C22   O17   A    
C21   O15   A    
C6    C7    D    
C6    C20   S    
Cr5   O16   S    
C2    C3    D    
Cr2   O21   S    
C20   O11   A    
C11   C13   S    
C19   O9    A    
C13   H7    S    
C24   O18   A    
C9    H2    S    
Cr2   O2    S    
C30   H3    S    
C20   O6    A    
C10   C11   D    
C19   O10   A    
C15   C21   S    
C14   C15   T    
Cr4   O6    S    
C4    C30   D    
C18   O8    A    
