data_mof_unit_10171.cif
_audit_creation_date              2013-03-05T15:45:21-0500
_audit_creation_method            fapswitch 2.2
_symmetry_space_group_name_H-M    P1
_symmetry_Int_Tables_number       1
_space_group_crystal_system       triclinic
_cell_length_a                    10.930476
_cell_length_b                    11.218171
_cell_length_c                    9.89466
_cell_angle_alpha                 107.639471
_cell_angle_beta                  95.970373
_cell_angle_gamma                 92.443155
_cell_volume                      1146.44086383

loop_
_atom_site_label
_atom_site_type_symbol
_atom_site_description
_atom_site_fract_x
_atom_site_fract_y
_atom_site_fract_z
_atom_type_partial_charge
O1    O     O_R   0.511700 0.332340 0.577400 -0.556785
O2    O     O_R   0.488300 0.667660 0.422600 -0.526312
O3    O     O_R   0.474680 0.295500 0.332650 -0.527154
O4    O     O_R   0.525320 0.704500 0.667350 -0.563318
C1    C     C_R   0.493190 0.256912 0.446200 0.870419
C2    C     C_R   0.510433 0.744288 0.555051 0.847854
O5    O     O_R   0.338170 0.518410 0.622370 -0.613649
O6    O     O_R   0.661830 0.481590 0.377630 -0.604686
O7    O     O_R   0.301150 0.481570 0.377630 -0.515357
O8    O     O_R   0.698850 0.518430 0.622370 -0.491620
C3    C     C_R   0.263366 0.503850 0.506984 0.724580
C4    C     C_R   0.737160 0.496873 0.493290 0.804160
Cu1   Cu    Cu3+1 0.521920 0.521810 0.644910 1.111963
Cu2   Cu    Cu3+1 0.478080 0.478190 0.355090 1.134122
H1    H     H_    0.102755 0.115613 0.191211 0.244302
H2    H     H_    0.910845 0.885716 0.809356 0.229900
C5    C     C_R   0.124765 0.671513 0.753347 -0.287049
C6    C     C_R   0.876284 0.317798 0.252684 -0.164823
C7    C     C_R   0.059914 0.771493 0.829236 0.425644
C8    C     C_R   0.945419 0.221233 0.176362 0.426937
C9    C     C_R   0.956980 0.804698 0.758238 -0.128206
C10   C     C_R   0.053390 0.194000 0.243414 -0.116407
C11   C     C_R   0.897316 0.719746 0.633924 -0.155375
C12   C     C_R   0.110948 0.280454 0.366150 -0.154405
C13   C     C_R   0.946114 0.604614 0.574690 0.108657
C14   C     C_R   0.057076 0.392490 0.426752 0.096335
C15   C     C_R   0.071214 0.592053 0.615565 -0.018884
C16   C     C_R   0.930390 0.402314 0.387606 -0.023052
C17   C     C_R   0.871650 0.503269 0.477487 -0.083947
C18   C     C_R   0.129920 0.494122 0.523439 -0.091487
H3    H     H_    0.807925 0.739826 0.591522 0.163899
H4    H     H_    0.202186 0.263717 0.407495 0.151051
C19   C     C_2   0.490166 0.122684 0.429457 -0.421621
C20   C     C_2   0.518060 0.881832 0.580524 -0.455483
C21   C     C_2   0.561063 0.074046 0.517489 0.307719
C22   C     C_2   0.554173 0.937847 0.486440 0.294552
H5    H     H_    0.496936 0.940595 0.683546 0.182518
H6    H     H_    0.426406 0.060705 0.342350 0.169130
H7    H     H_    0.431756 0.414020 0.850551 0.185791
H8    H     H_    0.565595 0.587571 0.149271 0.210366
N1    N     N_2   0.445130 0.445420 0.137360 -0.028196
N2    N     N_2   0.554870 0.554580 0.862640 -0.047436
C23   C     C_2   0.503629 0.513478 0.078591 0.100703
C24   C     C_2   0.492800 0.490106 0.922359 0.117310
C25   C     C_2   0.227645 0.634976 0.835742 1.010637
O9    O     O_2   0.218970 0.533720 0.856702 -0.480526
O10   O     O_R   0.332746 0.716341 0.894845 -0.656300
H9    H     H_    0.332524 0.794750 0.864194 0.321352
C26   C     C_2   0.771016 0.348313 0.168766 0.966796
O11   O     O_2   0.677339 0.277199 0.130658 -0.508218
O12   O     O_R   0.785596 0.450808 0.118718 -0.669226
H10   H     H_    0.724398 0.443007 0.032038 0.351668
S1    S     S_3+6 0.086693 0.835486 0.018433 0.061056
O13   O     O_2   0.108429 0.732410 0.084089 -0.221223
O14   O     O_2   0.198728 0.926903 0.059650 -0.314893
O15   O     O_3   0.962910 0.907284 0.081013 -0.458751
H11   H     H_    0.971277 0.913627 0.183655 0.393340
S2    S     S_3+6 0.917355 0.154944 0.988881 0.089601
O16   O     O_2   0.804855 0.064324 0.952760 -0.267963
O17   O     O_2   0.895635 0.257174 0.922072 -0.184854
O18   O     O_3   0.040786 0.082615 0.925879 -0.501065
H12   H     H_    0.038860 0.086767 0.827111 0.392099
S3    S     S_3+6 0.607066 0.856574 0.326758 0.074037
O19   O     O_2   0.691793 0.760973 0.350777 -0.268096
O20   O     O_2   0.493597 0.793973 0.227248 -0.247913
O21   O     O_3   0.684378 0.955307 0.260706 -0.434606
H13   H     H_    0.620462 0.995564 0.215157 0.377099
S4    S     S_3+6 0.691095 0.157737 0.635455 0.106738
O22   O     O_2   0.748157 0.254191 0.578924 -0.257278
O23   O     O_2   0.651929 0.221627 0.779237 -0.214506
O24   O     O_3   0.798492 0.057962 0.650850 -0.456037
H14   H     H_    0.756753 0.993421 0.683201 0.339904
S5    S     S_3+6 0.648452 0.690047 0.951661 0.210120
O25   O     O_2   0.569456 0.797583 0.996991 -0.205907
O26   O     O_2   0.731637 0.678345 0.076508 -0.170821
O27   O     O_3   0.738716 0.723683 0.840681 -0.474809
H15   H     H_    0.720858 0.809515 0.840743 0.362864
S6    S     S_3+6 0.356103 0.308959 0.035360 0.166184
O28   O     O_2   0.251934 0.338660 0.942734 -0.195669
O29   O     O_2   0.435484 0.221582 0.941587 -0.271351
O30   O     O_3   0.293141 0.235874 0.139069 -0.481522
H16   H     H_    0.316860 0.148494 0.106090 0.385376

loop_
_geom_bond_atom_site_label_1
_geom_bond_atom_site_label_2
_geom_bond_distance
_ccdc_geom_bond_type
S3    O20   1.501189 D    
H2    C9    1.072242 S    
C4    C17   1.495407 S    
C20   H5    1.087050 S    
N1    C23   1.278559 D    
S5    O25   1.497824 D    
C21   C22   1.461316 S    
C23   C24   1.478549 S    
O30   H16   0.989950 S    
H1    C10   1.074424 S    
S1    O13   1.504053 D    
O5    C3    1.296186 A    
O1    C1    1.306612 A    
C16   C17   1.433923 A    
C7    C9    1.388546 A    
C12   C14   1.402059 A    
S6    O29   1.504448 D    
S2    O17   1.502870 D    
O15   H11   0.990563 S    
O4    Cu1   1.991713 S    
C19   C21   1.356702 D    
H8    C23   1.067654 S    
C3    C18   1.487493 S    
S4    O22   1.501515 D    
C26   O12   1.392330 S    
C1    C19   1.462668 S    
C22   S3    1.738920 S    
C6    C8    1.416878 A    
C7    S1    1.777410 S    
S2    O18   1.681952 S    
C25   O10   1.393638 S    
O21   H13   0.989914 S    
S3    O21   1.685779 S    
Cu1   Cu2   2.745233 S    
C15   C18   1.422839 A    
S5    O26   1.498261 D    
O2    C2    1.322341 A    
N2    C24   1.277959 D    
Cu1   N2    2.062391 S    
S1    O14   1.501074 D    
C13   C17   1.405570 A    
O12   H10   1.010383 S    
C5    C15   1.431369 A    
C6    C16   1.432399 A    
O27   H15   0.990419 S    
O4    C2    1.315126 A    
N1    S6    1.743944 S    
S6    O28   1.499258 D    
S2    O16   1.501698 D    
C25   O9    1.216542 D    
C2    C20   1.483321 S    
C11   H3    1.082691 S    
O7    Cu2   1.970309 S    
C12   H4    1.083886 S    
O10   H9    1.013605 S    
O6    C4    1.300038 A    
O7    C3    1.340191 A    
O3    Cu2   1.991713 S    
O8    C4    1.340815 A    
Cu2   N1    2.062392 S    
C8    C10   1.384567 A    
C14   C18   1.397206 A    
C9    C11   1.384285 A    
S5    O27   1.663258 S    
C10   C12   1.373487 A    
O1    Cu1   2.019955 S    
C8    S2    1.764787 S    
S1    O15   1.681586 S    
N2    S5    1.732174 S    
O6    Cu2   1.995067 S    
C5    C25   1.465718 S    
O3    C1    1.321209 A    
O8    Cu1   1.970308 S    
H7    C24   1.078825 S    
C13   C15   1.410369 A    
C14   C16   1.416681 A    
C19   H6    1.087449 S    
O24   H14   0.988701 S    
S6    O30   1.675569 S    
C21   S4    1.772282 S    
S4    O24   1.682915 S    
C5    C7    1.411513 A    
C20   C22   1.351714 D    
C11   C13   1.400412 A    
O18   H12   0.990487 S    
O2    Cu2   2.019954 S    
S3    O19   1.502562 D    
O5    Cu1   1.995067 S    
S4    O23   1.501955 D    
C26   O11   1.222604 D    
C6    C26   1.462086 S    
