data_mof_unit_44304.cif
_audit_creation_date              2013-03-05T15:51:17-0500
_audit_creation_method            fapswitch 2.2
_symmetry_space_group_name_H-M    P1
_symmetry_Int_Tables_number       1
_space_group_crystal_system       triclinic
_cell_length_a                    8.423023
_cell_length_b                    17.469243
_cell_length_c                    17.37095
_cell_angle_alpha                 98.812978
_cell_angle_beta                  96.290725
_cell_angle_gamma                 97.93155
_cell_volume                      2479.27643734

loop_
_atom_site_label
_atom_site_type_symbol
_atom_site_description
_atom_site_fract_x
_atom_site_fract_y
_atom_site_fract_z
_atom_type_partial_charge
P1    P     P_3+3 0.996700 0.679700 0.572930 0.478410
O1    O     O_2   0.169780 0.691990 0.551040 -0.384718
O2    O     O_3   0.896620 0.594010 0.545570 -0.349542
O3    O     O_3   0.384860 0.644020 0.410190 -0.373293
O4    O     O_2   0.295623 0.777990 0.469220 -0.414966
O5    O     O_3   0.015643 0.709385 0.675171 -0.627931
O6    O     O_3   0.419856 0.788323 0.342492 -0.588432
H1    H     H_    0.341885 0.675543 0.277249 -0.000568
C1    C     C_3   0.336407 0.761670 0.201596 -0.476439
H2    H     H_    0.204219 0.754556 0.201255 0.208804
P2    P     P_3+3 0.328720 0.438370 0.322170 0.459590
P3    P     P_3+3 0.915157 0.600942 0.267814 0.489486
O7    O     O_2   0.160250 0.462050 0.312130 -0.379895
O8    O     O_3   0.957280 0.604490 0.369120 -0.402199
O9    O     O_2   0.041419 0.558203 0.227553 -0.412951
O10   O     O_3   0.304296 0.337325 0.286369 -0.597816
O11   O     O_3   0.948873 0.696997 0.247724 -0.498262
C2    C     C_3   0.008511 0.750250 0.317655 0.554868
H3    H     H_    0.134320 0.744484 0.335103 0.103342
H4    H     H_    0.941401 0.740256 0.367329 0.120854
C3    C     C_3   0.998625 0.833920 0.304962 -0.956125
H5    H     H_    0.062858 0.875794 0.357279 0.218927
H6    H     H_    0.054670 0.846625 0.252549 0.260883
C4    C     C_3   0.696212 0.325124 0.278528 0.610339
H7    H     H_    0.609923 0.354101 0.312105 0.111865
C5    C     C_3   0.602475 0.259297 0.212872 -0.327246
H8    H     H_    0.517846 0.220158 0.239813 0.180301
H9    H     H_    0.688591 0.222910 0.187342 0.208237
Ba1   Ba    Ba6+2 0.160000 0.538340 0.465920 1.581616
C6    C     C_3   0.127432 0.673929 0.716861 0.813639
H10   H     H_    0.217836 0.652395 0.680822 0.020174
C7    C     C_3   0.217123 0.735036 0.785899 -0.973383
H11   H     H_    0.274546 0.786468 0.763271 0.233184
H12   H     H_    0.311236 0.709965 0.819492 0.246142
H13   H     H_    0.131620 0.755728 0.825820 0.274449
C8    C     C_3   0.189222 0.291528 0.319090 0.683403
H14   H     H_    0.107186 0.326171 0.349996 0.120244
C9    C     C_3   0.090184 0.230054 0.252530 -0.911646
H15   H     H_    0.033909 0.258667 0.206302 0.238094
H16   H     H_    0.993714 0.193357 0.275376 0.236733
H17   H     H_    0.169295 0.191167 0.224567 0.249344
P4    P     P_3+3 0.813590 0.320290 0.427010 0.453175
O12   O     O_2   0.640500 0.307960 0.448930 -0.377252
O13   O     O_3   0.913680 0.405980 0.454370 -0.385097
O14   O     O_3   0.425430 0.355970 0.589750 -0.313351
O15   O     O_3   0.798987 0.289003 0.325190 -0.620134
P5    P     P_3+3 0.897977 0.393633 0.731912 0.642287
O16   O     O_3   0.389690 0.539950 0.593560 -0.398430
O17   O     O_3   0.853010 0.395500 0.630820 -0.369261
O18   O     O_2   0.782690 0.442499 0.773494 -0.266385
O19   O     O_3   0.841399 0.296756 0.748049 -0.461736
Ba2   Ba    Ba6+2 0.650170 0.461650 0.534010 1.628162
P6    P     P_3+3 0.433857 0.746642 0.429131 0.463723
C10   C     C_3   0.415907 0.732509 0.273933 0.795643
H18   H     H_    0.355450 0.724275 0.146612 0.213107
O20   O     O_3   0.420600 0.460050 0.406370 -0.383010
C11   C     C_3   0.594341 0.702914 0.662306 0.378292
H19   H     H_    0.676154 0.666613 0.633062 0.092841
H20   H     H_    0.497006 0.711157 0.617173 0.070079
C12   C     C_3   0.695876 0.782353 0.699650 -0.373038
H21   H     H_    0.789104 0.773748 0.746639 0.245921
H22   H     H_    0.759459 0.807844 0.654841 0.164591
P7    P     P_3+3 0.480751 0.566256 0.691976 0.486089
O21   O     O_2   0.650040 0.537900 0.687840 -0.256999
O22   O     O_3   0.524968 0.668272 0.721005 -0.594945
H23   H     H_    0.870307 0.842833 0.296724 0.288569
C13   C     C_3   0.812398 0.246015 0.674534 0.336520
H24   H     H_    0.710711 0.261235 0.637291 0.124595
H25   H     H_    0.917368 0.251454 0.642266 0.085642
C14   C     C_3   0.772131 0.159370 0.682163 -0.093640
H26   H     H_    0.752430 0.123353 0.622526 0.078929
H27   H     H_    0.658042 0.147475 0.706391 0.140978
P8    P     P_3+3 0.376440 0.253300 0.582738 0.485349
C15   C     C_3   0.390400 0.245232 0.742113 1.012889
O23   O     O_2   0.478662 0.216559 0.522468 -0.428445
O24   O     O_3   0.435910 0.214206 0.668094 -0.645710
H28   H     H_    0.367909 0.199372 0.853158 0.269160
C16   C     C_3   0.407347 0.182097 0.794886 -0.891923
H29   H     H_    0.534729 0.173410 0.807207 0.246449
H30   H     H_    0.333413 0.125295 0.765854 0.258310
C17   C     C_2   0.748771 0.728490 0.492660 -0.443305
C18   C     C_3   0.626090 0.784206 0.496591 0.200803
C19   C     C_2   0.700300 0.863525 0.482836 -0.214467
C20   C     C_2   0.861057 0.888083 0.502814 0.060603
C21   C     C_2   0.963037 0.831118 0.534246 0.125129
C22   C     C_1   0.898275 0.754551 0.528141 0.240590
C23   C     C_R   0.096286 0.140863 0.532576 -0.230268
C24   C     C_R   0.163886 0.219828 0.541346 0.319544
C25   C     C_R   0.915626 0.250032 0.476881 0.305685
C26   C     C_R   0.847176 0.170101 0.467421 -0.336192
C27   C     C_R   0.936228 0.114709 0.495967 0.098360
C28   C     C_2   0.937402 0.970193 0.497148 -0.122080
C29   C     C_2   0.856174 0.031656 0.491527 -0.132219
C30   C     C_R   0.072299 0.274353 0.515715 -0.449437
H31   H     H_    0.725475 0.022782 0.486700 0.121939
H32   H     H_    0.168703 0.101168 0.556033 0.156770
H33   H     H_    0.067578 0.980365 0.499582 0.132096
H34   H     H_    0.620473 0.900908 0.460428 0.150919
H35   H     H_    0.725510 0.150955 0.437092 0.170299
H36   H     H_    0.710796 0.667137 0.466830 0.193639
H37   H     H_    0.126925 0.335149 0.521883 0.173884
H38   H     H_    0.529137 0.561138 0.863674 0.154095
H39   H     H_    0.719550 0.570120 0.110380 0.164107
C31   C     C_R   0.604233 0.527221 0.282882 -0.426720
C32   C     C_R   0.444183 0.491758 0.256632 0.311926
C33   C     C_R   0.382198 0.486150 0.177041 -0.293967
C34   C     C_R   0.480594 0.514721 0.123952 0.034147
C35   C     C_R   0.642296 0.548539 0.150857 -0.206341
C36   C     C_R   0.704567 0.554536 0.230227 0.349671
C37   C     C_R   0.412412 0.526811 0.839304 -0.172234
C38   C     C_R   0.361013 0.517168 0.758293 0.234538
C39   C     C_R   0.106668 0.440872 0.775388 0.379870
C40   C     C_R   0.158852 0.449712 0.856423 -0.175436
C41   C     C_R   0.312885 0.491822 0.888544 0.065252
C42   C     C_1   0.368803 0.499922 0.971924 0.039492
C43   C     C_1   0.418259 0.506688 0.041310 0.032319
C44   C     C_R   0.211105 0.472357 0.726764 -0.274221
H40   H     H_    0.079340 0.424718 0.894205 0.155869
H41   H     H_    0.259676 0.456945 0.155997 0.171067
H42   H     H_    0.653394 0.530652 0.343755 0.169198
H43   H     H_    0.171947 0.464713 0.664216 0.154743
C45   C     C_3   0.505942 0.286870 0.145264 -0.885177
H44   H     H_    0.438169 0.333572 0.167261 0.276122
H45   H     H_    0.587647 0.308961 0.104781 0.267845
H46   H     H_    0.418357 0.236682 0.110964 0.268231
N1    N     N_R   0.037898 0.608405 0.743733 0.181877
O25   O     O_R   0.952924 0.553657 0.690628 -0.379065
O26   O     O_R   0.021046 0.608993 0.817467 -0.439679
C46   C     C_3   0.279774 0.249751 0.375821 -0.883314
H47   H     H_    0.333031 0.293497 0.428403 0.265770
H48   H     H_    0.197466 0.201208 0.391654 0.202502
H49   H     H_    0.378524 0.223989 0.349300 0.250148
N2    N     N_R   0.580050 0.719592 0.264369 0.204909
O27   O     O_R   0.642718 0.728074 0.200320 -0.419741
O28   O     O_R   0.664950 0.698349 0.321691 -0.487958
C47   C     C_3   0.594366 0.841260 0.734486 -0.834469
H50   H     H_    0.670135 0.900034 0.751414 0.268012
H51   H     H_    0.490497 0.845445 0.690842 0.238340
H52   H     H_    0.550711 0.823788 0.788189 0.277867
C48   C     C_3   0.398602 0.847691 0.198866 -0.747673
H53   H     H_    0.531897 0.857983 0.200171 0.276892
H54   H     H_    0.342318 0.863490 0.143826 0.241275
H55   H     H_    0.365636 0.886637 0.249402 0.254538
N3    N     N_R   0.900393 0.134006 0.730654 0.299160
O29   O     O_R   0.892878 0.136400 0.805387 -0.312917
O30   O     O_R   0.000889 0.093725 0.697388 -0.412897
N4    N     N_R   0.223717 0.261412 0.737293 0.195743
O31   O     O_R   0.180388 0.308118 0.690846 -0.516842
O32   O     O_R   0.147790 0.258073 0.798334 -0.372733
N5    N     N_R   0.499216 0.317688 0.777141 0.223439
O33   O     O_R   0.493291 0.378743 0.743779 -0.357125
O34   O     O_R   0.582127 0.326066 0.846591 -0.383937
C49   C     C_3   0.114524 0.867678 0.590490 -0.843908
H56   H     H_    0.172130 0.826093 0.621699 0.261404
H57   H     H_    0.206106 0.896022 0.558221 0.239404
H58   H     H_    0.083857 0.913015 0.636203 0.246745
C50   C     C_3   0.802948 0.385850 0.244707 -0.897353
H59   H     H_    0.857295 0.434550 0.292918 0.260682
H60   H     H_    0.901000 0.360379 0.217718 0.250807
H61   H     H_    0.732621 0.409046 0.198729 0.203954

loop_
_geom_bond_atom_site_label_1
_geom_bond_atom_site_label_2
_geom_bond_distance
_ccdc_geom_bond_type
C6    C7    1.528098 S    
C23   C24   1.396468 A    
P7    O22   1.751948 S    
C50   H59   1.106755 S    
C23   C27   1.408481 A    
O3    P6    1.754356 S    
C2    C3    1.523251 S    
N4    O31   1.292001 A    
C48   H55   1.110484 S    
C31   H42   1.082125 S    
O19   C13   1.414643 S    
C6    N1    1.448967 S    
C41   C42   1.452237 S    
C11   H19   1.110722 S    
P5    O17   1.761675 S    
H28   C16   1.110762 S    
C5    H8    1.109625 S    
N1    O25   1.293823 A    
C15   O24   1.430304 S    
O1    Ba1   2.844979 S    
O7    Ba1   2.797144 S    
C8    H14   1.108643 S    
N4    O32   1.301532 A    
C48   H54   1.110245 S    
C2    H3    1.092422 S    
P3    C36   1.848520 S    
C31   C36   1.403694 A    
C33   H41   1.083442 S    
C1    C48   1.531305 S    
C16   H30   1.110882 S    
O12   Ba2   2.845466 S    
C11   H20   1.110803 S    
C33   C34   1.407430 A    
C42   C43   1.213666 T    
C35   C36   1.403248 A    
O14   P8    1.766285 S    
P1    O1    1.541476 D    
P4    O15   1.754911 S    
C25   C30   1.392642 A    
O2    Ba1   2.938952 S    
C44   H43   1.082582 S    
C37   C38   1.403509 A    
C39   C40   1.406275 A    
C40   C41   1.409960 A    
C49   H56   1.103368 S    
C30   H37   1.081944 S    
C19   H34   1.082507 S    
P3    O11   1.757212 S    
P2    C32   1.851883 S    
C34   C35   1.405832 A    
H39   C35   1.083380 S    
C1    H18   1.111781 S    
C49   H57   1.108528 S    
C1    H2    1.102419 S    
C37   C41   1.408513 A    
O3    Ba1   2.813744 S    
C46   H49   1.109235 S    
O13   Ba2   2.939796 S    
C29   H31   1.082447 S    
C3    H5    1.110420 S    
P8    O23   1.547116 D    
P4    O13   1.588507 S    
C47   H52   1.109086 S    
C31   C32   1.399050 A    
C28   H33   1.081380 S    
C17   C18   1.514101 S    
P5    O18   1.544986 D    
C48   H53   1.109445 S    
C24   C30   1.399324 A    
Ba1   O16   2.772311 S    
C13   H24   1.103161 S    
C7    H13   1.111177 S    
C15   N4    1.465972 S    
C4    H7    1.108461 S    
C9    H17   1.111853 S    
C47   H51   1.111228 S    
Ba2   O21   2.797355 S    
H1    C10   1.112030 S    
C4    C50   1.523922 S    
N3    O29   1.301206 A    
C11   C12   1.533985 S    
P5    O19   1.766866 S    
O14   Ba2   2.813208 S    
C21   C22   1.356618 D    
C10   N2    1.454300 S    
C40   H40   1.083210 S    
C12   H21   1.111398 S    
P1    O2    1.588476 S    
C3    H23   1.110082 S    
C7    H12   1.110625 S    
P8    C24   1.834234 S    
C27   C29   1.499992 S    
P2    O10   1.755086 S    
C19   C20   1.352420 D    
P3    O9    1.549097 D    
C6    H10   1.106640 S    
O17   Ba2   2.755578 S    
C23   H32   1.080646 S    
P1    Ba1   3.396567 S    
O11   C2    1.408707 S    
C21   C49   1.516989 S    
C20   C21   1.525087 S    
C49   H58   1.110532 S    
C14   H26   1.109227 S    
N3    O30   1.300995 A    
O5    C6    1.394158 S    
P3    O8    1.746492 S    
C50   H61   1.102148 S    
C3    H6    1.108263 S    
Ba1   O13   2.852009 S    
N2    O27   1.302331 A    
P8    O24   1.776985 S    
N5    O34   1.302930 A    
H38   C37   1.083391 S    
P4    O12   1.541783 D    
O6    P6    1.769094 S    
O8    Ba1   2.754857 S    
C45   H45   1.110414 S    
C26   H35   1.082934 S    
C17   H36   1.085786 S    
C46   H47   1.105094 S    
O4    P6    1.541864 D    
P1    C22   1.863317 S    
C12   C47   1.523683 S    
N1    O26   1.302697 A    
C16   H29   1.106610 S    
C14   N3    1.456048 S    
C15   N5    1.460838 S    
C17   C22   1.326138 D    
C11   O22   1.403358 S    
C47   H50   1.110620 S    
O16   P7    1.759767 S    
O2    Ba2   2.852650 S    
Ba1   O20   2.941323 S    
C5    C45   1.531195 S    
C32   C33   1.407072 A    
C5    H9    1.112764 S    
C39   C44   1.400514 A    
C38   C44   1.396924 A    
C13   C14   1.534038 S    
C4    O15   1.399381 S    
C7    H11   1.107108 S    
P4    C25   1.857230 S    
C45   H46   1.110429 S    
C8    C9    1.531957 S    
C45   H44   1.103757 S    
C8    C46   1.514863 S    
O10   C8    1.395956 S    
C12   H22   1.105781 S    
C9    H16   1.110668 S    
P2    O7    1.531357 D    
C4    C5    1.548146 S    
C26   C27   1.417990 A    
C9    H15   1.106509 S    
C28   C29   1.360413 D    
C2    H4    1.104712 S    
P7    C38   1.843442 S    
C34   C43   1.452235 S    
P7    O21   1.578064 D    
Ba2   O20   2.771733 S    
O16   Ba2   2.940557 S    
P2    Ba1   3.381017 S    
C50   H60   1.105547 S    
C18   C19   1.504309 S    
C15   C16   1.549771 S    
P1    O5    1.755413 S    
N2    O28   1.292678 A    
N5    O33   1.293719 A    
P6    C18   1.865722 S    
C14   H27   1.097322 S    
C1    C10   1.546858 S    
C20   C28   1.511047 S    
O6    C10   1.413029 S    
C13   H25   1.098501 S    
C25   C26   1.412767 A    
P2    O20   1.543687 S    
P5    C39   1.859841 S    
P4    Ba2   3.397054 S    
C46   H48   1.107426 S    
Ba1   Ba2   4.602391 S    
