data_mof_unit_19795.cif
_audit_creation_date              2012-12-10T17:47:43-0500
_audit_creation_method            fapswitch 2.2
_symmetry_space_group_name_H-M    P1
_symmetry_Int_Tables_number       1
_space_group_crystal_system       triclinic
_cell_length_a                    10.820747
_cell_length_b                    10.805898
_cell_length_c                    9.961829
_cell_angle_alpha                 90.481466
_cell_angle_beta                  90.9473
_cell_angle_gamma                 95.773778
_cell_volume                      1158.68862984

loop_
_atom_site_label
_atom_site_type_symbol
_atom_type_description
_atom_site_fract_x
_atom_site_fract_y
_atom_site_fract_z
_atom_type_partial_charge
C1    C     C_R   0.507512 0.261773 0.500944 0.889811
C2    C     C_3   0.879121 0.503375 0.493437 0.072946
C3    C     C_3   0.939816 0.612946 0.582423 -0.547209
C4    C     C_3   0.926469 0.523749 0.343247 0.267817
C5    C     C_R   0.647905 0.146761 0.715839 -0.170269
C6    C     C_R   0.700636 0.089560 0.823300 -0.214709
C7    C     C_R   0.709708 0.963361 0.818076 -0.165409
C8    C     C_R   0.668498 0.894713 0.703317 0.221218
C9    C     C_R   0.590242 0.945980 0.605721 0.039399
C10   C     C_R   0.584847 0.076041 0.609641 0.065689
C11   C     C_R   0.519647 0.131188 0.504994 -0.110096
C12   C     C_R   0.258886 0.506955 0.498790 0.911130
C13   C     C_R   0.457372 0.060451 0.404315 -0.281943
C14   C     C_R   0.455789 0.933931 0.401966 0.087817
C15   C     C_R   0.520426 0.875010 0.502455 -0.131373
C16   C     C_R   0.404559 0.283062 0.131047 0.271916
C17   C     C_R   0.412169 0.169803 0.062946 -0.262290
C18   C     C_R   0.415437 0.170266 0.923878 -0.231760
C19   C     C_R   0.406122 0.283287 0.859521 0.273740
C20   C     C_R   0.459117 0.392652 0.926099 0.088544
C21   C     C_R   0.458930 0.392592 0.069766 0.104695
C22   C     C_R   0.536097 0.603993 0.073227 -0.115266
C23   C     C_R   0.505544 0.740409 0.500914 0.898379
C24   C     C_R   0.534105 0.604376 0.930744 -0.154252
C25   C     C_R   0.742264 0.501688 0.499496 0.905351
C26   C     C_3   0.062272 0.381968 0.548571 -0.151770
C27   C     C_3   0.919063 0.382037 0.557449 -0.129173
C28   C     C_3   0.082591 0.618252 0.587047 -0.006294
C29   C     C_3   0.072935 0.532985 0.346814 -0.075255
C30   C     C_3   0.122567 0.510560 0.495339 0.078058
H1    H     H_    0.095065 0.372453 0.653000 0.168697
H2    H     H_    0.121271 0.708430 0.544772 0.167685
H3    H     H_    0.917466 0.702508 0.542937 0.168507
H4    H     H_    0.402011 0.103050 0.330826 0.166485
H5    H     H_    0.661142 0.246698 0.718897 0.191362
H6    H     H_    0.743516 0.144845 0.905915 0.148740
H7    H     H_    0.763974 0.922519 0.895392 0.136785
H8    H     H_    0.565914 0.689126 0.127547 0.153270
H9    H     H_    0.380313 0.082541 0.109056 0.148086
H10   H     H_    0.388740 0.083499 0.870700 0.168602
H11   H     H_    0.558481 0.690969 0.880383 0.153354
H12   H     H_    0.898203 0.388491 0.666635 0.153150
H13   H     H_    0.901499 0.604678 0.685358 0.215802
H14   H     H_    0.101754 0.457104 0.284277 0.168466
N1    N     N_R   0.498810 0.498800 0.142780 -0.111735
N2    N     N_R   0.498760 0.498720 0.857170 -0.114853
O1    O     O_R   0.500000 0.316780 0.614690 -0.637377
O2    O     O_R   0.499990 0.316750 0.385360 -0.611702
O3    O     O_R   0.314800 0.499990 0.614670 -0.624480
O4    O     O_R   0.314790 0.499970 0.385330 -0.632394
O5    O     O_R   0.500010 0.683250 0.614640 -0.624685
O6    O     O_R   0.500000 0.683220 0.385310 -0.606518
O7    O     O_R   0.685210 0.500030 0.614670 -0.651437
O8    O     O_R   0.685200 0.500010 0.385330 -0.579079
Zn1   Zn    Zn3+2 0.500010 0.500020 0.653130 0.917165
Zn2   Zn    Zn3+2 0.499990 0.499980 0.346870 0.954093
N3    N     N_3   0.878282 0.638058 0.289260 -0.441572
H15   H     H_    0.917424 0.720191 0.334531 0.171575
H16   H     H_    0.892645 0.646816 0.186145 0.174843
C31   C     C_3   0.740220 0.787577 0.673590 -0.931370
H17   H     H_    0.711798 0.707466 0.737882 0.266084
H18   H     H_    0.732637 0.761501 0.566025 0.225078
H19   H     H_    0.839843 0.816785 0.696123 0.219194
N4    N     N_3   0.382969 0.865064 0.299532 -0.449036
H20   H     H_    0.421638 0.888608 0.206589 0.182470
H21   H     H_    0.293085 0.892616 0.300190 0.168210
N5    N     N_3   0.104187 0.275713 0.475146 -0.505247
H22   H     H_    0.076979 0.193444 0.525957 0.187663
H23   H     H_    0.067218 0.267871 0.378149 0.184042
C32   C     C_3   0.284256 0.290279 0.203029 -0.872330
H24   H     H_    0.247663 0.379471 0.178993 0.237612
H25   H     H_    0.211709 0.216625 0.167178 0.199347
H26   H     H_    0.293759 0.278732 0.312242 0.270578
C33   C     C_3   0.284932 0.288023 0.784354 -0.832383
H27   H     H_    0.292944 0.271310 0.675529 0.264649
H28   H     H_    0.212799 0.215723 0.820201 0.195544
H29   H     H_    0.247778 0.377764 0.805821 0.233983
N6    N     N_3   0.845486 0.267408 0.510497 -0.470101
H30   H     H_    0.864950 0.194874 0.573767 0.190247
H31   H     H_    0.867049 0.240491 0.414235 0.207005
C34   C     C_3   0.129266 0.624874 0.735001 -0.913436
H32   H     H_    0.105623 0.536502 0.788517 0.239050
H33   H     H_    0.230375 0.653583 0.742907 0.272261
H34   H     H_    0.084998 0.698503 0.789541 0.231260
C35   C     C_3   0.134824 0.651183 0.275950 -0.968871
H35   H     H_    0.119253 0.738543 0.328585 0.230214
H36   H     H_    0.235877 0.651408 0.264072 0.297175
H37   H     H_    0.098547 0.655045 0.171435 0.236811
N7    N     N_3   0.874487 0.418177 0.256200 -0.425373
H38   H     H_    0.860430 0.446920 0.157677 0.179810
H39   H     H_    0.933384 0.348401 0.246420 0.129583

loop_
_geom_bond_atom_site_label_1
_geom_bond_atom_site_label_2
_ccdc_geom_bond_type
C8    C9    A    
C16   C21   A    
C19   C20   A    
C1    C11   S    
C27   N6    S    
C12   O3    A    
C23   O6    A    
C7    C8    A    
C35   H35   S    
C3    H13   S    
C26   C27   S    
C33   H28   S    
C31   H19   S    
C26   N5    S    
C3    C28   S    
C25   O7    A    
C5    C6    A    
N6    H31   S    
N3    H16   S    
C3    H3    S    
C22   H8    S    
C31   H18   S    
C18   C19   A    
C17   H9    S    
C18   H10   S    
N1    Zn2   S    
C16   C17   A    
C33   H29   S    
N2    Zn1   S    
C32   H24   S    
N7    H39   S    
C9    C10   A    
C29   C35   S    
C4    C29   S    
C15   C23   S    
C26   H1    S    
C13   C14   A    
C24   H11   S    
C34   H33   S    
C34   H32   S    
C21   N1    A    
O7    Zn1   S    
O8    Zn2   S    
C33   H27   S    
C35   H36   S    
N5    H22   S    
C28   H2    S    
C16   C32   S    
C25   O8    A    
N6    H30   S    
C1    O1    A    
O3    Zn1   S    
O4    Zn2   S    
C31   H17   S    
N5    H23   S    
N4    H21   S    
C4    N3    S    
C2    C4    S    
C29   C30   S    
C23   O5    A    
C14   N4    S    
C32   H26   S    
C17   C18   A    
C7    H7    S    
C2    C27   S    
C26   C30   S    
C29   H14   S    
C22   C24   A    
C34   H34   S    
O1    Zn1   S    
C4    N7    S    
C35   H37   S    
O2    Zn2   S    
C12   C30   S    
C28   C34   S    
C19   C33   S    
C12   O4    A    
C1    O2    A    
C6    C7    A    
C24   N2    A    
N4    H20   S    
C28   C30   S    
C2    C3    S    
C9    C15   A    
C5    C10   A    
C8    C31   S    
C11   C13   A    
C27   H12   S    
N3    H15   S    
C5    H5    S    
C6    H6    S    
C2    C25   S    
O5    Zn1   S    
C10   C11   A    
C13   H4    S    
C22   N1    A    
C20   C21   A    
C14   C15   A    
C32   H25   S    
N7    H38   S    
C20   N2    A    
O6    Zn2   S    
