data_mof_unit_51288.cif
_audit_creation_date              2013-03-05T15:45:16-0500
_audit_creation_method            fapswitch 2.2
_symmetry_space_group_name_H-M    P1
_symmetry_Int_Tables_number       1
_space_group_crystal_system       triclinic
_cell_length_a                    8.331292
_cell_length_b                    12.788165
_cell_length_c                    19.179232
_cell_angle_alpha                 95.038789
_cell_angle_beta                  95.207668
_cell_angle_gamma                 97.328616
_cell_volume                      2008.08630228

loop_
_atom_site_label
_atom_site_type_symbol
_atom_site_description
_atom_site_fract_x
_atom_site_fract_y
_atom_site_fract_z
_atom_type_partial_charge
P1    P     P_3+3 0.986780 0.745970 0.554690 0.493830
O1    O     O_2   0.160820 0.763040 0.533820 -0.378302
O2    O     O_3   0.890970 0.628600 0.535400 -0.354909
O3    O     O_3   0.385950 0.698560 0.408070 -0.297486
O4    O     O_2   0.309055 0.882804 0.462111 -0.338153
O5    O     O_3   0.004782 0.783440 0.645824 -0.615061
O6    O     O_3   0.361865 0.879562 0.332468 -0.485292
C1    C     C_3   0.536322 0.974118 0.260341 -0.983760
H1    H     H_    0.432913 0.012547 0.238669 0.282927
H2    H     H_    0.602419 0.026850 0.305364 0.254354
P2    P     P_3+3 0.341450 0.417130 0.341310 0.485226
P3    P     P_3+3 0.927634 0.633447 0.279883 0.523760
O7    O     O_2   0.172860 0.449730 0.330520 -0.366182
O8    O     O_3   0.962080 0.644700 0.373110 -0.304769
O9    O     O_2   0.031542 0.550884 0.251885 -0.372657
O10   O     O_3   0.305902 0.279002 0.324335 -0.567770
O11   O     O_3   0.018017 0.748911 0.248391 -0.455989
C2    C     C_3   0.912651 0.826478 0.247477 0.461493
H3    H     H_    0.783909 0.791580 0.231972 -0.043490
C3    C     C_3   0.962586 0.899721 0.192177 -0.921624
H4    H     H_    0.092287 0.934950 0.204247 0.267715
H5    H     H_    0.947155 0.853996 0.139470 0.274042
C4    C     C_3   0.815616 0.299226 0.312677 0.309135
H6    H     H_    0.701488 0.333932 0.302984 0.061374
H7    H     H_    0.913824 0.359799 0.338108 0.174593
C5    C     C_3   0.868827 0.260198 0.241765 -0.726192
H8    H     H_    0.931396 0.328954 0.218667 0.180136
H9    H     H_    0.957055 0.202800 0.249339 0.237678
Ba1   Ba    Ba6+2 0.160910 0.552960 0.466220 1.621024
C6    C     C_3   0.112020 0.730295 0.684881 0.363993
H10   H     H_    0.200516 0.697291 0.652704 0.086555
C7    C     C_3   0.203602 0.808683 0.744468 -0.879251
H11   H     H_    0.276081 0.873631 0.722325 0.243190
H12   H     H_    0.286561 0.768748 0.778633 0.268309
H13   H     H_    0.116944 0.844178 0.777158 0.265957
C8    C     C_3   0.250826 0.233393 0.382946 0.361628
H14   H     H_    0.131195 0.257146 0.392561 0.071894
H15   H     H_    0.338758 0.256399 0.430576 0.143968
C9    C     C_3   0.232867 0.113718 0.367065 -0.869864
H16   H     H_    0.150801 0.088355 0.317968 0.242816
H17   H     H_    0.181874 0.073827 0.410597 0.242355
H18   H     H_    0.353929 0.089146 0.360499 0.273036
P4    P     P_3+3 0.823520 0.254020 0.445250 0.495902
O12   O     O_2   0.649470 0.236890 0.466160 -0.347781
O13   O     O_3   0.919320 0.371390 0.464540 -0.361526
O14   O     O_3   0.424350 0.301430 0.591880 -0.392914
O15   O     O_3   0.786266 0.214902 0.353760 -0.587737
P5    P     P_3+3 0.881847 0.349042 0.717026 0.511163
O16   O     O_3   0.382770 0.553920 0.582990 -0.416223
O17   O     O_3   0.848220 0.355290 0.626830 -0.309939
O18   O     O_2   0.750248 0.406062 0.750410 -0.395209
O19   O     O_3   0.831696 0.214838 0.727170 -0.478470
Ba2   Ba    Ba6+2 0.649260 0.447030 0.533730 1.602438
P6    P     P_3+3 0.427814 0.838603 0.413916 0.557682
C10   C     C_3   0.475116 0.865705 0.283266 0.417941
H19   H     H_    0.582092 0.829938 0.304239 -0.065393
H20   H     H_    0.620634 0.964674 0.219536 0.265345
O20   O     O_3   0.427530 0.446070 0.416950 -0.414061
C11   C     C_3   0.553791 0.769006 0.633048 0.355985
H21   H     H_    0.680921 0.754164 0.628707 0.111154
H22   H     H_    0.475656 0.739089 0.583544 0.110834
C12   C     C_3   0.549743 0.887742 0.643187 -0.872219
H23   H     H_    0.603168 0.920481 0.696939 0.303017
H24   H     H_    0.617939 0.927331 0.603756 0.216801
H25   H     H_    0.423106 0.904871 0.634581 0.247988
P7    P     P_3+3 0.463295 0.584328 0.671314 0.457362
O21   O     O_2   0.637430 0.550200 0.669460 -0.304740
O22   O     O_3   0.496585 0.722206 0.691080 -0.529979
H26   H     H_    0.886741 0.964790 0.190389 0.243397
C13   C     C_3   0.971436 0.166895 0.717495 0.398898
H27   H     H_    0.026870 0.190663 0.669718 0.033379
H28   H     H_    0.058966 0.189666 0.764757 0.089424
C14   C     C_3   0.931057 0.047190 0.707982 -0.836835
H29   H     H_    0.845525 0.023729 0.660084 0.246352
H30   H     H_    0.043484 0.011146 0.700833 0.199611
H31   H     H_    0.878278 0.017424 0.754641 0.297488
P8    P     P_3+3 0.383078 0.163712 0.593893 0.460349
C15   C     C_3   0.411890 0.219263 0.727694 0.306263
H32   H     H_    0.292500 0.246720 0.716749 -0.010388
O23   O     O_2   0.509047 0.114557 0.551470 -0.362397
O24   O     O_3   0.427322 0.131331 0.680330 -0.524993
H33   H     H_    0.505533 0.285847 0.721105 0.168042
H34   H     H_    0.415592 0.268249 0.837696 0.137260
C16   C     C_3   0.431210 0.194701 0.805184 -0.718883
C17   C     C_R   0.077817 0.183854 0.526845 -0.522339
C18   C     C_R   0.725535 0.828354 0.488659 -0.402495
C19   C     C_R   0.704120 0.000062 0.450332 -0.243695
C20   C     C_R   0.637309 0.894297 0.452252 0.196748
C21   C     C_R   0.887760 0.854935 0.513623 0.317750
C22   C     C_R   0.955255 0.965208 0.516661 -0.024723
C23   C     C_R   0.860421 0.039434 0.485189 -0.022945
C24   C     C_R   0.924013 0.150375 0.490781 0.274823
C25   C     C_R   0.173323 0.112292 0.554717 0.208098
C26   C     C_R   0.110894 0.004496 0.551464 -0.188999
H35   H     H_    0.629854 0.051078 0.424570 0.179164
H36   H     H_    0.184390 0.952630 0.576957 0.169731
H37   H     H_    0.127427 0.266794 0.530520 0.163573
H38   H     H_    0.661400 0.758638 0.504075 0.121746
C27   C     C_R   0.614756 0.536267 0.295734 -0.453121
C28   C     C_R   0.460498 0.480350 0.274729 0.300600
C29   C     C_R   0.405149 0.465060 0.202763 -0.244815
C30   C     C_R   0.501062 0.510326 0.153090 0.031482
C31   C     C_R   0.656837 0.566406 0.176068 -0.241933
C32   C     C_R   0.714408 0.578448 0.247561 0.095217
C33   C     C_R   0.446034 0.590655 0.040422 -0.142425
C34   C     C_R   0.392407 0.581857 0.968645 -0.089828
C35   C     C_R   0.335261 0.482200 0.931673 0.141745
C36   C     C_R   0.322255 0.392509 0.969364 -0.149735
C37   C     C_R   0.373074 0.401578 0.041618 -0.140946
C38   C     C_R   0.438720 0.500496 0.077465 0.116150
C39   C     C_R   0.138761 0.417256 0.825738 -0.239503
C40   C     C_R   0.091214 0.408186 0.753393 0.200190
C41   C     C_R   0.347958 0.510709 0.734455 0.162843
C42   C     C_R   0.398425 0.519090 0.807603 -0.209563
C43   C     C_R   0.292061 0.471627 0.853773 -0.029104
C44   C     C_R   0.199403 0.450326 0.708134 -0.418753
H39   H     H_    0.398142 0.652924 0.941638 0.135271
H40   H     H_    0.493036 0.668103 0.067183 0.158484
H41   H     H_    0.286402 0.420650 0.185778 0.146827
H42   H     H_    0.276150 0.315064 0.942614 0.177033
H43   H     H_    0.365406 0.330940 0.069109 0.136889
H44   H     H_    0.054193 0.384549 0.860454 0.180065
H45   H     H_    0.734290 0.598210 0.138396 0.149230
H46   H     H_    0.162368 0.442578 0.652137 0.174326
C45   C     C_2   0.391435 0.791733 0.221460 1.023079
O25   O     O_2   0.377480 0.820437 0.162195 -0.650504
O26   O     O_R   0.327903 0.689178 0.232615 -0.738248
H47   H     H_    0.268331 0.648463 0.188032 0.338414
C46   C     C_2   0.726069 0.212164 0.190598 0.710796
H48   H     H_    0.622119 0.254460 0.181956 -0.015782
O27   O     O_2   0.727471 0.126876 0.156953 -0.573825
C47   C     C_2   0.012959 0.642930 0.714158 0.946548
O28   O     O_2   0.941978 0.570291 0.673233 -0.574169
O29   O     O_R   0.998774 0.644484 0.786407 -0.808034
H49   H     H_    0.923342 0.581898 0.798645 0.355880
C48   C     C_2   0.597101 0.165553 0.826824 1.257620
O30   O     O_2   0.631070 0.079025 0.805750 -0.592826
O31   O     O_R   0.712642 0.234831 0.871953 -0.750414
H50   H     H_    0.674629 0.305052 0.886077 0.309287
C49   C     C_2   0.927247 0.890757 0.317880 0.479713
H51   H     H_    0.859053 0.956899 0.324808 -0.030524
O32   O     O_2   0.017034 0.870762 0.367290 -0.495537
C50   C     C_2   0.303786 0.107802 0.820191 0.572749
H52   H     H_    0.286973 0.032233 0.788672 0.065704
O33   O     O_2   0.220167 0.120996 0.868462 -0.573903
C51   C     C_2   0.562656 0.573405 0.835530 1.037760
O34   O     O_2   0.653365 0.527684 0.872179 -0.648614
O35   O     O_R   0.611358 0.677862 0.822484 -0.756318
H53   H     H_    0.724038 0.706919 0.845970 0.345478
C52   C     C_2   0.675454 0.544866 0.368953 1.119952
O36   O     O_2   0.747366 0.477190 0.392342 -0.611392
O37   O     O_R   0.645421 0.628269 0.412869 -0.789777
H54   H     H_    0.637595 0.605794 0.461552 0.339203

loop_
_geom_bond_atom_site_label_1
_geom_bond_atom_site_label_2
_geom_bond_distance
_ccdc_geom_bond_type
P7    O22   1.751643 S    
C19   C20   1.400340 A    
C25   C26   1.403841 A    
P7    C41   1.859275 S    
C19   C23   1.418344 A    
P2    O7    1.516980 D    
C14   H29   1.104495 S    
C36   H42   1.081448 S    
C39   C40   1.398502 A    
O6    C10   1.409625 S    
C33   C38   1.404140 A    
C31   H45   1.083113 S    
C42   C43   1.427384 A    
C9    H17   1.105303 S    
Ba1   O16   2.769512 S    
C5    H8    1.111074 S    
C29   C30   1.413609 A    
O1    Ba1   2.878765 S    
O7    Ba1   2.829012 S    
C8    H14   1.104721 S    
C49   O32   1.218870 D    
P3    C32   1.854580 S    
C6    H10   1.103998 S    
C11   O22   1.401666 S    
C18   C20   1.381081 A    
C34   C35   1.406711 A    
C50   H52   1.080017 S    
C36   C37   1.402092 A    
C2    H3    1.111170 S    
C4    C5    1.530351 S    
O2    Ba1   2.936853 S    
C12   H24   1.105841 S    
C17   C25   1.396731 A    
O12   Ba2   2.879398 S    
P4    Ba2   3.421315 S    
P5    O18   1.546971 D    
C10   C45   1.506916 S    
C1    H1    1.111488 S    
C19   H35   1.075502 S    
P3    O11   1.751479 S    
C35   C36   1.406418 A    
C13   H27   1.111422 S    
C6    C7    1.529187 S    
P2    O20   1.550798 S    
O3    Ba1   2.842467 S    
C41   C44   1.398999 A    
P5    O17   1.737651 S    
C27   C32   1.395136 A    
O13   Ba2   2.937796 S    
C11   H21   1.108736 S    
C39   H44   1.083320 S    
C14   H30   1.109485 S    
C13   C14   1.515993 S    
Ba2   O21   2.829041 S    
C1    C10   1.530638 S    
C17   C24   1.396705 A    
C22   C26   1.413184 A    
C9    H18   1.108534 S    
C51   O35   1.396608 S    
C27   C52   1.438616 S    
C11   H22   1.109977 S    
O17   Ba2   2.763893 S    
C4    O15   1.400163 S    
O16   P7    1.755653 S    
C51   O34   1.222920 D    
P1    O5    1.759020 S    
C29   H41   1.083077 S    
C7    H13   1.111834 S    
O4    P6    1.539418 D    
C17   H37   1.081912 S    
C49   H51   1.082789 S    
C42   C51   1.483445 S    
C48   O31   1.398972 S    
C23   C24   1.440909 A    
C15   H32   1.104932 S    
C47   O28   1.214986 D    
C16   C50   1.501829 S    
O5    C6    1.394300 S    
Ba1   O13   2.868178 S    
P2    C28   1.864049 S    
P1    O2    1.603141 S    
C7    H12   1.111080 S    
C26   H36   1.077113 S    
P4    O12   1.533446 D    
C12   H23   1.108852 S    
C1    H20   1.106938 S    
P2    O10   1.749827 S    
C15   H33   1.103173 S    
H34   C16   1.110543 S    
P3    O9    1.539642 D    
P8    O24   1.761872 S    
C4    H6    1.107105 S    
C3    H4    1.111873 S    
C10   H19   1.112010 S    
P1    Ba1   3.420617 S    
O11   C2    1.406144 S    
O35   H53   1.013467 S    
C2    C49   1.504485 S    
P4    O13   1.603111 S    
C35   C43   1.494841 S    
C5    C46   1.500260 S    
C47   O29   1.399989 S    
P5    C40   1.857693 S    
P3    O8    1.775158 S    
C34   H39   1.082881 S    
C45   O25   1.224917 D    
C14   H31   1.107998 S    
C52   O37   1.363137 S    
C33   H40   1.083035 S    
C30   C38   1.484545 S    
O8    Ba1   2.763371 S    
O26   H47   1.013606 S    
C40   C44   1.398788 A    
Ba1   O20   2.936723 S    
C6    C47   1.484498 S    
C41   C42   1.418258 A    
P8    O23   1.546626 D    
C50   O33   1.220873 D    
C16   C48   1.508592 S    
C11   C12   1.518857 S    
P1    C21   1.900204 S    
C44   H46   1.082491 S    
C12   H25   1.105461 S    
O3    P6    1.771948 S    
C52   O36   1.208664 D    
C8    C9    1.519466 S    
C3    H5    1.110735 S    
C48   O30   1.220645 D    
C18   C21   1.381371 A    
O14   P8    1.755359 S    
C13   H28   1.103489 S    
Ba2   O20   2.769016 S    
O29   H49   1.010969 S    
C33   C34   1.398469 A    
C5    H9    1.112289 S    
P4    C24   1.890501 S    
C27   C28   1.395080 A    
C7    H11   1.102443 S    
C8    H15   1.110884 S    
C46   H48   1.085931 S    
C37   C38   1.405147 A    
O10   C8    1.398165 S    
P6    C20   1.857980 S    
O2    Ba2   2.868799 S    
C15   O24   1.408847 S    
C37   H43   1.083111 S    
C22   C23   1.447410 A    
Ba1   Ba2   4.563206 S    
O16   Ba2   2.935739 S    
P1    O1    1.533055 D    
O14   Ba2   2.841805 S    
P8    C25   1.852703 S    
C28   C29   1.403567 A    
P7    O21   1.569916 D    
C2    C3    1.526595 S    
C4    H7    1.098578 S    
C30   C31   1.412824 A    
C18   H38   1.058871 S    
O19   C13   1.402518 S    
O31   H50   1.012651 S    
C9    H16   1.110079 S    
C15   C16   1.544287 S    
P5    O19   1.745935 S    
O37   H54   1.006025 S    
P2    Ba1   3.407143 S    
C1    H2    1.104654 S    
C31   C32   1.399496 A    
C45   O26   1.392371 S    
C3    H26   1.108185 S    
C39   C43   1.409572 A    
O6    P6    1.754357 S    
C21   C22   1.444146 A    
P4    O15   1.770007 S    
C46   O27   1.219463 D    
