data_mof_unit_24158.cif
_audit_creation_date              2012-12-10T20:27:13-0500
_audit_creation_method            fapswitch 2.2
_symmetry_space_group_name_H-M    P1
_symmetry_Int_Tables_number       1
_space_group_crystal_system       triclinic
_cell_length_a                    10.379608
_cell_length_b                    10.662434
_cell_length_c                    9.879776
_cell_angle_alpha                 89.927975
_cell_angle_beta                  101.532901
_cell_angle_gamma                 90.034065
_cell_volume                      1071.3365717

loop_
_atom_site_label
_atom_site_type_symbol
_atom_type_description
_atom_site_fract_x
_atom_site_fract_y
_atom_site_fract_z
_atom_type_partial_charge
C1    C     C_R   0.500038 0.260549 0.500044 1.024946
C2    C     C_R   0.607821 0.536790 0.094482 -0.126531
C3    C     C_R   0.607902 0.536473 0.950739 -0.125609
C4    C     C_R   0.256836 0.497397 0.444650 1.027330
C5    C     C_R   0.396622 0.450196 0.907314 -0.005197
C6    C     C_3   0.257201 0.493436 0.874520 1.073395
C7    C     C_3   0.257735 0.494060 0.027999 0.352952
C8    C     C_R   0.498808 0.739587 0.499436 0.996093
C9    C     C_R   0.743075 0.495334 0.554995 0.859175
C10   C     C_2   0.115768 0.480021 0.419924 -0.399971
C11   C     C_2   0.067293 0.389138 0.488895 0.748649
C12   C     C_R   0.500090 0.129029 0.497519 -0.190006
C13   C     C_2   0.883599 0.473575 0.577759 0.328378
C14   C     C_2   0.929217 0.390431 0.496389 0.366775
C15   C     C_R   0.602024 0.063539 0.579903 -0.163403
C16   C     C_3   0.333828 0.875349 0.171912 -0.120309
C17   C     C_3   0.651364 0.857153 0.947144 -0.150196
C18   C     C_3   0.654995 0.207920 0.907498 -0.173180
C19   C     C_R   0.406866 0.066268 0.398415 0.553366
C20   C     C_R   0.407882 0.935559 0.394610 0.379975
C21   C     C_R   0.498876 0.871474 0.496110 -0.243896
C22   C     C_R   0.600915 0.936135 0.579683 -0.104315
C23   C     C_3   0.666242 0.927715 0.728799 0.987610
C24   C     C_3   0.668245 0.071743 0.728933 0.243390
C25   C     C_R   0.396589 0.450520 0.049841 0.022415
F1    F     F_    0.846562 0.311590 0.411802 -0.661098
F2    F     F_    0.242150 0.611506 0.814921 -0.635453
F3    F     F_    0.173845 0.404349 0.802920 -0.548022
F4    F     F_    0.176816 0.402982 0.066361 -0.563862
F5    F     F_    0.145791 0.296621 0.555399 -0.568680
F6    F     F_    0.966122 0.546720 0.669138 -0.587373
F7    F     F_    0.309986 0.130974 0.313834 -0.591923
F8    F     F_    0.789746 0.872992 0.743846 -0.669012
H1    H     H_    0.769193 0.112366 0.740807 0.108167
H2    H     H_    0.733580 0.789377 0.953470 0.186053
H3    H     H_    0.582494 0.818299 0.008842 0.152346
H4    H     H_    0.688372 0.290450 0.854791 0.178024
H5    H     H_    0.589536 0.241772 0.975656 0.199829
H6    H     H_    0.740888 0.161518 0.974061 0.156708
H7    H     H_    0.693666 0.569769 0.166386 0.164903
H8    H     H_    0.694188 0.568167 0.914963 0.184951
H9    H     H_    0.246213 0.588205 0.072154 0.065870
H10   H     H_    0.051912 0.547739 0.357059 0.112512
H11   H     H_    0.257287 0.819560 0.103341 0.196022
H12   H     H_    0.430839 0.833200 0.167272 0.119176
H13   H     H_    0.328105 0.972608 0.130503 0.216596
H14   H     H_    0.688893 0.947568 0.994761 0.159680
N1    N     N_R   0.499160 0.499140 0.142600 -0.117272
N2    N     N_R   0.499160 0.499180 0.856960 -0.105657
O1    O     O_R   0.500020 0.316790 0.614700 -0.581866
O2    O     O_3   0.582824 0.872962 0.809812 -0.578368
O3    O     O_3   0.583865 0.123914 0.810308 -0.561326
O4    O     O_R   0.500000 0.316760 0.385350 -0.568807
O5    O     O_R   0.317820 0.500020 0.571850 -0.541594
O6    O     O_R   0.317800 0.499980 0.342510 -0.585027
O7    O     O_R   0.500000 0.683240 0.614650 -0.551952
O8    O     O_R   0.499980 0.683210 0.385300 -0.640151
O9    O     O_R   0.682200 0.500020 0.657490 -0.616576
O10   O     O_R   0.682180 0.499980 0.428150 -0.617550
O11   O     O_3   0.309136 0.870972 0.307190 -0.577254
Zn1   Zn    Zn3+2 0.500010 0.500020 0.653140 1.079575
Zn2   Zn    Zn3+2 0.499990 0.499980 0.346860 1.026572

loop_
_geom_bond_atom_site_label_1
_geom_bond_atom_site_label_2
_ccdc_geom_bond_type
C16   H12   S    
C24   O3    S    
C18   H6    S    
C6    C7    S    
C7    F4    S    
O5    Zn1   S    
C13   C14   D    
C8    O8    A    
C20   O11   S    
O4    Zn2   S    
C16   H11   S    
N1    Zn2   S    
C6    F2    S    
C7    C25   S    
C12   C15   A    
C23   C24   S    
C4    O5    A    
C17   O2    S    
O9    Zn1   S    
C2    C3    A    
C3    N2    A    
C18   O3    S    
O8    Zn2   S    
C21   C22   A    
C14   F1    S    
C8    O7    A    
C25   N1    A    
C5    N2    A    
C1    C12   S    
C5    C25   A    
C19   F7    S    
C12   C19   A    
C15   C24   S    
C17   H3    S    
C18   H4    S    
C8    C21   S    
C4    O6    A    
C18   H5    S    
C5    C6    S    
C11   C14   S    
C24   H1    S    
N2    Zn1   S    
C10   C11   D    
C4    C10   S    
O6    Zn2   S    
C2    H7    S    
C20   C21   A    
C23   F8    S    
C9    O9    A    
C1    O1    A    
C7    H9    S    
C16   H13   S    
O1    Zn1   S    
C9    C13   S    
O7    Zn1   S    
C3    H8    S    
O10   Zn2   S    
C1    O4    A    
C17   H2    S    
C19   C20   A    
C2    N1    A    
C10   H10   S    
C22   C23   S    
C16   O11   S    
C23   O2    S    
C13   F6    S    
C15   C22   A    
C6    F3    S    
C17   H14   S    
C11   F5    S    
C9    O10   A    
