data_mof_unit_6064.cif
_audit_creation_date              2012-12-10T18:46:14-0500
_audit_creation_method            fapswitch 2.2
_symmetry_space_group_name_H-M    P1
_symmetry_Int_Tables_number       1
_space_group_crystal_system       triclinic
_cell_length_a                    9.8425
_cell_length_b                    10.712201
_cell_length_c                    13.140679
_cell_angle_alpha                 90.098692
_cell_angle_beta                  70.021135
_cell_angle_gamma                 90.007304
_cell_volume                      1302.10299447

loop_
_atom_site_label
_atom_site_type_symbol
_atom_type_description
_atom_site_fract_x
_atom_site_fract_y
_atom_site_fract_z
_atom_type_partial_charge
C1    C     C_R   0.499963 0.740121 0.500184 0.871806
C2    C     C_R   0.430610 0.472003 0.984538 0.086419
C3    C     C_R   0.460950 0.438795 0.875376 0.086180
C4    C     C_R   0.541357 0.457575 0.029379 0.078529
C5    C     C_R   0.669960 0.391609 0.972054 0.174060
C6    C     C_R   0.687763 0.342348 0.870206 -0.258866
C7    C     C_R   0.584494 0.365384 0.822338 -0.201948
C8    C     C_R   0.528720 0.509677 0.129059 -0.261220
C9    C     C_R   0.755505 0.417218 0.123247 -0.208721
C10   C     C_R   0.367721 0.481849 0.821823 -0.121569
C11   C     C_R   0.607251 0.936153 0.526781 -0.190964
C12   C     C_R   0.419979 0.492912 0.704101 0.860014
C13   C     C_R   0.607202 0.064083 0.526791 -0.201936
C14   C     C_R   0.499768 0.127470 0.500375 -0.011092
C15   C     C_R   0.392185 0.063885 0.474223 -0.191179
C16   C     C_R   0.392182 0.935984 0.474281 -0.198882
C17   C     C_R   0.499811 0.872568 0.500427 -0.015840
C18   C     C_R   0.960432 0.426966 0.428896 -0.089964
C19   C     C_R   0.104289 0.426947 0.428945 -0.075072
C20   C     C_R   0.039501 0.572916 0.571206 -0.084831
C21   C     C_R   0.895646 0.572928 0.571160 -0.061143
C22   C     C_R   0.499922 0.259887 0.500072 0.858441
C23   C     C_R   0.580095 0.499541 0.295687 0.875170
C24   C     C_R   0.777585 0.374141 0.018582 -0.201764
C25   C     C_R   0.628346 0.482011 0.179271 -0.059254
C26   C     C_R   0.230943 0.529519 0.881717 -0.194676
C27   C     C_R   0.191098 0.543128 0.993162 -0.149445
C28   C     C_R   0.290854 0.518157 0.044247 -0.198317
H1    H     H_    0.690122 0.113005 0.548093 0.152917
H2    H     H_    0.309214 0.112622 0.452929 0.153019
H3    H     H_    0.309174 0.887112 0.453060 0.156414
H4    H     H_    0.931818 0.368646 0.372017 0.124058
H5    H     H_    0.184626 0.368469 0.372115 0.129554
H6    H     H_    0.068101 0.631208 0.628105 0.123768
H7    H     H_    0.815293 0.631367 0.628007 0.131564
H8    H     H_    0.782718 0.287877 0.826662 0.149895
H9    H     H_    0.875664 0.323126 0.975838 0.141946
H10   H     H_    0.438435 0.568916 0.171687 0.150441
H11   H     H_    0.156557 0.559741 0.842064 0.155190
H12   H     H_    0.254592 0.532536 0.130712 0.131902
H13   H     H_    0.084791 0.578432 0.039507 0.148359
H14   H     H_    0.601622 0.323640 0.743911 0.170844
N1    N     N_R   0.142790 0.500030 0.500030 -0.076901
N2    N     N_R   0.857180 0.499940 0.500010 -0.078158
O1    O     O_R   0.385370 0.683250 0.500010 -0.623686
O2    O     O_R   0.614700 0.683220 0.500010 -0.620571
O3    O     O_R   0.328400 0.499990 0.653620 -0.612838
O4    O     O_R   0.557730 0.499960 0.653620 -0.616042
O5    O     O_R   0.385300 0.316780 0.499990 -0.621823
O6    O     O_R   0.614630 0.316750 0.499990 -0.631632
O7    O     O_R   0.442270 0.500040 0.346380 -0.617423
O8    O     O_R   0.671600 0.500010 0.346380 -0.615456
Zn1   Zn    Zn3+2 0.346870 0.500020 0.500000 0.939561
Zn2   Zn    Zn3+2 0.653130 0.499980 0.500000 0.937185
H15   H     H_    0.833636 0.394950 0.161885 0.151533
H16   H     H_    0.690229 0.887388 0.548044 0.152447

loop_
_geom_bond_atom_site_label_1
_geom_bond_atom_site_label_2
_ccdc_geom_bond_type
C2    C4    A    
C6    H8    S    
C9    C24   A    
C6    C7    A    
C21   H7    S    
C18   N2    A    
C21   N2    A    
C4    C8    A    
C27   H13   S    
C1    C17   S    
O2    Zn2   S    
C22   O6    A    
C12   O4    A    
C20   H6    S    
C10   C26   A    
C12   O3    A    
C24   H9    S    
C23   O8    A    
O1    Zn1   S    
C3    C10   A    
C13   C14   A    
C16   H3    S    
O4    Zn2   S    
C8    C25   A    
C11   C13   A    
C1    O1    A    
C26   C27   A    
O6    Zn2   S    
C5    C24   A    
C10   C12   S    
C8    H10   S    
C22   O5    A    
C9    H15   S    
O3    Zn1   S    
C13   H1    S    
C19   N1    A    
C2    C3    A    
C3    C7    A    
C23   C25   S    
C5    C6    A    
C26   H11   S    
O5    Zn1   S    
C1    O2    A    
C18   H4    S    
C28   H12   S    
C9    C25   A    
C15   C16   A    
N2    Zn2   S    
C4    C5    A    
C20   N1    A    
C20   C21   A    
C15   H2    S    
C14   C22   S    
C18   C19   A    
C19   H5    S    
C7    H14   S    
C27   C28   A    
C14   C15   A    
C11   C17   A    
C2    C28   A    
C23   O7    A    
N1    Zn1   S    
C11   H16   S    
O8    Zn2   S    
C16   C17   A    
O7    Zn1   S    
