data_mof_unit_22952.cif
_audit_creation_date              2012-10-26T19:52:25-0400
_audit_creation_method            fapswitch 2.2
_symmetry_space_group_name_H-M    P1
_symmetry_Int_Tables_number       1
_space_group_crystal_system       triclinic
_cell_length_a                    9.630272
_cell_length_b                    10.815727
_cell_length_c                    13.434757
_cell_angle_alpha                 90.11805
_cell_angle_beta                  74.147732
_cell_angle_gamma                 90.138462
_cell_volume                      1346.11922714

loop_
_atom_site_label
_atom_site_type_symbol
_atom_type_description
_atom_site_fract_x
_atom_site_fract_y
_atom_site_fract_z
_atom_type_partial_charge
C1    C     C_R   0.499423 0.737290 0.501772 0.552732
C2    C     C_R   0.381263 0.443976 0.809733 -0.020874
C3    C     C_R   0.379639 0.935813 0.493066 -0.013490
C4    C     C_R   0.424002 0.482414 0.698311 0.543104
C5    C     C_R   0.495515 0.870478 0.510232 0.018438
C6    C     C_R   0.604736 0.935854 0.539285 -0.143169
C7    C     C_R   0.604788 0.065010 0.538822 -0.145548
C8    C     C_R   0.496738 0.129369 0.507957 0.050100
C9    C     C_R   0.382491 0.062656 0.488935 0.017199
C10   C     C_3   0.311745 0.065252 0.401978 -0.053870
C11   C     C_3   0.307248 0.924451 0.408261 -0.243610
C12   C     C_R   0.441043 0.430065 0.975414 0.028820
C13   C     C_R   0.944138 0.407121 0.452663 0.148917
C14   C     C_R   0.905059 0.584633 0.555240 -0.006280
C15   C     C_R   0.053345 0.584672 0.555204 0.020101
C16   C     C_R   0.499563 0.262688 0.501118 0.583169
C17   C     C_R   0.091373 0.407875 0.451799 0.146872
C18   C     C_3   0.136685 0.379113 0.339153 -0.283239
C19   C     C_3   0.979086 0.374071 0.341149 -0.268950
C20   C     C_R   0.576395 0.499656 0.300533 0.568111
C21   C     C_R   0.800301 0.470889 0.024643 -0.115094
C22   C     C_R   0.617942 0.489446 0.187472 0.019830
C23   C     C_R   0.485358 0.428432 0.865723 0.008418
C24   C     C_R   0.234960 0.420296 0.862616 0.070651
C25   C     C_R   0.195045 0.396599 0.968823 -0.139101
C26   C     C_R   0.294530 0.409062 0.025706 -0.139273
C27   C     C_2   0.402792 0.110747 0.298034 0.561280
C28   C     C_2   0.124016 0.411770 0.807048 0.559336
C29   C     C_R   0.546786 0.447312 0.029814 0.034140
C30   C     C_R   0.694220 0.444118 0.974770 0.057800
C31   C     C_R   0.733600 0.412198 0.870722 -0.119533
C32   C     C_R   0.631243 0.403798 0.816650 -0.117848
C33   C     C_R   0.510914 0.471809 0.136197 -0.113293
C34   C     C_R   0.762995 0.492408 0.130481 -0.129341
Cu1   Cu    Cu3+1 0.359330 0.500020 0.500010 0.990618
Cu2   Cu    Cu3+1 0.640670 0.499980 0.499990 0.944816
H1    H     H_    0.691735 0.113869 0.558871 0.128788
H2    H     H_    0.911492 0.477825 0.981214 0.142455
H3    H     H_    0.400326 0.480138 0.179754 0.111651
H4    H     H_    0.255976 0.393398 0.107906 0.114668
H5    H     H_    0.668184 0.371461 0.737826 0.151319
H6    H     H_    0.692160 0.887729 0.558917 0.130526
H7    H     H_    0.847520 0.511593 0.167168 0.118760
H8    H     H_    0.416731 0.134094 0.146707 0.343733
H9    H     H_    0.195835 0.887062 0.437014 0.125108
H10   H     H_    0.843057 0.392398 0.830656 0.166773
H11   H     H_    0.037691 0.307472 0.714060 0.322122
H12   H     H_    0.202736 0.107863 0.426156 0.097375
H13   H     H_    0.086323 0.369134 0.008848 0.113515
H14   H     H_    0.375798 0.875723 0.339189 0.156900
H15   H     H_    0.833729 0.654799 0.598658 0.123819
H16   H     H_    0.091951 0.654879 0.598590 0.147232
H17   H     H_    0.192638 0.458608 0.293645 0.138224
H18   H     H_    0.191879 0.288913 0.321512 0.159973
H19   H     H_    0.949467 0.447627 0.293509 0.150857
H20   H     H_    0.941170 0.279606 0.328755 0.150297
N1    N     N_R   0.852320 0.499070 0.499340 -0.242008
N2    N     N_R   0.148230 0.499110 0.499340 -0.236172
O1    O     O_R   0.381190 0.680360 0.500000 -0.508907
O2    O     O_R   0.348561 0.099231 0.212011 -0.708365
O3    O     O_2   0.061775 0.505609 0.792497 -0.551999
O4    O     O_R   0.102325 0.299360 0.761903 -0.698029
O5    O     O_R   0.618780 0.680320 0.499990 -0.509773
O6    O     O_R   0.323230 0.500000 0.650990 -0.453662
O7    O     O_R   0.560820 0.499960 0.650980 -0.522746
O8    O     O_R   0.381220 0.319680 0.500010 -0.492086
O9    O     O_R   0.618810 0.319640 0.500000 -0.513262
O10   O     O_R   0.439180 0.500040 0.349020 -0.509346
O11   O     O_R   0.676770 0.500000 0.349010 -0.502432
O12   O     O_2   0.521575 0.157273 0.288435 -0.517245

loop_
_geom_bond_atom_site_label_1
_geom_bond_atom_site_label_2
_ccdc_geom_bond_type
C19   H20   S    
C10   C27   S    
C2    C4    S    
C32   H5    S    
C14   N1    A    
C24   C25   A    
C6    C7    A    
C3    C9    A    
C12   C29   A    
Cu2   O5    S    
C24   C28   S    
C21   C30   A    
C4    O6    A    
C31   C32   A    
Cu1   O8    S    
C13   C17   A    
C17   N2    A    
C23   C32   A    
Cu2   O7    S    
H11   O4    S    
C17   C18   S    
C7    H1    S    
Cu2   O9    S    
C7    C8    A    
C8    C16   S    
C11   H14   S    
C33   H3    S    
C15   H16   S    
C28   O3    D    
Cu1   O6    S    
C2    C24   A    
C12   C23   A    
C26   H4    S    
C29   C30   A    
C27   O12   D    
Cu1   O10   S    
H8    O2    S    
Cu1   N2    S    
C1    C5    S    
C5    C6    A    
C1    O5    A    
C20   C22   S    
Cu2   N1    S    
C27   O2    S    
C1    O1    A    
C14   H15   S    
C10   H12   S    
C4    O7    A    
C22   C34   A    
C15   N2    A    
C25   H13   S    
C20   O11   A    
C11   H9    S    
C3    C11   S    
C10   C11   S    
C13   C19   S    
C29   C33   A    
C13   N1    A    
Cu2   O11   S    
Cu1   O1    S    
C18   C19   S    
C9    C10   S    
C19   H19   S    
C2    C23   A    
C16   O9    A    
C22   C33   A    
C18   H18   S    
C30   C31   A    
C21   H2    S    
C16   O8    A    
C21   C34   A    
C18   H17   S    
C25   C26   A    
C14   C15   A    
C6    H6    S    
C20   O10   A    
C34   H7    S    
Cu1   Cu2   S    
C12   C26   A    
C8    C9    A    
C3    C5    A    
C31   H10   S    
C28   O4    S    
