data_mof_unit_67567.cif
_audit_creation_date              2012-10-26T18:48:20-0400
_audit_creation_method            fapswitch 2.2
_symmetry_space_group_name_H-M    P1
_symmetry_Int_Tables_number       1
_space_group_crystal_system       triclinic
_cell_length_a                    10.65286
_cell_length_b                    8.716128
_cell_length_c                    7.51495
_cell_angle_alpha                 102.519968
_cell_angle_beta                  95.139227
_cell_angle_gamma                 93.510663
_cell_volume                      676.106539279

loop_
_atom_site_label
_atom_site_type_symbol
_atom_type_description
_atom_site_fract_x
_atom_site_fract_y
_atom_site_fract_z
_atom_type_partial_charge
C1    C     C_R   0.493354 0.200595 0.454645 0.570220
C2    C     C_3   0.124308 0.496636 0.501071 0.034609
C3    C     C_3   0.973545 0.616202 0.639203 -0.045812
C4    C     C_3   0.026457 0.383786 0.360800 -0.045807
C5    C     C_2   0.473526 0.033648 0.434702 0.087086
C6    C     C_2   0.526477 0.966352 0.565297 0.087074
C7    C     C_1   0.943445 0.743500 0.787919 0.186240
C8    C     C_1   0.056556 0.256487 0.212085 0.186231
C9    C     C_R   0.506646 0.799405 0.545355 0.570225
C10   C     C_R   0.260139 0.497810 0.500545 0.568619
C11   C     C_R   0.739861 0.502185 0.499455 0.568617
C12   C     C_3   0.047958 0.473647 0.658989 0.085739
C13   C     C_3   0.952044 0.526341 0.341013 0.085743
C14   C     C_3   0.950899 0.361973 0.520189 0.074167
C15   C     C_3   0.049102 0.638015 0.479813 0.074166
C16   C     C_3   0.875693 0.503353 0.498930 0.034607
Cu1   Cu    Cu3+1 0.514140 0.517380 0.684380 1.028706
Cu2   Cu    Cu3+1 0.485860 0.482620 0.315620 1.028710
H1    H     H_    0.968151 0.139417 0.554879 0.243433
H2    H     H_    0.302427 0.330585 0.965288 0.251754
H3    H     H_    0.570714 0.771922 0.051897 0.222226
H4    H     H_    0.697588 0.669359 0.034827 0.251758
H5    H     H_    0.420513 0.960383 0.161430 0.228152
H6    H     H_    0.299594 0.993531 0.291885 0.246257
H7    H     H_    0.579491 0.039606 0.838567 0.228127
H8    H     H_    0.700409 0.006473 0.708107 0.246267
H9    H     H_    0.835206 0.160903 0.427872 0.233429
H10   H     H_    0.031850 0.860573 0.445127 0.243432
H11   H     H_    0.164797 0.839085 0.572128 0.233429
H12   H     H_    0.028616 0.395371 0.890777 0.251715
H13   H     H_    0.141552 0.544834 0.914483 0.245654
H14   H     H_    0.971394 0.604613 0.109225 0.251722
H15   H     H_    0.858458 0.455150 0.085515 0.245642
H16   H     H_    0.429335 0.228080 0.947945 0.222222
N1    N     N_2   0.464560 0.456420 0.038510 -0.025981
N2    N     N_3   0.607193 0.669567 0.077791 -0.426156
N3    N     N_3   0.387036 0.945484 0.283665 -0.600444
N4    N     N_3   0.612967 0.054515 0.716334 -0.600475
N5    N     N_2   0.535440 0.543580 0.961490 -0.025994
N6    N     N_3   0.894937 0.212809 0.546462 -0.599343
N7    N     N_3   0.105064 0.787180 0.453540 -0.599337
N8    N     N_3   0.102514 0.438678 0.828565 -0.603978
N9    N     N_3   0.897494 0.561307 0.171433 -0.604024
N10   N     N_1   0.919135 0.843760 0.904820 -0.283620
N11   N     N_1   0.080865 0.156226 0.095184 -0.283629
N12   N     N_3   0.392786 0.330454 0.922208 -0.426142
O1    O     O_R   0.509190 0.286130 0.619780 -0.448701
O2    O     O_R   0.490810 0.713870 0.380220 -0.448657
O3    O     O_R   0.485310 0.256770 0.308360 -0.542356
O4    O     O_R   0.514690 0.743230 0.691640 -0.542371
O5    O     O_R   0.328790 0.514640 0.655680 -0.476477
O6    O     O_R   0.671210 0.485360 0.344320 -0.476508
O7    O     O_R   0.304910 0.485280 0.344260 -0.505087
O8    O     O_R   0.695090 0.514720 0.655740 -0.505078

loop_
_geom_bond_atom_site_label_1
_geom_bond_atom_site_label_2
_ccdc_geom_bond_type
Cu1   O4    S    
C2    C4    S    
C6    N4    S    
H16   N12   S    
H13   N8    S    
C5    N3    S    
H7    N4    S    
H4    N2    S    
Cu2   N1    S    
N1    N5    D    
H9    N6    S    
C4    C8    S    
C2    C12   S    
Cu1   O5    S    
C6    C9    S    
Cu1   Cu2   S    
Cu2   O6    S    
H3    N2    S    
C7    N10   T    
C2    C15   S    
C11   O8    A    
C1    O3    A    
C1    C5    S    
C10   O5    A    
C1    O1    A    
H14   N9    S    
C12   C14   S    
H6    N3    S    
C3    C7    S    
C13   C15   S    
C4    C14   S    
C5    C6    D    
C14   C16   S    
H1    N6    S    
C11   O6    A    
C14   N6    S    
H15   N9    S    
C2    C10   S    
H10   N7    S    
C13   N9    S    
C3    C15   S    
C15   N7    S    
C9    O2    A    
C11   C16   S    
C13   C16   S    
C4    C13   S    
C10   O7    A    
Cu1   N5    S    
C8    N11   T    
H8    N4    S    
C12   N8    S    
C3    C12   S    
Cu2   O7    S    
H11   N7    S    
H5    N3    S    
N1    N12   S    
H12   N8    S    
Cu1   O8    S    
C3    C16   S    
N2    N5    S    
H2    N12   S    
C9    O4    A    
Cu1   O1    S    
Cu2   O3    S    
Cu2   O2    S    
