data_mof_unit_5873.cif
_audit_creation_date              2012-12-10T18:35:17-0500
_audit_creation_method            fapswitch 2.2
_symmetry_space_group_name_H-M    P1
_symmetry_Int_Tables_number       1
_space_group_crystal_system       triclinic
_cell_length_a                    14.953614
_cell_length_b                    15.402906
_cell_length_c                    16.807911
_cell_angle_alpha                 90.920576
_cell_angle_beta                  98.327001
_cell_angle_gamma                 98.268996
_cell_volume                      3788.02295075

loop_
_atom_site_label
_atom_site_type_symbol
_atom_type_description
_atom_site_fract_x
_atom_site_fract_y
_atom_site_fract_z
_atom_type_partial_charge
C1    C     C_R   0.557659 0.662296 0.508923 0.908220
C2    C     C_R   0.443302 0.337920 0.484845 0.872278
C3    C     C_R   0.594595 0.754421 0.501468 -0.147543
C4    C     C_R   0.411736 0.245422 0.463778 -0.133823
C5    C     C_R   0.721314 0.872477 0.502350 0.496112
C6    C     C_R   0.294648 0.119379 0.430740 0.509523
C7    C     C_R   0.688845 0.783730 0.511187 -0.268905
C8    C     C_R   0.319611 0.208839 0.452375 -0.307786
C9    C     C_R   0.533619 0.812589 0.478436 -0.170054
C10   C     C_R   0.477621 0.193258 0.452497 -0.162903
C11   C     C_R   0.563989 0.899590 0.463093 0.054126
C12   C     C_R   0.457253 0.102684 0.448087 0.042318
C13   C     C_R   0.658040 0.931599 0.483715 -0.016531
C14   C     C_R   0.363730 0.065813 0.429221 -0.019452
C15   C     C_R   0.500652 0.957384 0.439192 -0.044158
C16   C     C_R   0.527031 0.048298 0.458521 -0.034891
C17   C     C_R   0.620725 0.078648 0.491514 0.340622
C18   C     C_R   0.410214 0.926553 0.400828 0.357527
C19   C     C_R   0.685563 0.021764 0.494334 -0.211890
C20   C     C_R   0.341735 0.978362 0.402255 -0.208367
C21   C     C_R   0.175437 0.636788 0.372088 0.330504
C22   C     C_R   0.839522 0.431203 0.658359 0.313077
C23   C     C_R   0.512081 0.498251 0.350302 0.844609
C24   C     C_R   0.486862 0.499254 0.649730 0.849590
C25   C     C_R   0.261093 0.612876 0.397658 -0.095491
C26   C     C_R   0.749324 0.423571 0.622190 -0.059500
C27   C     C_R   0.200966 0.515278 0.492462 0.502648
C28   C     C_R   0.793239 0.473602 0.498563 0.531647
C29   C     C_R   0.117856 0.550190 0.478308 -0.125004
C30   C     C_R   0.885584 0.492830 0.534364 -0.156578
C31   C     C_R   0.101901 0.603348 0.411501 -0.003935
C32   C     C_R   0.908474 0.468602 0.615400 -0.006888
C33   C     C_R   0.047709 0.528274 0.525299 0.148118
C34   C     C_R   0.956190 0.532136 0.492378 0.120192
C35   C     C_R   0.940115 0.581464 0.423029 -0.193927
C36   C     C_R   0.067919 0.513370 0.607398 -0.236545
C37   C     C_R   0.012574 0.619849 0.385428 -0.160535
C38   C     C_R   0.999548 0.483820 0.652028 -0.130243
C39   C     C_R   0.520772 0.500528 0.266380 -0.011616
C40   C     C_R   0.471857 0.481564 0.731481 -0.038791
C41   C     C_R   0.499495 0.573350 0.222870 -0.175241
C42   C     C_R   0.517443 0.418934 0.773445 -0.144369
C43   C     C_R   0.505212 0.574543 0.141316 -0.082401
C44   C     C_R   0.502723 0.400214 0.851153 -0.097046
C45   C     C_R   0.530932 0.502412 0.103799 0.161828
C46   C     C_R   0.443143 0.444699 0.887238 0.163548
C47   C     C_R   0.554256 0.430490 0.147636 -0.092110
C48   C     C_R   0.393469 0.503456 0.844221 -0.102849
C49   C     C_R   0.548946 0.429504 0.229216 -0.188061
C50   C     C_R   0.407672 0.521806 0.766064 -0.222393
C51   C     C_2   0.522650 0.497693 0.017192 0.216942
C52   C     C_2   0.450789 0.446737 0.973924 0.216262
H1    H     H_    0.477806 0.628448 0.251884 0.174482
H2    H     H_    0.565176 0.385294 0.746621 0.167655
H3    H     H_    0.997429 0.660051 0.334430 0.201026
H4    H     H_    0.019154 0.471784 0.714943 0.205505
H5    H     H_    0.695284 0.401467 0.656627 0.198038
H6    H     H_    0.318961 0.639458 0.369207 0.222181
H7    H     H_    0.873152 0.597090 0.400683 0.200048
H8    H     H_    0.136482 0.528671 0.638752 0.135602
H9    H     H_    0.371294 0.569589 0.733870 0.153444
H10   H     H_    0.562823 0.372137 0.262518 0.119427
H11   H     H_    0.572811 0.374139 0.117984 0.150436
H12   H     H_    0.348673 0.539132 0.872904 0.163009
H13   H     H_    0.542147 0.355681 0.885065 0.159091
H14   H     H_    0.486225 0.629681 0.106900 0.169869
H15   H     H_    0.756486 0.047080 0.516198 0.223913
H16   H     H_    0.272072 0.951476 0.377495 0.218168
H17   H     H_    0.544511 0.224517 0.444013 0.197612
H18   H     H_    0.461479 0.790744 0.477136 0.204650
H19   H     H_    0.267574 0.249739 0.457404 0.190715
H20   H     H_    0.737265 0.738849 0.528072 0.178565
N1    N     N_R   0.271750 0.551950 0.454510 -0.170939
N2    N     N_R   0.728250 0.448050 0.545490 -0.177636
O1    O     O_R   0.615140 0.606020 0.522930 -0.602476
O2    O     O_R   0.384860 0.393980 0.477070 -0.604067
O3    O     O_R   0.468580 0.639400 0.493740 -0.616056
O4    O     O_R   0.531420 0.360600 0.506260 -0.600708
O5    O     O_R   0.581950 0.481350 0.400520 -0.596503
O6    O     O_R   0.418050 0.518650 0.599480 -0.654275
O7    O     O_R   0.435380 0.514730 0.371330 -0.603405
O8    O     O_R   0.564620 0.485270 0.628670 -0.611567
Zn1   Zn    Zn3+2 0.597860 0.477710 0.519490 0.979676
Zn2   Zn    Zn3+2 0.402140 0.522290 0.480510 0.965466
Cl1   Cl    Cl    0.661853 0.178643 0.547055 -0.647344
Cl2   Cl    Cl    0.382117 0.829906 0.338874 -0.602445
O9    O     O_3   0.769532 0.473106 0.415983 -0.650338
C53   C     C_3   0.741073 0.385503 0.385633 0.121340
H21   H     H_    0.715103 0.388825 0.320739 0.168575
H22   H     H_    0.683422 0.352156 0.414372 0.171106
C54   C     C_3   0.819988 0.330619 0.392958 -0.398010
H23   H     H_    0.877093 0.364927 0.364414 0.243524
H24   H     H_    0.845584 0.322058 0.457346 0.236505
C55   C     C_3   0.788524 0.239702 0.352615 -0.907608
H25   H     H_    0.729586 0.205402 0.378721 0.280091
H26   H     H_    0.845090 0.199842 0.362489 0.267871
H27   H     H_    0.768232 0.245250 0.286875 0.264942
O10   O     O_3   0.195922 0.427928 0.514946 -0.619805
C56   C     C_3   0.242818 0.417640 0.592864 0.158923
H28   H     H_    0.260646 0.479581 0.630023 0.079451
H29   H     H_    0.306802 0.391896 0.587982 0.194207
C57   C     C_3   0.187256 0.348349 0.638130 -0.419462
H30   H     H_    0.220649 0.349616 0.701782 0.204112
H31   H     H_    0.117015 0.362753 0.638101 0.250797
C58   C     C_3   0.180924 0.255793 0.601924 -0.755074
H32   H     H_    0.145716 0.251893 0.538884 0.271646
H33   H     H_    0.140884 0.208421 0.637170 0.257674
H34   H     H_    0.250176 0.237052 0.603951 0.244408
Cl3   Cl    Cl    0.163604 0.708001 0.291460 -0.545247
Cl4   Cl    Cl    0.861706 0.398021 0.758347 -0.557378
Cl5   Cl    Cl    0.362252 0.386140 0.017891 -0.587391
Cl6   Cl    Cl    0.606094 0.565419 0.972542 -0.566846
O11   O     O_3   0.813919 0.902581 0.520386 -0.636515
C59   C     C_3   0.856329 0.883299 0.453738 0.049664
H35   H     H_    0.826694 0.915587 0.399197 0.145565
H36   H     H_    0.847936 0.811028 0.441327 0.143626
C60   C     C_3   0.958428 0.918060 0.472426 -0.310403
H37   H     H_    0.968110 0.990225 0.484581 0.230531
H38   H     H_    0.988647 0.886899 0.527119 0.242710
C61   C     C_3   0.008306 0.898468 0.402623 -0.885462
H39   H     H_    0.999925 0.826581 0.389619 0.270012
H40   H     H_    0.082324 0.923258 0.418714 0.296456
H41   H     H_    0.981271 0.931411 0.347868 0.260533
O12   O     O_3   0.203317 0.083029 0.417034 -0.661000
C62   C     C_3   0.160789 0.109050 0.342111 0.067444
H42   H     H_    0.132319 0.048577 0.304640 0.180498
H43   H     H_    0.207814 0.150035 0.306750 0.143987
C63   C     C_3   0.082312 0.158679 0.355461 -0.359754
H44   H     H_    0.034085 0.117313 0.388774 0.233725
H45   H     H_    0.109880 0.219882 0.392008 0.230325
C64   C     C_3   0.030699 0.182695 0.275692 -0.887649
H46   H     H_    0.077809 0.223646 0.241131 0.281025
H47   H     H_    0.976058 0.220821 0.287315 0.267853
H48   H     H_    0.998916 0.122350 0.239328 0.267792

loop_
_geom_bond_atom_site_label_1
_geom_bond_atom_site_label_2
_ccdc_geom_bond_type
C15   C18   A    
C30   C32   A    
O9    C53   S    
C27   O10   S    
C51   Cl6   S    
C29   C33   A    
C27   C29   A    
C57   H30   S    
C1    O3    A    
C6    O12   S    
N2    Zn1   S    
C4    C8    A    
C64   H48   S    
C28   N2    A    
C63   H44   S    
O2    Zn2   S    
C59   H35   S    
C39   C41   A    
C58   H33   S    
C18   Cl2   S    
C22   C32   A    
C3    C9    A    
C35   C37   A    
C3    C7    A    
C60   H38   S    
C47   H11   S    
C57   H31   S    
C23   C39   S    
C48   H12   S    
C54   H24   S    
C45   C51   S    
C15   C16   A    
C46   C52   S    
C33   C36   A    
C57   C58   S    
C35   H7    S    
C34   C35   A    
C24   O8    A    
C26   N2    A    
C24   C40   S    
C11   C15   A    
O4    Zn1   S    
C24   O6    A    
C12   C16   A    
C61   H40   S    
C16   C17   A    
C22   Cl4   S    
C62   C63   S    
C19   H15   S    
C32   C38   A    
N1    Zn2   S    
C5    C13   A    
C61   H41   S    
O6    Zn2   S    
C48   C50   A    
C41   C43   A    
C44   H13   S    
C55   H27   S    
C42   C44   A    
C44   C46   A    
C45   C47   A    
C58   H34   S    
C46   C48   A    
C30   C34   A    
C51   C52   D    
C1    O1    A    
C14   C20   A    
C9    H18   S    
C47   C49   A    
C60   C61   S    
C7    H20   S    
C5    C7    A    
C13   C19   A    
C6    C8    A    
O3    Zn2   S    
C64   H47   S    
C31   C37   A    
C1    C3    S    
C2    C4    S    
C2    O4    A    
C6    C14   A    
C21   C31   A    
C21   Cl3   S    
C56   H28   S    
C53   C54   S    
C28   O9    S    
C33   C34   A    
C55   H26   S    
C43   C45   A    
C41   H1    S    
C10   C12   A    
C39   C49   A    
C12   C14   A    
O8    Zn1   S    
C9    C11   A    
C62   H42   S    
C17   Cl1   S    
C25   H6    S    
C4    C10   A    
C64   H46   S    
C63   C64   S    
C54   H23   S    
O7    Zn2   S    
C2    O2    A    
C61   H39   S    
O11   C59   S    
C21   C25   A    
C8    H19   S    
C49   H10   S    
C23   O7    A    
C5    O11   S    
C20   H16   S    
C53   H22   S    
C36   H8    S    
C63   H45   S    
C18   C20   A    
C59   H36   S    
C58   H32   S    
C52   Cl5   S    
C36   C38   A    
C28   C30   A    
C29   C31   A    
C60   H37   S    
C42   H2    S    
C54   C55   S    
O5    Zn1   S    
C11   C13   A    
O1    Zn1   S    
C43   H14   S    
C40   C50   A    
C40   C42   A    
C17   C19   A    
C25   N1    A    
C55   H25   S    
C26   H5    S    
C59   C60   S    
C37   H3    S    
C10   H17   S    
C56   C57   S    
C38   H4    S    
C53   H21   S    
O10   C56   S    
C22   C26   A    
C62   H43   S    
C50   H9    S    
C23   O5    A    
C27   N1    A    
C56   H29   S    
O12   C62   S    
