data_mof_unit_55439.cif
_audit_creation_date              2012-10-26T19:24:20-0400
_audit_creation_method            fapswitch 2.2
_symmetry_space_group_name_H-M    P1
_symmetry_Int_Tables_number       1
_space_group_crystal_system       triclinic
_cell_length_a                    27.80516
_cell_length_b                    10.874127
_cell_length_c                    9.592931
_cell_angle_alpha                 90.704235
_cell_angle_beta                  90.007079
_cell_angle_gamma                 93.886267
_cell_volume                      2893.59887543

loop_
_atom_site_label
_atom_site_type_symbol
_atom_type_description
_atom_site_fract_x
_atom_site_fract_y
_atom_site_fract_z
_atom_type_partial_charge
C1    C     C_R   0.503765 0.263299 0.499643 0.565511
C2    C     C_R   0.971355 0.390192 0.472681 0.021188
C3    C     C_R   0.977453 0.611005 0.538967 0.021098
C4    C     C_R   0.407501 0.499590 0.499964 0.552388
C5    C     C_R   0.949150 0.501019 0.505060 -0.014507
C6    C     C_R   0.941414 0.279571 0.458248 0.350862
C7    C     C_R   0.891469 0.281801 0.458828 -0.056331
C8    C     C_R   0.869407 0.392203 0.478853 -0.035706
C9    C     C_R   0.898081 0.501764 0.504532 -0.045858
C10   C     C_R   0.875564 0.611993 0.530314 0.034586
C11   C     C_R   0.825039 0.610781 0.528153 0.404221
C12   C     C_R   0.278780 0.499669 0.626205 -0.050602
C13   C     C_R   0.818993 0.394999 0.477957 0.403340
C14   C     C_R   0.721354 0.514437 0.626928 -0.055565
C15   C     C_R   0.671183 0.513251 0.626679 -0.149895
C16   C     C_R   0.497684 0.737497 0.502002 0.570101
C17   C     C_R   0.670923 0.492170 0.374492 -0.120173
C18   C     C_R   0.721094 0.492772 0.375158 -0.056612
C19   C     C_R   0.746422 0.503837 0.501306 0.242181
C20   C     C_R   0.022376 0.394002 0.459050 0.030586
C21   C     C_R   0.050612 0.501033 0.503425 0.025764
C22   C     C_R   0.028327 0.608220 0.548249 0.019180
C23   C     C_R   0.253530 0.500433 0.499913 0.237820
C24   C     C_R   0.046319 0.296272 0.397803 -0.092808
C25   C     C_R   0.107818 0.706880 0.603066 -0.103153
C26   C     C_R   0.953748 0.720579 0.561521 -0.123929
C27   C     C_R   0.903814 0.720843 0.557040 -0.094736
C28   C     C_R   0.592489 0.500453 0.500100 0.566971
C29   C     C_R   0.057907 0.709180 0.600966 -0.132535
C30   C     C_R   0.536334 0.127991 0.747762 -0.089128
C31   C     C_R   0.533222 0.071807 0.877381 -0.086684
C32   C     C_R   0.509796 0.955655 0.889222 -0.091265
C33   C     C_R   0.494040 0.890674 0.769714 -0.087477
C34   C     C_R   0.101713 0.501248 0.501705 -0.027044
C35   C     C_R   0.501849 0.941200 0.635095 0.006768
C36   C     C_R   0.515964 0.067842 0.627454 -0.023878
C37   C     C_R   0.508537 0.129790 0.500537 -0.005037
C38   C     C_R   0.499355 0.061011 0.377337 0.358625
C39   C     C_R   0.495420 0.933887 0.380935 -0.092996
C40   C     C_R   0.174956 0.400320 0.449078 0.404122
C41   C     C_R   0.496330 0.872111 0.507929 -0.057551
C42   C     C_R   0.567314 0.670252 0.139513 0.388287
C43   C     C_R   0.598381 0.747901 0.062025 -0.103162
C44   C     C_R   0.597105 0.744489 0.919696 -0.238477
C45   C     C_R   0.124423 0.398698 0.448813 0.023598
C46   C     C_R   0.564524 0.663313 0.852462 -0.106763
C47   C     C_R   0.531999 0.581079 0.924737 0.069268
C48   C     C_R   0.532533 0.582378 0.074856 0.082234
C49   C     C_R   0.469665 0.422581 0.072744 0.489740
C50   C     C_R   0.469742 0.422719 0.924973 0.025863
C51   C     C_R   0.180616 0.602062 0.550651 0.401032
C52   C     C_R   0.278805 0.500782 0.373621 -0.051603
C53   C     C_R   0.328949 0.500389 0.373474 -0.123622
C54   C     C_R   0.328922 0.499329 0.626374 -0.136989
C55   C     C_R   0.096331 0.297968 0.394543 -0.120314
C56   C     C_R   0.130184 0.604247 0.552164 0.026306
C57   C     C_R   0.354503 0.499724 0.499932 0.007182
C58   C     C_R   0.645484 0.501905 0.500390 0.015575
Cu1   Cu    Cu3+1 0.500000 0.499990 0.640660 0.925698
Cu2   Cu    Cu3+1 0.500000 0.500010 0.359340 1.128549
F1    F     F_    0.494281 0.115813 0.252209 -0.598631
F2    F     F_    0.438431 0.342890 0.140210 -0.579343
F3    F     F_    0.574601 0.689730 0.275777 -0.622916
F4    F     F_    0.959250 0.166586 0.455845 -0.654737
H1    H     H_    0.347581 0.498693 0.725434 0.138565
H2    H     H_    0.547682 0.120020 0.969186 0.162359
H3    H     H_    0.259466 0.498995 0.724238 0.138871
H4    H     H_    0.504692 0.914574 0.990874 0.141641
H5    H     H_    0.474167 0.803634 0.786661 0.155510
H6    H     H_    0.490681 0.883745 0.283033 0.161579
H7    H     H_    0.623976 0.812662 0.114041 0.167055
H8    H     H_    0.621328 0.806146 0.860514 0.148077
H9    H     H_    0.566466 0.670773 0.742948 0.212636
H10   H     H_    0.444924 0.359254 0.868668 0.151191
H11   H     H_    0.112899 0.220083 0.347867 0.172726
H12   H     H_    0.259535 0.501761 0.275583 0.139092
H13   H     H_    0.652602 0.521367 0.725244 0.133054
H14   H     H_    0.740803 0.522882 0.724757 0.131992
H15   H     H_    0.870048 0.195394 0.446096 0.197123
H16   H     H_    0.027341 0.219400 0.345469 0.205968
H17   H     H_    0.347636 0.500753 0.274424 0.159551
H18   H     H_    0.128855 0.786562 0.644489 0.174658
H19   H     H_    0.972896 0.808852 0.579350 0.138097
H20   H     H_    0.652113 0.483536 0.275614 0.143913
H21   H     H_    0.887420 0.807220 0.574982 0.182024
H22   H     H_    0.740356 0.484747 0.277721 0.130875
H23   H     H_    0.043484 0.790594 0.644843 0.123590
H24   H     H_    0.555510 0.217681 0.742911 0.146036
N1    N     N_R   0.201922 0.500907 0.499963 -0.398887
N2    N     N_R   0.797951 0.503311 0.502022 -0.394887
N3    N     N_R   0.500460 0.501210 0.147910 -0.239538
N4    N     N_R   0.500480 0.501290 0.852040 -0.291487
O1    O     O_R   0.500000 0.319640 0.618810 -0.533151
O2    O     O_R   0.569730 0.499970 0.618800 -0.545685
O3    O     O_R   0.569740 0.499990 0.381230 -0.438091
O4    O     O_2   0.196976 0.301723 0.400157 -0.480427
O5    O     O_2   0.791180 0.290265 0.454156 -0.485529
O6    O     O_2   0.208176 0.700661 0.598204 -0.485450
O7    O     O_2   0.803126 0.716114 0.551408 -0.483285
O8    O     O_R   0.500000 0.319660 0.381240 -0.381308
O9    O     O_R   0.430260 0.500010 0.618770 -0.516352
O10   O     O_R   0.430270 0.500030 0.381200 -0.463788
O11   O     O_R   0.500000 0.680340 0.618760 -0.545484
O12   O     O_R   0.500000 0.680360 0.381190 -0.441452

loop_
_geom_bond_atom_site_label_1
_geom_bond_atom_site_label_2
_ccdc_geom_bond_type
C10   C27   A    
C31   H2    S    
C34   C56   A    
C8    C13   A    
C22   C29   A    
C13   N2    A    
C47   N4    A    
C35   C36   A    
C25   C56   A    
C7    C8    A    
C39   C41   A    
C54   H1    S    
C15   H13   S    
C24   C55   A    
C12   C23   A    
C26   C27   A    
C18   H22   S    
C28   O3    A    
C11   O7    S    
C36   C37   A    
C49   N3    A    
C18   C19   A    
C50   H10   S    
C30   C31   A    
C26   H19   S    
C28   O2    A    
C51   C56   A    
C6    F4    S    
C27   H21   S    
C16   O12   A    
C47   C48   A    
C44   C46   A    
C8    C9    A    
C48   N3    A    
C4    O10   A    
C4    C57   S    
C23   N1    S    
Cu1   O2    S    
C40   N1    A    
C9    C10   A    
C33   H5    S    
C17   C58   A    
C32   H4    S    
C38   F1    S    
C55   H11   S    
C51   O6    S    
Cu1   Cu2   S    
C21   C22   A    
C2    C6    A    
C40   O4    S    
Cu2   O10   S    
C1    O8    A    
C24   H16   S    
C25   C29   A    
C40   C45   A    
C12   H3    S    
C2    C20   A    
Cu1   O9    S    
C20   C24   A    
C53   C57   A    
C21   C34   A    
C3    C5    A    
Cu2   O8    S    
C43   C44   A    
C5    C9    A    
C37   C38   A    
C16   O11   A    
C31   C32   A    
C4    O9    A    
C17   C18   A    
C34   C45   A    
C42   C48   A    
C50   N4    A    
C25   H18   S    
C15   C58   A    
C2    C5    A    
C42   C43   A    
C30   H24   S    
C52   C53   A    
C7    H15   S    
Cu2   N3    S    
C46   C47   A    
C43   H7    S    
C49   F2    S    
C14   C19   A    
C3    C26   A    
C52   H12   S    
C6    C7    A    
C28   C58   S    
C30   C36   A    
C17   H20   S    
Cu1   O11   S    
C32   C33   A    
C19   N2    S    
C51   N1    A    
C11   N2    A    
C23   C52   A    
C38   C39   A    
C16   C41   S    
C33   C35   A    
C39   H6    S    
C44   H8    S    
Cu1   N4    S    
C14   H14   S    
C13   O5    S    
C35   C41   A    
C53   H17   S    
C29   H23   S    
C10   C11   A    
Cu2   O3    S    
C20   C21   A    
C45   C55   A    
C1    O1    A    
C49   C50   A    
C14   C15   A    
C3    C22   A    
Cu1   O1    S    
Cu2   O12   S    
C42   F3    S    
C46   H9    S    
C12   C54   A    
C1    C37   S    
C54   C57   A    
