data_mof_unit_5017.cif
_audit_creation_date              2013-03-05T16:11:54-0500
_audit_creation_method            fapswitch 2.2
_symmetry_space_group_name_H-M    P1
_symmetry_Int_Tables_number       1
_space_group_crystal_system       triclinic
_cell_length_a                    15.741748
_cell_length_b                    10.655109
_cell_length_c                    9.851086
_cell_angle_alpha                 90.233386
_cell_angle_beta                  90.127625
_cell_angle_gamma                 90.578545
_cell_volume                      1652.22086277

loop_
_atom_site_label
_atom_site_type_symbol
_atom_site_description
_atom_site_fract_x
_atom_site_fract_y
_atom_site_fract_z
_atom_type_partial_charge
O1    O     O_R   0.499990 0.316750 0.614620 -0.617001
O2    O     O_R   0.500010 0.683250 0.385380 -0.617001
O3    O     O_R   0.500000 0.316780 0.385290 -0.587236
O4    O     O_R   0.500000 0.683220 0.614710 -0.587235
C1    C     C_R   0.498524 0.260349 0.499679 1.024908
C2    C     C_R   0.501476 0.739651 0.500321 1.024909
O5    O     O_R   0.376780 0.499970 0.614640 -0.578803
O6    O     O_R   0.623220 0.500030 0.385360 -0.578803
O7    O     O_R   0.376780 0.500000 0.385310 -0.634034
O8    O     O_R   0.623220 0.500000 0.614690 -0.634034
C3    C     C_R   0.337989 0.500197 0.499835 0.920480
C4    C     C_R   0.662011 0.499803 0.500165 0.920482
Zn1   Zn    Zn3+2 0.500000 0.499980 0.653120 1.024660
Zn2   Zn    Zn3+2 0.500000 0.500020 0.346880 1.024659
C5    C     C_3   0.970132 0.386202 0.528455 0.487708
C6    C     C_3   0.029868 0.613797 0.471545 0.487707
C7    C     C_3   0.027240 0.415999 0.404077 -0.412560
C8    C     C_3   0.972760 0.584001 0.595923 -0.412560
H1    H     H_    0.050482 0.349415 0.325918 0.211567
H2    H     H_    0.949518 0.650585 0.674082 0.211567
C9    C     C_1   0.249313 0.499111 0.499585 -0.096089
C10   C     C_1   0.750686 0.500889 0.500415 -0.096089
C11   C     C_3   0.026553 0.466272 0.622046 0.246082
C12   C     C_3   0.973447 0.533727 0.377954 0.246083
C13   C     C_3   0.083529 0.497353 0.500182 -0.100930
C14   C     C_3   0.916471 0.502646 0.499818 -0.100930
C15   C     C_1   0.174193 0.498055 0.499756 0.138046
C16   C     C_1   0.825807 0.501944 0.500244 0.138045
C17   C     C_R   0.436366 0.062815 0.574640 0.167869
C18   C     C_R   0.563636 0.937186 0.425363 0.167869
C19   C     C_R   0.437829 0.932934 0.573652 0.404736
C20   C     C_R   0.562172 0.067066 0.426351 0.404738
C21   C     C_R   0.502044 0.872041 0.501100 -0.387238
C22   C     C_R   0.497957 0.127959 0.498901 -0.387239
C23   C     C_R   0.551567 0.580493 0.072431 -0.016634
C24   C     C_R   0.448433 0.419507 0.927569 -0.016633
H3    H     H_    0.592827 0.644840 0.127280 0.187547
H4    H     H_    0.407173 0.355160 0.872720 0.187549
C25   C     C_R   0.551536 0.580470 0.928602 -0.028685
C26   C     C_R   0.448464 0.419530 0.071398 -0.028685
H5    H     H_    0.592763 0.644829 0.874574 0.154417
H6    H     H_    0.407237 0.355171 0.125426 0.154417
N1    N     N_R   0.499980 0.499970 0.857200 -0.103160
N2    N     N_R   0.500020 0.500030 0.142800 -0.103159
O9    O     O_3   0.932202 0.270205 0.563243 -0.587505
C27   C     C_3   0.993610 0.175195 0.557323 -0.213330
H7    H     H_    0.050337 0.198273 0.620590 0.199196
H8    H     H_    0.012643 0.156540 0.450622 0.149609
H9    H     H_    0.965122 0.087445 0.597832 0.185215
O10   O     O_3   0.067798 0.729794 0.436757 -0.587504
C28   C     C_3   0.006390 0.824804 0.442677 -0.213330
H10   H     H_    0.987357 0.843459 0.549378 0.149609
H11   H     H_    0.949663 0.801726 0.379410 0.199196
H12   H     H_    0.034877 0.912554 0.402168 0.185215
N3    N     N_R   0.945030 0.572909 0.243890 0.233987
O11   O     O_R   0.000656 0.596973 0.149914 -0.296108
O12   O     O_R   0.864528 0.583878 0.217147 -0.353486
N4    N     N_R   0.054970 0.427090 0.756110 0.233987
O13   O     O_R   0.999344 0.403026 0.850086 -0.296108
O14   O     O_R   0.135471 0.416122 0.782853 -0.353486
N5    N     N_R   0.370984 0.127350 0.648216 0.227597
O15   O     O_R   0.325756 0.212502 0.588459 -0.426088
O16   O     O_R   0.350929 0.092691 0.770628 -0.320549
N6    N     N_R   0.629018 0.872649 0.351789 0.227596
O17   O     O_R   0.674244 0.787496 0.411547 -0.426090
O18   O     O_R   0.649076 0.907312 0.229379 -0.320546
O19   O     O_3   0.376798 0.864838 0.643908 -0.551758
C29   C     C_3   0.306288 0.844171 0.557643 -0.156131
H13   H     H_    0.258404 0.786938 0.612823 0.203264
H14   H     H_    0.324265 0.790946 0.464774 0.115851
H15   H     H_    0.275753 0.934049 0.529161 0.184580
O20   O     O_3   0.623204 0.135163 0.356096 -0.551757
C30   C     C_3   0.693713 0.155830 0.442362 -0.156135
H16   H     H_    0.675734 0.209050 0.535234 0.115851
H17   H     H_    0.741596 0.213068 0.387186 0.203263
H18   H     H_    0.724250 0.065952 0.470840 0.184585

loop_
_geom_bond_atom_site_label_1
_geom_bond_atom_site_label_2
_geom_bond_distance
_ccdc_geom_bond_type
C11   N4    1.457467 S    
N3    O11   1.300217 A    
C18   N6    1.439105 S    
C30   H16   1.113034 S    
C8    C14   1.551427 S    
C25   H5    1.081773 S    
O9    C27   1.407914 S    
C12   N3    1.457466 S    
O5    C3    1.284105 A    
C27   H9    1.109011 S    
O1    C1    1.279776 A    
C23   H3    1.081808 S    
C6    O10   1.411035 S    
N4    O14   1.300273 A    
C4    C10   1.395832 S    
O4    Zn1   1.990282 S    
N5    O16   1.301230 A    
C29   H13   1.109407 S    
C19   C21   1.402249 A    
C5    C11   1.530157 S    
C9    C15   1.182479 T    
C6    C12   1.530157 S    
C10   C16   1.182481 T    
C30   H17   1.109409 S    
O2    C2    1.279779 A    
C17   N5    1.439104 S    
C27   H8    1.111321 S    
C7    C12   1.542709 S    
C28   H10   1.111321 S    
C24   C26   1.416876 A    
O4    C2    1.279544 A    
C5    C14   1.534759 S    
C25   N1    1.366609 A    
N4    O13   1.300217 A    
C17   C22   1.404408 A    
C3    C9    1.395834 S    
O19   C29   1.411380 S    
C28   H11   1.112726 S    
C20   C22   1.402248 A    
C23   C25   1.416876 A    
O7    Zn2   1.977124 S    
C8    C11   1.542709 S    
O5    Zn1   1.975563 S    
O6    C4    1.284105 A    
C1    C22   1.410560 S    
O10   C28   1.407915 S    
C23   N2    1.366495 A    
O7    C3    1.284047 A    
O3    Zn2   1.990282 S    
O8    C4    1.284047 A    
C29   H14   1.113034 S    
N3    O12   1.300273 A    
C30   H18   1.112552 S    
O1    Zn1   1.987314 S    
C5    O9    1.411035 S    
Zn1   N1    2.010411 S    
Zn2   N2    2.010411 S    
C6    C13   1.534759 S    
C5    C7    1.553226 S    
C27   H7    1.112727 S    
O6    Zn2   1.975560 S    
C18   C21   1.404405 A    
C12   C14   1.535355 S    
O20   C30   1.411382 S    
O3    C1    1.279545 A    
O8    Zn1   1.977123 S    
C13   C15   1.427170 S    
C14   C16   1.427170 S    
C2    C21   1.410563 S    
C28   H12   1.109009 S    
C7    C13   1.551427 S    
N6    O17   1.300830 A    
C24   H4    1.081807 S    
C17   C19   1.384310 A    
C18   C20   1.384311 A    
C29   H15   1.112551 S    
C26   H6    1.081772 S    
C7    H1    1.109988 S    
C8    H2    1.109988 S    
C11   C13   1.535355 S    
N5    O15   1.300832 A    
O2    Zn2   1.987313 S    
C19   O19   1.386160 S    
C26   N2    1.366609 A    
C6    C8    1.553225 S    
C24   N1    1.366494 A    
N6    O18   1.301233 A    
C20   O20   1.386160 S    
