data_mof_unit_44818.cif
_audit_creation_date              2012-12-10T17:32:13-0500
_audit_creation_method            fapswitch 2.2
_symmetry_space_group_name_H-M    P1
_symmetry_Int_Tables_number       1
_space_group_crystal_system       triclinic
_cell_length_a                    12.316613
_cell_length_b                    13.105785
_cell_length_c                    14.991815
_cell_angle_alpha                 78.514403
_cell_angle_beta                  100.96765
_cell_angle_gamma                 116.434463
_cell_volume                      2109.26274021

loop_
_atom_site_label
_atom_site_type_symbol
_atom_type_description
_atom_site_fract_x
_atom_site_fract_y
_atom_site_fract_z
_atom_type_partial_charge
C1    C     C_R   0.855011 0.286434 0.505398 0.780386
C2    C     C_R   0.023684 0.603780 0.079420 0.054414
C3    C     C_R   0.963153 0.298461 0.076886 -0.182498
C4    C     C_R   0.959340 0.296110 0.983689 0.391774
C5    C     C_R   0.978771 0.396999 0.921301 0.032396
C6    C     C_R   0.002165 0.500141 0.953746 0.022879
C7    C     C_R   0.024684 0.602426 0.892507 0.102894
C8    C     C_R   0.046285 0.703754 0.924605 -0.174238
C9    C     C_R   0.044929 0.705115 0.017187 0.161257
C10   C     C_R   0.975573 0.398015 0.827301 -0.125939
C11   C     C_R   0.998672 0.499773 0.767367 -0.059024
C12   C     C_R   0.999381 0.499976 0.670867 0.817867
C13   C     C_R   0.025521 0.601914 0.799831 -0.142785
C14   C     C_R   0.271974 0.029131 0.396981 -0.145001
C15   C     C_R   0.227593 0.838445 0.478917 -0.187512
C16   C     C_R   0.818585 0.080610 0.539085 -0.128356
C17   C     C_R   0.740995 0.964139 0.543969 -0.078936
C18   C     C_R   0.616077 0.928564 0.518894 -0.117841
C19   C     C_R   0.566892 0.009689 0.486948 0.110197
C20   C     C_R   0.648892 0.125673 0.464887 0.019855
C21   C     C_R   0.439310 0.978394 0.470149 -0.016495
C22   C     C_R   0.397140 0.057350 0.413229 -0.035822
C23   C     C_R   0.145115 0.714370 0.490502 0.853119
C24   C     C_R   0.481247 0.164830 0.376292 0.384868
C25   C     C_R   0.605103 0.198564 0.403031 -0.221265
C26   C     C_R   0.352308 0.873605 0.510736 0.064227
C27   C     C_R   0.187449 0.921419 0.429542 0.370437
C28   C     C_R   0.773489 0.163217 0.501513 -0.096792
C29   C     C_R   0.372192 0.362798 0.663298 0.333773
C30   C     C_R   0.736532 0.608831 0.358472 0.554334
C31   C     C_R   0.620601 0.594503 0.316802 -0.259706
C32   C     C_R   0.521278 0.540666 0.366384 0.378567
C33   C     C_R   0.541706 0.515840 0.462671 -0.094556
C34   C     C_R   0.000972 0.500172 0.329265 0.799041
C35   C     C_R   0.662361 0.528455 0.501811 0.052970
C36   C     C_R   0.449049 0.477741 0.522256 -0.095793
C37   C     C_R   0.472467 0.431266 0.613497 -0.103576
C38   C     C_R   0.595954 0.463665 0.652457 0.364233
C39   C     C_R   0.689170 0.527640 0.596302 0.148421
C40   C     C_R   0.338120 0.490928 0.498307 0.084479
C41   C     C_R   0.258126 0.365432 0.630538 0.276832
C42   C     C_R   0.021853 0.601571 0.172805 -0.150743
C43   C     C_R   0.003428 0.500860 0.233167 -0.048004
C44   C     C_R   0.986529 0.400801 0.202095 -0.149140
C45   C     C_R   0.984541 0.399719 0.109042 0.060947
C46   C     C_R   0.003500 0.501283 0.047383 0.042112
Cu1   Cu    Cu3+1 0.098270 0.475420 0.521130 1.011322
Cu2   Cu    Cu3+1 0.901730 0.524580 0.478870 1.047906
H1    H     H_    0.036472 0.677697 0.200017 0.195039
H2    H     H_    0.238341 0.090723 0.359098 0.233063
H3    H     H_    0.914161 0.105649 0.563725 0.190061
H4    H     H_    0.559200 0.837348 0.521578 0.161958
H5    H     H_    0.777497 0.901274 0.569354 0.191034
H6    H     H_    0.666516 0.280436 0.370787 0.194632
H7    H     H_    0.972222 0.323446 0.250228 0.146742
H8    H     H_    0.327189 0.549335 0.439505 0.189842
H9    H     H_    0.607510 0.623970 0.244430 0.225194
H10   H     H_    0.948586 0.220593 0.124296 0.197528
H11   H     H_    0.954630 0.320290 0.799719 0.195494
H12   H     H_    0.048139 0.681038 0.752935 0.160578
H13   H     H_    0.063234 0.782096 0.877387 0.187170
N1    N     N_R   0.246280 0.438190 0.553160 -0.238826
N2    N     N_R   0.754320 0.561190 0.447410 -0.215525
O1    O     O_R   0.972510 0.318130 0.526570 -0.569664
O2    O     O_R   0.806530 0.359650 0.490890 -0.587178
O3    O     O_R   0.082980 0.479210 0.647590 -0.556540
O4    O     O_R   0.917000 0.520730 0.611900 -0.560141
O5    O     O_R   0.193470 0.640350 0.509110 -0.581045
O6    O     O_R   0.027490 0.681870 0.473430 -0.491717
O7    O     O_R   0.083000 0.479270 0.388100 -0.570295
O8    O     O_R   0.917020 0.520790 0.352410 -0.548902
Cl1   Cl    Cl    0.436353 0.261657 0.296693 -0.527004
I1    I     I_    0.393901 0.793080 0.644667 -0.263047
I2    I     I_    0.107774 0.253002 0.705234 -0.155160
Cl2   Cl    Cl    0.639694 0.455405 0.772158 -0.459412
Cl3   Cl    Cl    0.383185 0.261920 0.758553 -0.430692
Cl4   Cl    Cl    0.856586 0.699053 0.292894 -0.507263
Cl5   Cl    Cl    0.376494 0.500508 0.301102 -0.545095
I3    I     I_    0.823768 0.687389 0.637914 -0.252991
Cl6   Cl    Cl    0.931264 0.164894 0.948795 -0.497763
I4    I     I_    0.076357 0.864340 0.056203 -0.110334
Cl7   Cl    Cl    0.034450 0.901691 0.414579 -0.507227

loop_
_geom_bond_atom_site_label_1
_geom_bond_atom_site_label_2
_ccdc_geom_bond_type
C16   C28   A    
C21   C26   A    
C23   O6    A    
C19   C20   A    
C16   H3    S    
Cu2   O6    S    
C33   C36   A    
Cu1   N1    S    
C18   H4    S    
C7    C8    A    
C13   H12   S    
C45   C46   A    
C2    C46   A    
C36   C37   A    
C19   C21   A    
C4    Cl6   S    
C5    C6    A    
C20   C25   A    
C26   I1    S    
C40   N1    A    
C18   C19   A    
C41   I2    S    
C30   Cl4   S    
C31   C32   A    
C8    C9    A    
C40   H8    S    
C1    C28   S    
C1    O2    A    
Cu2   O2    S    
C34   O7    A    
Cu1   O3    S    
C8    H13   S    
C15   C23   S    
C21   C22   A    
C41   N1    A    
C38   Cl2   S    
C38   C39   A    
C12   O4    A    
C36   C40   A    
C25   H6    S    
Cu1   O1    S    
C29   Cl3   S    
C16   C17   A    
Cu2   N2    S    
C20   C28   A    
C12   O3    A    
C3    C45   A    
C39   I3    S    
C23   O5    A    
C35   C39   A    
C43   C44   A    
Cu1   O7    S    
C37   C38   A    
C15   C27   A    
Cu1   Cu2   S    
C30   C31   A    
C17   C18   A    
C24   C25   A    
C14   C27   A    
C22   C24   A    
C42   C43   A    
Cu2   O8    S    
C3    C4    A    
C1    O1    A    
C17   H5    S    
Cu1   O5    S    
C44   C45   A    
C24   Cl1   S    
C6    C46   A    
C29   C41   A    
C27   Cl7   S    
C34   C43   S    
C4    C5    A    
C15   C26   A    
C11   C12   S    
C6    C7    A    
C32   C33   A    
C14   C22   A    
C10   H11   S    
C5    C10   A    
C11   C13   A    
C44   H7    S    
C31   H9    S    
C14   H2    S    
C2    C42   A    
C33   C35   A    
Cu2   O4    S    
C10   C11   A    
C42   H1    S    
C32   Cl5   S    
C3    H10   S    
C7    C13   A    
C29   C37   A    
C35   N2    A    
C30   N2    A    
C2    C9    A    
C34   O8    A    
C9    I4    S    
