data_mof_unit_64708.cif
_audit_creation_date              2012-10-26T18:22:26-0400
_audit_creation_method            fapswitch 2.2
_symmetry_space_group_name_H-M    P1
_symmetry_Int_Tables_number       1
_space_group_crystal_system       triclinic
_cell_length_a                    27.850574
_cell_length_b                    27.892785
_cell_length_c                    27.938248
_cell_angle_alpha                 109.456632
_cell_angle_beta                  109.599774
_cell_angle_gamma                 109.317911
_cell_volume                      16715.2176787

loop_
_atom_site_label
_atom_site_type_symbol
_atom_type_description
_atom_site_fract_x
_atom_site_fract_y
_atom_site_fract_z
_atom_type_partial_charge
C1    C     C_R   0.420475 0.420414 0.500065 0.564769
C2    C     C_R   0.206639 0.206484 0.500265 0.037238
C3    C     C_R   0.260539 0.208418 0.512264 -0.097067
C4    C     C_R   0.579812 0.500043 0.579794 0.565932
C5    C     C_R   0.303989 0.251857 0.512289 -0.089878
C6    C     C_R   0.293817 0.293643 0.500309 0.038402
C7    C     C_R   0.239929 0.291721 0.488334 -0.100999
C8    C     C_1   0.161828 0.161691 0.500189 -0.048457
C9    C     C_1   0.338551 0.338372 0.500249 -0.036900
C10   C     C_1   0.375953 0.375815 0.500168 0.004675
C11   C     C_1   0.124302 0.124209 0.500111 -0.013718
C12   C     C_3   0.759845 0.443164 0.731778 -0.177951
C13   C     C_R   0.256124 0.553089 0.251617 -0.099020
C14   C     C_R   0.205552 0.500151 0.205341 0.037955
C15   C     C_R   0.198835 0.447166 0.202935 -0.100233
C16   C     C_R   0.579572 0.579575 0.499988 0.547983
C17   C     C_R   0.242362 0.447118 0.246485 -0.100184
C18   C     C_R   0.292930 0.500056 0.292766 0.038463
C19   C     C_R   0.299652 0.553041 0.295168 -0.098500
C20   C     C_1   0.160637 0.500195 0.160449 -0.050086
C21   C     C_1   0.337807 0.500011 0.337695 -0.049147
C22   C     C_1   0.375360 0.499986 0.375299 -0.014367
C23   C     C_3   0.786683 0.497769 0.792029 -0.058694
C24   C     C_1   0.123024 0.500197 0.122883 -0.015395
C25   C     C_R   0.797315 0.797686 0.551219 -0.147944
C26   C     C_R   0.792501 0.792573 0.497942 0.019773
C27   C     C_R   0.743709 0.743529 0.444493 0.227461
C28   C     C_R   0.420106 0.499984 0.420107 0.548493
C29   C     C_R   0.700663 0.700452 0.445538 -0.086975
C30   C     C_R   0.705803 0.705907 0.498959 -0.004103
C31   C     C_R   0.754210 0.754610 0.551745 -0.109871
C32   C     C_1   0.837960 0.837954 0.499113 0.020901
C33   C     C_1   0.661341 0.661439 0.499525 -0.039918
C34   C     C_3   0.810828 0.554635 0.787498 0.103878
C35   C     C_1   0.624051 0.624126 0.499827 -0.007088
C36   C     C_1   0.875711 0.875695 0.499709 0.036110
C37   C     C_R   0.998500 0.420497 0.918920 0.550744
C38   C     C_R   0.918388 0.500060 0.918486 0.561839
C39   C     C_R   0.997985 0.579707 0.077590 0.553865
C40   C     C_3   0.712786 0.443042 0.682065 0.108209
C41   C     C_R   0.078170 0.500145 0.078126 0.547979
C42   C     C_R   0.999786 0.079572 0.579395 0.548683
C43   C     C_R   0.079605 0.079581 0.500018 0.549769
C44   C     C_R   0.000187 0.920415 0.420599 0.558914
C45   C     C_3   0.760637 0.552199 0.738585 -0.294018
C46   C     C_R   0.920409 0.920443 0.499991 0.558702
C47   C     C_R   0.051877 0.250308 0.758251 -0.099156
C48   C     C_R   0.999382 0.206430 0.705846 0.037037
C49   C     C_R   0.946702 0.206291 0.696961 -0.098483
C50   C     C_R   0.946521 0.249745 0.740197 -0.096540
C51   C     C_R   0.999016 0.293623 0.792601 0.037836
C52   C     C_3   0.686449 0.494826 0.758204 0.163477
C53   C     C_R   0.051695 0.293761 0.801488 -0.099472
C54   C     C_1   0.999565 0.161660 0.661263 -0.049215
C55   C     C_1   0.998828 0.338403 0.837167 -0.045671
C56   C     C_1   0.834651 0.499390 0.837457 0.075187
C57   C     C_1   0.998675 0.375878 0.874476 -0.008925
C58   C     C_1   0.999687 0.124190 0.623918 -0.014021
C59   C     C_R   0.012373 0.804236 0.252086 -0.098019
C60   C     C_R   0.999686 0.793629 0.293252 0.039679
C61   C     C_R   0.986528 0.739305 0.290262 -0.091137
C62   C     C_R   0.986074 0.695867 0.246392 -0.095469
C63   C     C_R   0.998760 0.706475 0.205225 0.038540
C64   C     C_3   0.736550 0.495287 0.807436 0.113824
C65   C     C_R   0.011917 0.760799 0.208216 -0.096071
C66   C     C_1   0.000020 0.838355 0.338362 -0.039374
C67   C     C_1   0.658077 0.496732 0.662146 0.038805
C68   C     C_1   0.998377 0.661742 0.160073 -0.043572
C69   C     C_1   0.998137 0.624300 0.122357 -0.006365
C70   C     C_1   0.000188 0.875808 0.375997 -0.001364
C71   C     C_1   0.873421 0.500096 0.874362 0.092878
C72   C     C_3   0.701334 0.494560 0.708412 -0.047154
C73   C     C_1   0.622828 0.498632 0.624430 0.059242
C74   C     C_R   0.196484 0.248289 0.488315 -0.098835
Cu1   Cu    Cu3+1 0.500150 0.458980 0.459120 1.008365
Cu2   Cu    Cu3+1 0.499850 0.541020 0.540880 0.998763
Cu3   Cu    Cu3+1 0.957230 0.459100 0.998270 1.001223
Cu4   Cu    Cu3+1 0.039250 0.541110 0.998230 1.013989
Cu5   Cu    Cu3+1 0.041170 0.999960 0.541120 0.983555
Cu6   Cu    Cu3+1 0.958830 0.000040 0.458870 1.014601
H1    H     H_    0.741852 0.402954 0.734241 0.213356
H2    H     H_    0.834531 0.835106 0.592501 0.126192
H3    H     H_    0.663100 0.662607 0.404843 0.161036
H4    H     H_    0.092570 0.327416 0.841787 0.120485
H5    H     H_    0.092891 0.250927 0.765672 0.121457
H6    H     H_    0.690615 0.538650 0.780080 0.087766
H7    H     H_    0.022586 0.846024 0.253895 0.120161
H8    H     H_    0.975850 0.654075 0.244574 0.124031
H9    H     H_    0.826247 0.592778 0.829983 0.123461
H10   H     H_    0.268954 0.176377 0.521571 0.125415
H11   H     H_    0.159988 0.405937 0.167436 0.118556
H12   H     H_    0.732611 0.452977 0.655557 0.143683
H13   H     H_    0.657529 0.361992 0.553606 0.340261
H14   H     H_    0.758653 0.759284 0.593326 0.133055
H15   H     H_    0.707246 0.798997 0.380233 0.337489
H16   H     H_    0.905828 0.172638 0.656661 0.123088
H17   H     H_    0.905507 0.249129 0.732773 0.126370
H18   H     H_    0.021809 0.769559 0.176677 0.123645
H19   H     H_    0.976619 0.730541 0.321792 0.129761
H20   H     H_    0.552342 0.357695 0.707074 0.372191
H21   H     H_    0.757404 0.426007 0.899145 0.375899
H22   H     H_    0.756960 0.537663 0.848182 0.096223
H23   H     H_    0.794836 0.442167 0.721532 0.176073
H24   H     H_    0.772042 0.555934 0.704915 0.197922
H25   H     H_    0.755920 0.591110 0.758111 0.107717
H26   H     H_    0.892102 0.530655 0.709442 0.382687
H27   H     H_    0.231505 0.323750 0.479009 0.117977
H28   H     H_    0.155030 0.247298 0.478979 0.120103
H29   H     H_    0.345444 0.252848 0.521617 0.138205
H30   H     H_    0.338495 0.594271 0.330672 0.120336
H31   H     H_    0.261894 0.594355 0.254035 0.120247
H32   H     H_    0.236585 0.405853 0.244074 0.118224
O1    O     O_R   0.440300 0.405520 0.465490 -0.495826
O2    O     O_R   0.965060 0.059870 0.524970 -0.502789
O3    O     O_R   0.094600 0.059810 0.534710 -0.501120
O4    O     O_R   0.440040 0.474790 0.534530 -0.495206
O5    O     O_R   0.025070 0.059880 0.465260 -0.503977
O6    O     O_R   0.034940 0.940120 0.475030 -0.501981
O7    O     O_R   0.965400 0.940190 0.405570 -0.491646
O8    O     O_R   0.974930 0.940120 0.534740 -0.509293
O9    O     O_R   0.905400 0.940180 0.465280 -0.478281
O10   O     O_R   0.560200 0.465360 0.525540 -0.494475
O11   O     O_R   0.559940 0.534640 0.594570 -0.496480
O12   O     O_R   0.033070 0.474870 0.938590 -0.498331
O13   O     O_R   0.559960 0.525210 0.465470 -0.500404
O14   O     O_R   0.559700 0.594480 0.534510 -0.505711
O15   O     O_R   0.440060 0.465360 0.405430 -0.502159
O16   O     O_R   0.439800 0.534640 0.474460 -0.504397
O17   O     O_R   0.963810 0.405620 0.938630 -0.502961
O18   O     O_2   0.641604 0.332020 0.656698 -0.158812
O19   O     O_2   0.593334 0.372419 0.604874 -0.221766
O20   O     O_3   0.659819 0.339362 0.574293 -0.492167
O21   O     O_2   0.785749 0.729162 0.371053 -0.222823
O22   O     O_2   0.678637 0.682046 0.326093 -0.260869
O23   O     O_R   0.903540 0.465480 0.938210 -0.489360
O24   O     O_3   0.738633 0.795240 0.372991 -0.483888
O25   O     O_2   0.599224 0.471565 0.784143 -0.232610
O26   O     O_2   0.568723 0.447149 0.683347 -0.267302
O27   O     O_3   0.593336 0.377773 0.715522 -0.366582
O28   O     O_2   0.668522 0.444667 0.847367 -0.182003
O29   O     O_2   0.690008 0.380571 0.784068 -0.215471
O30   O     O_3   0.771908 0.458374 0.891164 -0.543512
O31   O     O_2   0.895740 0.630148 0.781606 -0.248105
O32   O     O_2   0.922363 0.571976 0.822624 -0.270956
O33   O     O_3   0.854674 0.520915 0.709749 -0.552159
O34   O     O_R   0.972800 0.534740 0.938170 -0.485663
O35   O     O_R   0.963400 0.525340 0.057910 -0.497560
O36   O     O_R   0.032660 0.594600 0.057870 -0.501894
O37   O     O_R   0.023680 0.465480 0.058320 -0.504286
O38   O     O_R   0.092940 0.534740 0.058290 -0.503201
O39   O     O_R   0.034600 0.059810 0.594420 -0.502887
S1    S     S_3+6 0.649122 0.370471 0.629750 0.065854
S2    S     S_3+6 0.735868 0.735337 0.376251 0.035940
S3    S     S_3+6 0.610036 0.447351 0.734529 0.113345
S4    S     S_3+6 0.713975 0.441979 0.830846 0.063572
S5    S     S_3+6 0.873704 0.570761 0.776705 -0.011258

loop_
_geom_bond_atom_site_label_1
_geom_bond_atom_site_label_2
_ccdc_geom_bond_type
C25   C31   A    
C63   C65   A    
C27   S2    S    
O24   S2    S    
Cu5   O3    S    
C27   C29   A    
C18   C21   S    
Cu2   O14   S    
C42   C58   S    
C6    C9    S    
C23   C56   S    
C66   C70   T    
Cu3   Cu4   S    
C64   H22   S    
C12   C23   S    
C26   C27   A    
C29   C30   A    
H26   O33   S    
C3    H10   S    
O21   S2    D    
C32   C36   T    
C45   H24   S    
C65   H18   S    
C29   H3    S    
C16   C35   S    
C54   C58   T    
C30   C31   A    
C33   C35   T    
O22   S2    D    
C41   O37   A    
C52   S3    S    
Cu1   O10   S    
Cu5   O6    S    
C40   S1    S    
C67   C72   S    
C38   O34   A    
C43   O3    A    
Cu6   O5    S    
O33   S5    S    
C42   O2    A    
C20   C24   T    
C68   C69   T    
C39   O36   A    
O25   S3    D    
C46   O9    A    
C11   C43   S    
Cu1   O1    S    
C1    O4    A    
O30   S4    S    
H13   O20   S    
Cu4   O12   S    
C9    C10   T    
Cu3   O35   S    
C51   C55   S    
C2    C74   A    
C28   O15   A    
Cu4   O36   S    
C47   C53   A    
O26   S3    D    
Cu6   O7    S    
C60   C66   S    
C59   C60   A    
C22   C28   S    
C13   C14   A    
C45   C72   S    
C24   C41   S    
C74   H28   S    
O19   S1    D    
C61   H19   S    
C1    O1    A    
C45   H25   S    
C50   C51   A    
C7    C74   A    
Cu6   O9    S    
C2    C8    S    
C13   C19   A    
C4    O10   A    
C14   C20   S    
C12   H23   S    
C52   C64   S    
Cu3   O37   S    
C26   C32   S    
C18   C19   A    
C41   O38   A    
O27   S3    S    
C25   C26   A    
C62   H8    S    
C4    O11   A    
C60   C61   A    
Cu1   O13   S    
O32   S5    D    
C12   C40   S    
C48   C54   S    
Cu1   Cu2   S    
C62   C63   A    
C52   C72   S    
H20   O27   S    
C37   O12   A    
H21   O30   S    
C47   C48   A    
C64   S4    S    
C44   O6    A    
C23   C34   S    
Cu5   O8    S    
C17   C18   A    
C39   C69   S    
C46   O8    A    
C34   C45   S    
Cu3   O17   S    
C38   O23   A    
C40   H12   S    
C44   C70   S    
C42   O39   A    
C4    C73   S    
C43   O5    A    
C67   C73   T    
C48   C49   A    
Cu6   O2    S    
C55   C57   T    
O18   S1    D    
C25   H2    S    
Cu2   O16   S    
C7    H27   S    
C17   H32   S    
C47   H5    S    
Cu4   O38   S    
Cu5   O39   S    
C16   O13   A    
C19   H30   S    
C15   C17   A    
C38   C71   S    
C23   C64   S    
C50   H17   S    
C53   H4    S    
C40   C72   S    
C30   C33   S    
Cu2   O11   S    
O29   S4    D    
C1    C10   S    
C3    C5    A    
C6    C7    A    
C34   S5    S    
C31   H14   S    
C63   C68   S    
C44   O7    A    
C52   H6    S    
C2    C3    A    
C34   H9    S    
C13   H31   S    
C59   C65   A    
C36   C46   S    
O31   S5    D    
C5    C6    A    
C5    H29   S    
C8    C11   T    
O20   S1    S    
H15   O24   S    
Cu2   O4    S    
C37   O17   A    
C12   H1    S    
Cu1   O15   S    
C49   H16   S    
C61   C62   A    
C59   H7    S    
Cu4   O34   S    
O28   S4    D    
C15   H11   S    
Cu5   Cu6   S    
C49   C50   A    
C39   O35   A    
C14   C15   A    
Cu3   O23   S    
C51   C53   A    
C21   C22   T    
C16   O14   A    
C37   C57   S    
C28   O16   A    
C56   C71   T    
