data_mof_unit_63866.cif
_audit_creation_date              2012-12-10T17:12:03-0500
_audit_creation_method            fapswitch 2.2
_symmetry_space_group_name_H-M    P1
_symmetry_Int_Tables_number       1
_space_group_crystal_system       triclinic
_cell_length_a                    25.86485
_cell_length_b                    25.929471
_cell_length_c                    22.17603
_cell_angle_alpha                 90.010735
_cell_angle_beta                  54.408166
_cell_angle_gamma                 90.012002
_cell_volume                      12094.1704527

loop_
_atom_site_label
_atom_site_type_symbol
_atom_type_description
_atom_site_fract_x
_atom_site_fract_y
_atom_site_fract_z
_atom_type_partial_charge
C1    C     C_R   0.849428 0.750016 0.301019 0.856270
C2    C     C_R   0.849428 0.249979 0.301015 0.853576
C3    C     C_R   0.349466 0.250040 0.301008 0.856867
C4    C     C_R   0.349428 0.749983 0.301015 0.856443
C5    C     C_R   0.514435 0.709104 0.365871 0.341290
C6    C     C_R   0.514941 0.289078 0.364661 0.342253
C7    C     C_R   0.010644 0.198360 0.373962 0.335579
C8    C     C_R   0.014424 0.790990 0.365937 0.341445
C9    C     C_R   0.507282 0.729613 0.430424 -0.017017
C10   C     C_R   0.507560 0.269498 0.429765 -0.019691
C11   C     C_R   0.005258 0.224005 0.434748 -0.017404
C12   C     C_R   0.007276 0.770437 0.430459 -0.016890
C13   C     C_R   0.562415 0.732909 0.430085 0.021473
C14   C     C_R   0.562700 0.266127 0.429401 0.021740
C15   C     C_R   0.060283 0.226415 0.434780 0.022145
C16   C     C_R   0.062410 0.767135 0.430115 0.021411
C17   C     C_R   0.556057 0.747472 0.495607 -0.057084
C18   C     C_R   0.556166 0.252616 0.495372 -0.056868
C19   C     C_R   0.055653 0.247791 0.496407 -0.050808
C20   C     C_R   0.056058 0.752510 0.495605 -0.057171
C21   C     C_R   0.496942 0.759548 0.559868 -0.199441
C22   C     C_R   0.496878 0.241568 0.560042 -0.201594
C23   C     C_R   0.998228 0.266800 0.556939 -0.198295
C24   C     C_R   0.996948 0.740390 0.559846 -0.198801
C25   C     C_R   0.443422 0.759831 0.560140 0.124386
C26   C     C_R   0.443329 0.241249 0.560394 0.124826
C27   C     C_R   0.944812 0.266844 0.556926 0.122009
C28   C     C_R   0.943425 0.740124 0.560123 0.124727
C29   C     C_R   0.448043 0.745803 0.495873 -0.116962
C30   C     C_R   0.448100 0.254304 0.495743 -0.116476
C31   C     C_R   0.947866 0.246383 0.496205 -0.113171
C32   C     C_R   0.948040 0.754207 0.495884 -0.117130
C33   C     C_3   0.476566 0.781143 0.956336 -0.461824
C34   C     C_3   0.474849 0.277792 0.956220 -0.460135
C35   C     C_3   0.976893 0.281727 0.956329 -0.461289
C36   C     C_3   0.976198 0.719460 0.956326 -0.461698
C37   C     C_3   0.572434 0.769889 0.957541 -0.017481
C38   C     C_3   0.527412 0.196679 0.957344 -0.022633
C39   C     C_3   0.072603 0.269247 0.957544 -0.017897
C40   C     C_3   0.072202 0.729537 0.957532 -0.017742
C41   C     C_3   0.530323 0.767083 0.043373 -0.408472
C42   C     C_3   0.487385 0.197141 0.043164 -0.413705
C43   C     C_3   0.030453 0.266426 0.043373 -0.407429
C44   C     C_3   0.030135 0.732341 0.043365 -0.408583
C45   C     C_R   0.650519 0.750002 0.699041 0.824223
C46   C     C_R   0.650599 0.250049 0.699039 0.825155
C47   C     C_R   0.150516 0.250003 0.699040 0.824222
C48   C     C_R   0.150521 0.750003 0.699037 0.823996
C49   C     C_1   0.389023 0.749735 0.221811 -0.054125
C50   C     C_1   0.389709 0.250755 0.221797 -0.055957
C51   C     C_1   0.888986 0.249745 0.221809 -0.055625
C52   C     C_1   0.889040 0.750276 0.221815 -0.054424
C53   C     C_3   0.536242 0.747262 0.926748 0.066681
C54   C     C_3   0.540027 0.252846 0.926724 0.068391
C55   C     C_3   0.036132 0.247277 0.926745 0.065981
C56   C     C_3   0.036294 0.752793 0.926749 0.066467
C57   C     C_3   0.434592 0.783596 0.042405 0.236258
C58   C     C_3   0.429937 0.275519 0.042238 0.231524
C59   C     C_3   0.934941 0.284157 0.042401 0.235685
C60   C     C_3   0.934208 0.716972 0.042393 0.236099
C61   C     C_3   0.462442 0.747580 0.073505 0.042333
C62   C     C_3   0.465987 0.252936 0.073494 0.044071
C63   C     C_3   0.962329 0.247595 0.073502 0.040696
C64   C     C_3   0.962493 0.752467 0.073507 0.041503
C65   C     C_3   0.467155 0.691184 0.044266 0.193848
C66   C     C_3   0.526617 0.287072 0.044560 0.198756
C67   C     C_3   0.966322 0.191330 0.044259 0.192671
C68   C     C_3   0.967894 0.808981 0.044293 0.193190
C69   C     C_3   0.514060 0.691140 0.956739 -0.019857
C70   C     C_3   0.572015 0.284273 0.957000 -0.017493
C71   C     C_3   0.013233 0.191249 0.956732 -0.021095
C72   C     C_3   0.014813 0.808996 0.956766 -0.020546
C73   C     C_1   0.422126 0.749027 0.155136 0.061065
C74   C     C_1   0.423888 0.251657 0.155127 0.055623
C75   C     C_1   0.922046 0.249038 0.155134 0.060536
C76   C     C_1   0.922157 0.751002 0.155139 0.060176
C77   C     C_1   0.577476 0.748768 0.845081 0.022956
C78   C     C_1   0.579598 0.251771 0.845053 0.024963
C79   C     C_1   0.077403 0.248782 0.845079 0.021867
C80   C     C_1   0.077506 0.751279 0.845080 0.022395
C81   C     C_1   0.611007 0.749644 0.778347 -0.071882
C82   C     C_1   0.611888 0.250872 0.778332 -0.071725
C83   C     C_1   0.110974 0.249657 0.778346 -0.072610
C84   C     C_1   0.111021 0.750384 0.778345 -0.072349
C85   C     C_R   0.836737 0.946183 0.358739 -0.140081
C86   C     C_R   0.836744 0.053814 0.358743 -0.137927
C87   C     C_R   0.337149 0.446188 0.358929 -0.142593
C88   C     C_R   0.337084 0.553823 0.358918 -0.140124
C89   C     C_R   0.749835 0.609893 0.498804 0.786369
C90   C     C_R   0.749841 0.390107 0.498802 0.788668
C91   C     C_R   0.249834 0.109894 0.498838 0.785592
C92   C     C_R   0.249842 0.890107 0.498831 0.785963
C93   C     C_R   0.875990 0.973186 0.292492 -0.093395
C94   C     C_R   0.875996 0.026807 0.292496 -0.094307
C95   C     C_R   0.376648 0.473197 0.292739 -0.098961
C96   C     C_R   0.376607 0.526819 0.292730 -0.093734
C97   C     C_R   0.749159 0.553885 0.495059 -0.070987
C98   C     C_R   0.749175 0.446114 0.495054 -0.071393
C99   C     C_R   0.249138 0.053886 0.495142 -0.071300
C100  C     C_R   0.249166 0.946115 0.495131 -0.071166
C101  C     C_R   0.795529 0.027350 0.426566 0.088104
C102  C     C_R   0.795530 0.972649 0.426567 0.087690
C103  C     C_R   0.295672 0.527353 0.426682 0.087618
C104  C     C_R   0.295696 0.472654 0.426686 0.088510
C105  C     C_R   0.756048 0.946132 0.494885 -0.069949
C106  C     C_R   0.756036 0.053872 0.494880 -0.070799
C107  C     C_R   0.255984 0.446133 0.494952 -0.069250
C108  C     C_R   0.255956 0.553872 0.494950 -0.069455
C109  C     C_R   0.720202 0.973340 0.561608 -0.182921
C110  C     C_R   0.720195 0.026672 0.561605 -0.181915
C111  C     C_R   0.219882 0.473337 0.561655 -0.184749
C112  C     C_R   0.219871 0.526672 0.561654 -0.184627
C113  C     C_R   0.777640 0.472645 0.426792 0.092672
C114  C     C_R   0.777630 0.527346 0.426795 0.092942
C115  C     C_R   0.277176 0.972649 0.426951 0.092122
C116  C     C_R   0.277138 0.027350 0.426963 0.094933
C117  C     C_R   0.718678 0.526677 0.561764 -0.176785
C118  C     C_R   0.718688 0.473329 0.561762 -0.176475
C119  C     C_R   0.219087 0.026680 0.561811 -0.176105
C120  C     C_R   0.219093 0.973327 0.561806 -0.175910
C121  C     C_R   0.803858 0.553803 0.359026 -0.165548
C122  C     C_R   0.803884 0.446180 0.359017 -0.165955
C123  C     C_R   0.302852 0.053815 0.359316 -0.162652
C124  C     C_R   0.302976 0.946182 0.359278 -0.163442
C125  C     C_R   0.830423 0.526797 0.292835 -0.097427
C126  C     C_R   0.830438 0.473179 0.292830 -0.097588
C127  C     C_R   0.328914 0.026809 0.293219 -0.107575
C128  C     C_R   0.328992 0.973187 0.293195 -0.094855
C129  C     C_R   0.751520 0.890148 0.498707 0.804917
C130  C     C_R   0.751516 0.109854 0.498701 0.808137
C131  C     C_R   0.251491 0.390148 0.498734 0.803794
C132  C     C_R   0.251476 0.609853 0.498737 0.804784
C133  C     C_R   0.890477 0.750694 0.499287 0.924280
C134  C     C_R   0.890443 0.249386 0.499328 0.929043
C135  C     C_R   0.390490 0.250715 0.499256 0.922898
C136  C     C_R   0.390477 0.749311 0.499284 0.924365
C137  C     C_R   0.610283 0.749633 0.499262 0.790222
C138  C     C_R   0.610361 0.250455 0.499100 0.790593
C139  C     C_R   0.109998 0.249964 0.499826 0.788865
C140  C     C_R   0.110282 0.750359 0.499262 0.790323
C141  C     C_R   0.622469 0.719950 0.365129 -0.207328
C142  C     C_R   0.622928 0.277992 0.363922 -0.210409
C143  C     C_R   0.118512 0.206110 0.374290 -0.206980
C144  C     C_R   0.122458 0.780150 0.365189 -0.206922
C145  C     C_R   0.628644 0.703823 0.301530 0.169190
C146  C     C_R   0.629265 0.292989 0.299820 0.169436
C147  C     C_R   0.122978 0.183285 0.314799 0.177604
C148  C     C_R   0.128628 0.796342 0.301625 0.169131
C149  C     C_R   0.574965 0.697811 0.302280 -0.163980
C150  C     C_R   0.575618 0.299133 0.300548 -0.151650
C151  C     C_R   0.069430 0.179199 0.314920 -0.163014
C152  C     C_R   0.074949 0.802347 0.302378 -0.164296
H1    H     H_    0.492738 0.770480 0.609745 0.170942
H2    H     H_    0.492544 0.231388 0.610224 0.170769
H3    H     H_    0.995287 0.282770 0.604033 0.166191
H4    H     H_    0.992749 0.729416 0.609703 0.170972
H5    H     H_    0.583484 0.811141 0.940812 0.184593
H6    H     H_    0.500020 0.175884 0.940498 0.183593
H7    H     H_    0.084176 0.310463 0.940821 0.183597
H8    H     H_    0.082725 0.688253 0.940800 0.183886
H9    H     H_    0.528044 0.805917 0.066121 0.230094
H10   H     H_    0.445382 0.171561 0.065786 0.228658
H11   H     H_    0.028667 0.305142 0.066125 0.229772
H12   H     H_    0.027385 0.693404 0.066109 0.229556
H13   H     H_    0.552389 0.741646 0.062723 0.225535
H14   H     H_    0.514773 0.180276 0.062488 0.222650
H15   H     H_    0.052191 0.240586 0.062721 0.226490
H16   H     H_    0.052512 0.757406 0.062710 0.225508
H17   H     H_    0.557172 0.668979 0.940052 0.189751
H18   H     H_    0.615690 0.263091 0.940474 0.192257
H19   H     H_    0.056059 0.168649 0.940049 0.188996
H20   H     H_    0.058199 0.830727 0.940105 0.189202
H21   H     H_    0.448140 0.765043 0.937742 0.207974
H22   H     H_    0.481730 0.318700 0.937925 0.206344
H23   H     H_    0.948272 0.266110 0.937723 0.207931
H24   H     H_    0.947966 0.736032 0.937757 0.207803
H25   H     H_    0.385710 0.771105 0.063602 0.174766
H26   H     H_    0.413141 0.315181 0.063706 0.161869
H27   H     H_    0.885912 0.272143 0.063581 0.175046
H28   H     H_    0.885474 0.729906 0.063611 0.174140
H29   H     H_    0.690782 0.953109 0.614000 0.163342
H30   H     H_    0.690772 0.046908 0.613996 0.165321
H31   H     H_    0.190285 0.453100 0.614018 0.162192
H32   H     H_    0.190271 0.546912 0.614017 0.162211
H33   H     H_    0.665298 0.721672 0.362896 0.163735
H34   H     H_    0.665788 0.276270 0.361608 0.165366
H35   H     H_    0.161051 0.207194 0.372799 0.152758
H36   H     H_    0.165286 0.778422 0.362959 0.163746
H37   H     H_    0.840273 0.904608 0.356073 0.174711
H38   H     H_    0.840285 0.095389 0.356081 0.176179
H39   H     H_    0.340678 0.404611 0.356297 0.173808
H40   H     H_    0.340565 0.595403 0.356274 0.174517
H41   H     H_    0.907237 0.952387 0.241049 0.186598
H42   H     H_    0.907249 0.047604 0.241056 0.186416
H43   H     H_    0.408109 0.452405 0.241353 0.184286
H44   H     H_    0.408026 0.547617 0.241334 0.186190
H45   H     H_    0.695993 0.546922 0.614129 0.173780
H46   H     H_    0.696009 0.453091 0.614125 0.173951
H47   H     H_    0.196734 0.046929 0.614128 0.173449
H48   H     H_    0.196740 0.953082 0.614121 0.173477
H49   H     H_    0.802992 0.595376 0.356373 0.151347
H50   H     H_    0.803040 0.404605 0.356357 0.151103
H51   H     H_    0.301956 0.095395 0.356729 0.146559
H52   H     H_    0.302184 0.904599 0.356652 0.150312
H53   H     H_    0.850275 0.547594 0.241443 0.187641
H54   H     H_    0.850302 0.452375 0.241434 0.187763
H55   H     H_    0.348345 0.047607 0.241921 0.164193
H56   H     H_    0.348495 0.952386 0.241875 0.184363
H57   H     H_    0.073367 0.159959 0.269049 0.204713
H58   H     H_    0.080250 0.817307 0.253457 0.204349
H59   H     H_    0.580271 0.682892 0.253333 0.204445
H60   H     H_    0.581086 0.313261 0.251164 0.213563
H61   H     H_    0.491368 0.820563 0.932243 0.229268
H62   H     H_    0.452932 0.257884 0.931782 0.231483
H63   H     H_    0.992199 0.321111 0.932246 0.229527
H64   H     H_    0.990504 0.680015 0.932201 0.229558
O1    O     O_3   0.750020 0.750020 0.500000 -0.501600
O2    O     O_3   0.750020 0.249980 0.500000 -0.501279
O3    O     O_3   0.250020 0.250020 0.500000 -0.501906
O4    O     O_3   0.250020 0.749980 0.500000 -0.501569
O5    O     O_R   0.698180 0.634210 0.542990 -0.629483
O6    O     O_R   0.698180 0.365790 0.542990 -0.630974
O7    O     O_R   0.198180 0.134210 0.542990 -0.628695
O8    O     O_R   0.198180 0.865790 0.542990 -0.628620
O9    O     O_R   0.741140 0.865830 0.457010 -0.640181
O10   O     O_R   0.741140 0.134170 0.457010 -0.640636
O11   O     O_R   0.241140 0.365830 0.457010 -0.641501
O12   O     O_R   0.241140 0.634170 0.457010 -0.640286
O13   O     O_R   0.862350 0.719680 0.336040 -0.612520
O14   O     O_R   0.862350 0.280320 0.336040 -0.614614
O15   O     O_R   0.362350 0.219680 0.336040 -0.612639
O16   O     O_R   0.362350 0.780320 0.336040 -0.612204
O17   O     O_R   0.698410 0.780360 0.663970 -0.626528
O18   O     O_R   0.698410 0.219640 0.663970 -0.620063
O19   O     O_R   0.198410 0.280360 0.663970 -0.627034
O20   O     O_R   0.198410 0.719640 0.663970 -0.626852
O21   O     O_R   0.801620 0.780400 0.336030 -0.632272
O22   O     O_R   0.801620 0.219600 0.336030 -0.631785
O23   O     O_R   0.301620 0.280400 0.336030 -0.631700
O24   O     O_R   0.301620 0.719600 0.336030 -0.632326
O25   O     O_R   0.637690 0.719640 0.663960 -0.625402
O26   O     O_R   0.637690 0.280360 0.663960 -0.633799
O27   O     O_R   0.137690 0.219640 0.663960 -0.624780
O28   O     O_R   0.137690 0.780360 0.663960 -0.625172
O29   O     O_R   0.801880 0.634210 0.457010 -0.644293
O30   O     O_R   0.801880 0.365790 0.457010 -0.643308
O31   O     O_R   0.301880 0.134210 0.457010 -0.644832
O32   O     O_R   0.301880 0.865790 0.457010 -0.644382
O33   O     O_R   0.758880 0.865820 0.542990 -0.621684
O34   O     O_R   0.758880 0.134180 0.542990 -0.618443
O35   O     O_R   0.258880 0.365820 0.542990 -0.622698
O36   O     O_R   0.258880 0.634180 0.542990 -0.622219
O37   O     O_R   0.887320 0.719660 0.457020 -0.605438
O38   O     O_R   0.887320 0.280340 0.457020 -0.604933
O39   O     O_R   0.387320 0.219660 0.457020 -0.603679
O40   O     O_R   0.387320 0.780340 0.457020 -0.605273
O41   O     O_R   0.655700 0.780390 0.457010 -0.638723
O42   O     O_R   0.655700 0.219610 0.457010 -0.638688
O43   O     O_R   0.155700 0.280390 0.457010 -0.635033
O44   O     O_R   0.155700 0.719610 0.457010 -0.639057
O45   O     O_R   0.844330 0.780370 0.542990 -0.604815
O46   O     O_R   0.844330 0.219630 0.542990 -0.603692
O47   O     O_R   0.344330 0.280370 0.542990 -0.606260
O48   O     O_R   0.344330 0.719630 0.542990 -0.605179
O49   O     O_R   0.612730 0.719660 0.542980 -0.629804
O50   O     O_R   0.612730 0.280340 0.542980 -0.632157
O51   O     O_R   0.112730 0.219660 0.542980 -0.628774
O52   O     O_R   0.112730 0.780340 0.542980 -0.629185
Zn1   Zn    Zn3+2 0.675940 0.706630 0.561420 1.001538
Zn2   Zn    Zn3+2 0.675940 0.293370 0.561420 0.995795
Zn3   Zn    Zn3+2 0.175940 0.206630 0.561420 1.002551
Zn4   Zn    Zn3+2 0.175940 0.793370 0.561420 1.002584
Zn5   Zn    Zn3+2 0.824100 0.706640 0.438580 1.034701
Zn6   Zn    Zn3+2 0.824100 0.293360 0.438580 1.036904
Zn7   Zn    Zn3+2 0.324100 0.206640 0.438580 1.034852
Zn8   Zn    Zn3+2 0.324100 0.793360 0.438580 1.034892
Zn9   Zn    Zn3+2 0.762690 0.793390 0.561420 1.045836
Zn10  Zn    Zn3+2 0.762690 0.206610 0.561420 1.053172
Zn11  Zn    Zn3+2 0.262690 0.293390 0.561420 1.043191
Zn12  Zn    Zn3+2 0.262690 0.706610 0.561420 1.044531
Zn13  Zn    Zn3+2 0.737340 0.793410 0.438580 1.007053
Zn14  Zn    Zn3+2 0.737340 0.206590 0.438580 1.008015
Zn15  Zn    Zn3+2 0.237340 0.293410 0.438580 1.007115
Zn16  Zn    Zn3+2 0.237340 0.706590 0.438580 1.006691
I1    I     I_    0.483268 0.648908 0.897956 -0.232127
I2    I     I_    0.612547 0.356788 0.898371 -0.226625
I3    I     I_    0.981916 0.149784 0.897940 -0.217164
I4    I     I_    0.984581 0.851982 0.897986 -0.220014
I5    I     I_    0.372099 0.661266 0.090468 -0.229611
I6    I     I_    0.497923 0.364641 0.090856 -0.262599
I7    I     I_    0.870888 0.162332 0.090453 -0.212191
I8    I     I_    0.873213 0.839748 0.090483 -0.219867
I9    I     I_    0.502401 0.637161 0.087215 -0.273797
I10   I     I_    0.578721 0.260799 0.087891 -0.231617
I11   I     I_    0.000864 0.136583 0.087207 -0.273945
I12   I     I_    0.003768 0.862321 0.087292 -0.273961
I13   I     I_    0.719489 0.685891 0.205110 -0.258706
I14   I     I_    0.720336 0.309132 0.202583 -0.247142
I15   I     I_    0.210670 0.152734 0.225870 -0.234350
I16   I     I_    0.219465 0.814378 0.205256 -0.263573
Cl1   Cl    Cl    0.451344 0.690361 0.360859 -0.645719
Cl2   Cl    Cl    0.452108 0.308358 0.359477 -0.634997
Cl3   Cl    Cl    0.946871 0.184154 0.368102 -0.649858
Cl4   Cl    Cl    0.951327 0.809699 0.360933 -0.645583
I17   I     I_    0.357053 0.784415 0.659996 -0.273381
I18   I     I_    0.356732 0.217934 0.661005 -0.274004
I19   I     I_    0.860714 0.300148 0.650740 -0.282658
I20   I     I_    0.857058 0.715485 0.659940 -0.269767
Cl5   Cl    Cl    0.426179 0.849147 0.073311 -0.593452
Cl6   Cl    Cl    0.359221 0.239703 0.072417 -0.558289
Cl7   Cl    Cl    0.927336 0.349611 0.073329 -0.589315
Cl8   Cl    Cl    0.925030 0.651333 0.073241 -0.587607
I21   I     I_    0.663922 0.734425 0.911838 -0.255606
I22   I     I_    0.612743 0.151293 0.911632 -0.282315
I23   I     I_    0.163634 0.232918 0.911842 -0.255661
I24   I     I_    0.164136 0.764155 0.911823 -0.260685

loop_
_geom_bond_atom_site_label_1
_geom_bond_atom_site_label_2
_ccdc_geom_bond_type
C8    Cl4   S    
C23   H3    S    
C142  C146  A    
C41   C61   S    
C53   C69   S    
O38   Zn6   S    
C43   C63   S    
C112  H32   S    
C44   C64   S    
C72   H20   S    
C16   C144  A    
C32   C133  S    
C145  I13   S    
C85   H37   S    
C67   I7    S    
C5    C149  A    
C44   H16   S    
C9    C13   A    
C146  C150  A    
C11   C15   A    
C113  C122  A    
C12   C16   A    
C56   C72   S    
O4    Zn12  S    
C47   C83   S    
C80   C84   T    
C97   C117  A    
C38   I22   S    
C100  C115  A    
O44   Zn16  S    
C47   O19   A    
C25   C29   A    
C129  O33   A    
C27   C31   A    
C92   O8    A    
C133  O37   A    
C99   C116  A    
C33   H61   S    
C17   C21   A    
C150  H60   S    
C19   C23   A    
O10   Zn14  S    
O7    Zn3   S    
C34   H22   S    
O8    Zn4   S    
C78   C82   T    
C54   C70   S    
C68   C72   S    
O3    Zn7   S    
O4    Zn16  S    
C152  H58   S    
C148  I16   S    
C34   C54   S    
C49   C73   T    
O31   Zn7   S    
C4    O16   A    
C106  C130  S    
C139  O51   A    
C140  O44   A    
C94   H42   S    
C45   C81   S    
C60   Cl8   S    
C105  C129  S    
C57   C61   S    
C135  O47   A    
C137  O41   A    
C59   C63   S    
C123  H51   S    
C4    C49   S    
C60   C64   S    
C35   H23   S    
C57   Cl5   S    
O19   Zn11  S    
C122  H50   S    
C66   C70   S    
C125  H53   S    
O21   Zn13  S    
C89   O29   A    
O3    Zn3   S    
C70   H18   S    
O4    Zn4   S    
C121  H49   S    
C61   C65   S    
C130  O10   A    
C19   C139  S    
C34   C58   S    
C21   H1    S    
O40   Zn8   S    
C17   C137  S    
C128  H56   S    
C5    Cl1   S    
C104  C107  A    
C55   C71   S    
C24   H4    S    
C7    Cl3   S    
C47   O27   A    
C14   C142  A    
O18   Zn10  S    
C116  C123  A    
C111  C112  A    
C58   Cl6   S    
C39   I23   S    
C92   O32   A    
C133  O45   A    
C64   C68   S    
C8    C152  A    
C50   C74   T    
C89   O5    A    
O47   Zn11  S    
C66   I10   S    
C115  C116  A    
C37   H5    S    
C127  H55   S    
C46   C82   S    
C85   C93   A    
O52   Zn4   S    
O33   Zn9   S    
C87   C95   A    
C42   C62   S    
C37   C53   S    
O41   Zn13  S    
C28   I20   S    
C31   C134  S    
C28   C32   A    
C3    C50   S    
C131  O35   A    
C98   C118  A    
C146  I14   S    
C86   H38   S    
C62   C66   S    
C10   C14   A    
C3    O15   A    
C1    O21   A    
C99   C119  A    
C147  C151  A    
C5    C9    A    
C123  C127  A    
C8    C12   A    
C111  H31   S    
C58   H26   S    
C69   H17   S    
C15   C143  A    
O2    Zn10  S    
C147  I15   S    
C26   C30   A    
C13   C141  A    
C26   I18   S    
C71   H19   S    
C118  H46   S    
C109  H29   S    
C101  C106  A    
C21   C25   A    
C18   C22   A    
C107  C111  A    
C24   C28   A    
C52   C76   T    
O11   Zn15  S    
C42   H10   S    
C43   H15   S    
O2    Zn14  S    
C56   C80   S    
C13   C17   A    
C117  C118  A    
C36   H64   S    
C57   H25   S    
C63   C75   S    
O25   Zn1   S    
C37   C41   S    
C77   C81   T    
O35   Zn11  S    
C108  C132  S    
C2    O14   A    
C40   C44   S    
O45   Zn9   S    
O24   Zn16  S    
C129  O9    A    
C91   C99   S    
C97   C114  A    
C35   H63   S    
C85   C102  A    
C58   C62   S    
C69   I1    S    
C88   C96   A    
C101  C102  A    
C41   H9    S    
O16   Zn8   S    
C48   O28   A    
C138  O42   A    
O5    Zn1   S    
C15   C19   A    
O13   Zn5   S    
O2    Zn2   S    
C119  H47   S    
O34   Zn10  S    
C45   O17   A    
C132  O12   A    
C22   H2    S    
O4    Zn8   S    
C102  C105  A    
C35   C59   S    
C18   C138  S    
O49   Zn1   S    
C105  C109  A    
C6    Cl2   S    
C114  C121  A    
O51   Zn3   S    
C39   C55   S    
C40   C56   S    
C139  O43   A    
C140  O52   A    
O9    Zn13  S    
C124  C128  A    
O1    Zn9   S    
O20   Zn12  S    
O14   Zn6   S    
C25   I17   S    
C143  C147  A    
C91   O31   A    
C148  C152  A    
C38   H6    S    
C34   H62   S    
C98   C113  A    
C61   C73   S    
C108  C112  A    
O39   Zn7   S    
O1    Zn5   S    
C36   C56   S    
C55   C79   S    
C38   C54   S    
O30   Zn6   S    
C4    O24   A    
O42   Zn14  S    
C132  O36   A    
C7    C151  A    
C36   H24   S    
C68   I8    S    
C125  C126  A    
C46   O26   A    
C91   O7    A    
C127  C128  A    
C46   O18   A    
C87   H39   S    
C113  C114  A    
C65   I5    S    
C88   H40   S    
C95   H43   S    
C115  C124  A    
C39   H7    S    
C40   H8    S    
C93   H41   S    
C149  H59   S    
C6    C10   A    
C119  C120  A    
O32   Zn8   S    
C60   H28   S    
C20   C140  S    
C59   H27   S    
O36   Zn12  S    
O37   Zn5   S    
C109  C110  A    
C79   C83   T    
C126  H54   S    
C65   C69   S    
C90   O30   A    
C141  C145  A    
C120  H48   S    
C27   I19   S    
C67   C71   S    
C1    C52   S    
O27   Zn3   S    
C2    C51   S    
C87   C104  A    
C6    C150  A    
C131  O11   A    
C96   H44   S    
C29   C136  S    
C110  H30   S    
C30   C135  S    
C22   C26   A    
C67   I11   S    
C103  C104  A    
C62   C74   S    
C44   H12   S    
C135  O39   A    
C145  C149  A    
C42   H14   S    
C3    O23   A    
C54   C78   S    
C43   H11   S    
O3    Zn15  S    
C93   C94   A    
C136  O48   A    
C71   I3    S    
C14   C18   A    
C53   C77   S    
C95   C96   A    
C72   I4    S    
C144  C148  A    
C7    C11   A    
C124  H52   S    
O22   Zn14  S    
O26   Zn2   S    
C51   C75   T    
C90   O6    A    
O46   Zn10  S    
O29   Zn5   S    
C10   C30   A    
C86   C94   A    
C106  C110  A    
C121  C125  A    
C137  O49   A    
C20   C24   A    
C70   I2    S    
C41   H13   S    
C103  C108  A    
C100  C120  A    
C23   C27   A    
C33   H21   S    
C16   C20   A    
O12   Zn16  S    
C11   C31   A    
C134  O46   A    
C12   C32   A    
O3    Zn11  S    
C130  O34   A    
C33   C53   S    
C142  H34   S    
C63   C67   S    
C35   C55   S    
C134  O38   A    
C107  C131  S    
O50   Zn2   S    
C2    O22   A    
C39   C43   S    
C138  O50   A    
O23   Zn15  S    
C37   I21   S    
C48   C84   S    
C89   C97   S    
C122  C126  A    
C40   I24   S    
C1    O13   A    
O1    Zn13  S    
O28   Zn4   S    
C64   C76   S    
O15   Zn7   S    
C48   O20   A    
C141  H33   S    
C45   O25   A    
C88   C103  A    
C117  H45   S    
C92   C100  S    
C144  H36   S    
C33   C57   S    
C151  H57   S    
C143  H35   S    
C136  O40   A    
C36   C60   S    
C9    C29   A    
O17   Zn9   S    
O43   Zn15  S    
C59   Cl7   S    
O1    Zn1   S    
C68   I12   S    
O48   Zn12  S    
O6    Zn2   S    
C38   C42   S    
C65   I9    S    
C66   I6    S    
O2    Zn6   S    
C86   C101  A    
C90   C98   S    
