data_mof_unit_15969.cif
_audit_creation_date              2012-12-11T15:18:38-0500
_audit_creation_method            fapswitch 2.2
_symmetry_space_group_name_H-M    P1
_symmetry_Int_Tables_number       1
_space_group_crystal_system       triclinic
_cell_length_a                    6.945936
_cell_length_b                    19.920914
_cell_length_c                    23.777096
_cell_angle_alpha                 93.622439
_cell_angle_beta                  91.241965
_cell_angle_gamma                 88.517065
_cell_volume                      3281.68716787

loop_
_atom_site_label
_atom_site_type_symbol
_atom_type_description
_atom_site_fract_x
_atom_site_fract_y
_atom_site_fract_z
_atom_type_partial_charge
O1    O     O_R   0.620100 0.812200 0.810870 -0.539816
O2    O     O_R   0.379900 0.187800 0.189130 -0.539816
O3    O     O_R   0.296960 0.671650 0.794750 -0.537991
O4    O     O_R   0.703040 0.328350 0.205250 -0.537991
O5    O     O_R   0.120160 0.687800 0.689130 -0.539869
O6    O     O_R   0.879840 0.312200 0.310870 -0.539870
C1    C     C_R   0.468730 0.647027 0.804562 0.695816
C2    C     C_R   0.531270 0.352973 0.195438 0.695816
O7    O     O_R   0.290810 0.810670 0.817290 -0.543219
O8    O     O_R   0.709190 0.189330 0.182710 -0.543219
O9    O     O_R   0.113980 0.827820 0.711840 -0.536466
O10   O     O_R   0.886020 0.172180 0.288160 -0.536466
C3    C     C_R   0.459391 0.831774 0.834312 0.708754
C4    C     C_R   0.540609 0.168226 0.165687 0.708754
O11   O     O_R   0.626290 0.672180 0.788160 -0.536682
O12   O     O_R   0.373710 0.327820 0.211840 -0.536682
O13   O     O_3   0.451520 0.755460 0.715370 -0.368495
O14   O     O_3   0.548480 0.244540 0.284630 -0.368495
V1    V     V_3+5 0.179200 0.748980 0.756420 1.410102
V2    V     V_3+5 0.820800 0.251020 0.243580 1.410102
O15   O     O_R   0.783880 0.828350 0.705250 -0.537292
O16   O     O_R   0.216120 0.171650 0.294750 -0.537292
C5    C     C_R   0.949777 0.852637 0.694824 0.694925
C6    C     C_R   0.050223 0.147362 0.305176 0.694925
O17   O     O_R   0.790030 0.689320 0.682700 -0.543360
O18   O     O_R   0.209970 0.310680 0.317300 -0.543360
C7    C     C_R   0.959063 0.668196 0.665731 0.702356
C8    C     C_R   0.040937 0.331804 0.334269 0.702356
V3    V     V_3+5 0.678400 0.751010 0.743570 1.411800
V4    V     V_3+5 0.321600 0.248990 0.256430 1.411800
O19   O     O_3   0.955950 0.744540 0.784620 -0.367948
O20   O     O_3   0.044050 0.255460 0.215380 -0.367947
C9    C     C_R   0.173287 0.429376 0.393168 -0.225496
C10   C     C_R   0.826714 0.570624 0.606832 -0.225497
C11   C     C_R   0.030895 0.381033 0.383680 -0.068774
C12   C     C_R   0.969106 0.618967 0.616320 -0.068774
C13   C     C_R   0.877069 0.380610 0.420810 -0.219705
C14   C     C_R   0.122932 0.619390 0.579190 -0.219704
C15   C     C_R   0.865744 0.427200 0.467514 0.062291
C16   C     C_R   0.134258 0.572800 0.532486 0.062291
C17   C     C_R   0.007297 0.476408 0.476625 0.024749
C18   C     C_R   0.992705 0.523592 0.523375 0.024749
C19   C     C_R   0.162958 0.478285 0.438947 0.036239
C20   C     C_R   0.837043 0.521714 0.561053 0.036238
C21   C     C_R   0.713532 0.424848 0.504970 -0.185358
C22   C     C_R   0.286469 0.575152 0.495030 -0.185358
C23   C     C_R   0.696525 0.471135 0.552143 0.133899
C24   C     C_R   0.303477 0.528864 0.447857 0.133898
H1    H     H_    0.289500 0.428930 0.363612 0.113480
H2    H     H_    0.710499 0.571071 0.636388 0.113480
H3    H     H_    0.766982 0.343214 0.413694 0.119617
H4    H     H_    0.233020 0.656786 0.586306 0.119617
H5    H     H_    0.608445 0.386200 0.496641 0.136582
H6    H     H_    0.391555 0.613800 0.503359 0.136581
C25   C     C_R   0.947974 0.914088 0.663216 -0.043579
C26   C     C_R   0.052026 0.085912 0.336784 -0.043579
C27   C     C_R   0.866266 0.032482 0.659896 -0.161663
C28   C     C_R   0.133734 0.967518 0.340104 -0.161662
C29   C     C_R   0.883536 0.974729 0.689788 -0.167474
C30   C     C_R   0.116464 0.025271 0.310212 -0.167474
C31   C     C_R   0.994545 0.911485 0.605766 -0.215289
C32   C     C_R   0.005454 0.088515 0.394234 -0.215289
C33   C     C_R   0.974401 0.969650 0.573786 0.086422
C34   C     C_R   0.025599 0.030350 0.426213 0.086422
C35   C     C_R   0.909480 0.030463 0.602408 0.139615
C36   C     C_R   0.090519 0.969537 0.397592 0.139615
C37   C     C_R   0.013349 0.969616 0.514589 0.058061
C38   C     C_R   0.986651 0.030384 0.485411 0.058061
C39   C     C_R   0.922596 0.089137 0.516447 -0.187753
C40   C     C_R   0.077404 0.910863 0.483553 -0.187753
C41   C     C_R   0.885426 0.088986 0.573560 -0.201908
C42   C     C_R   0.114574 0.911014 0.426440 -0.201909
H7    H     H_    0.835801 0.135445 0.595416 0.122451
H8    H     H_    0.164199 0.864555 0.404584 0.122451
H9    H     H_    0.959289 0.136858 0.412720 0.093560
H10   H     H_    0.040711 0.863142 0.587280 0.093560
H11   H     H_    0.154889 0.022791 0.266186 0.106426
H12   H     H_    0.845110 0.977209 0.733814 0.106426
H13   H     H_    0.815903 0.078859 0.681686 0.113015
H14   H     H_    0.184097 0.921141 0.318314 0.113015
H15   H     H_    0.898842 0.136566 0.497799 0.122511
H16   H     H_    0.101158 0.863434 0.502201 0.122511
C43   C     C_R   0.489568 0.585619 0.835781 -0.043351
C44   C     C_R   0.510432 0.414380 0.164219 -0.043351
C45   C     C_R   0.600740 0.469822 0.837759 -0.162506
C46   C     C_R   0.399260 0.530178 0.162241 -0.162506
C47   C     C_R   0.562493 0.526817 0.808112 -0.166045
C48   C     C_R   0.437507 0.473183 0.191888 -0.166045
C49   C     C_R   0.455676 0.587218 0.893931 -0.216347
C50   C     C_R   0.544324 0.412782 0.106069 -0.216347
C51   C     C_R   0.498424 0.530102 0.925651 0.085688
C52   C     C_R   0.501576 0.469898 0.074349 0.085688
C53   C     C_R   0.571311 0.471063 0.896026 0.139746
C54   C     C_R   0.428689 0.528936 0.103974 0.139746
C55   C     C_R   0.475054 0.529724 0.985546 0.057717
C56   C     C_R   0.524947 0.470276 0.014454 0.057717
C57   C     C_R   0.595623 0.413160 0.982470 -0.187525
C58   C     C_R   0.404377 0.586840 0.017530 -0.187524
C59   C     C_R   0.617603 0.413709 0.924644 -0.201377
C60   C     C_R   0.382397 0.586291 0.075356 -0.201377
H17   H     H_    0.673317 0.368599 0.902049 0.123082
H18   H     H_    0.326683 0.631401 0.097950 0.123082
H19   H     H_    0.597449 0.365683 0.086889 0.096084
H20   H     H_    0.402550 0.634317 0.913111 0.096084
H21   H     H_    0.408491 0.474724 0.236566 0.101087
H22   H     H_    0.591509 0.525276 0.763434 0.101087
H23   H     H_    0.657273 0.424858 0.815174 0.112596
H24   H     H_    0.342727 0.575142 0.184826 0.112596
H25   H     H_    0.636478 0.366766 0.000853 0.123288
H26   H     H_    0.363521 0.633234 0.999147 0.123288
C61   C     C_R   0.685615 0.074262 0.103670 -0.221731
C62   C     C_R   0.314385 0.925737 0.896330 -0.221731
C63   C     C_R   0.530276 0.119185 0.116077 -0.084755
C64   C     C_R   0.469724 0.880814 0.883923 -0.084755
C65   C     C_R   0.363144 0.116195 0.081474 -0.223410
C66   C     C_R   0.636856 0.883804 0.918526 -0.223410
C67   C     C_R   0.351048 0.069487 0.034799 0.089526
C68   C     C_R   0.648951 0.930513 0.965201 0.089526
C69   C     C_R   0.506204 0.023940 0.023196 0.052483
C70   C     C_R   0.493796 0.976060 0.976804 0.052483
C71   C     C_R   0.673617 0.026124 0.057953 0.090274
C72   C     C_R   0.326383 0.973876 0.942047 0.090274
C73   C     C_R   0.186419 0.067460 0.999488 -0.191704
C74   C     C_R   0.813580 0.932540 0.000512 -0.191704
C75   C     C_R   0.174355 0.020175 0.953491 -0.184151
C76   C     C_R   0.825645 0.979825 0.046509 -0.184151
H27   H     H_    0.814322 0.075840 0.130310 0.123186
H28   H     H_    0.185677 0.924160 0.869690 0.123186
H29   H     H_    0.243087 0.150784 0.090521 0.127438
H30   H     H_    0.756913 0.849216 0.909479 0.127438
H31   H     H_    0.066175 0.102199 0.007657 0.133117
H32   H     H_    0.933825 0.897801 0.992343 0.133117
H33   H     H_    0.045252 0.019533 0.927065 0.134307
H34   H     H_    0.954748 0.980467 0.072935 0.134307
C77   C     C_3   0.532715 0.467022 0.593589 -0.348005
C78   C     C_3   0.389928 0.410545 0.581038 -0.757962
H35   H     H_    0.317847 0.415534 0.539393 0.233584
H36   H     H_    0.464450 0.360635 0.582218 0.220804
H37   H     H_    0.277149 0.413770 0.613567 0.220820
H38   H     H_    0.596318 0.460300 0.636227 0.171084
H39   H     H_    0.449214 0.515333 0.595243 0.188424
C79   C     C_3   0.467289 0.532976 0.406412 -0.348004
C80   C     C_3   0.610081 0.589452 0.418964 -0.757960
H40   H     H_    0.535564 0.639363 0.417782 0.220804
H41   H     H_    0.682152 0.584464 0.460610 0.233584
H42   H     H_    0.722868 0.586224 0.386438 0.220820
H43   H     H_    0.550788 0.484665 0.404759 0.188424
H44   H     H_    0.403689 0.539699 0.363773 0.171084

loop_
_geom_bond_atom_site_label_1
_geom_bond_atom_site_label_2
_ccdc_geom_bond_type
C80   H42   S    
C1    C43   S    
C33   C35   A    
C58   H26   S    
C25   C29   A    
C61   C71   A    
O13   V3    S    
C17   C18   A    
C27   H13   S    
C43   C47   A    
C55   C56   A    
C6    C26   S    
O4    C2    A    
V1    O19   S    
C62   C64   A    
C55   C58   A    
C77   C78   S    
C15   C17   A    
C16   C22   A    
O9    V1    S    
C18   C20   A    
C34   C38   A    
O16   C6    A    
C11   C13   A    
O7    V1    S    
O3    C1    A    
C67   C69   A    
V2    O20   S    
C13   H3    S    
C46   C48   A    
C73   C75   A    
C14   H4    S    
C28   C30   A    
C80   H40   S    
C52   C56   A    
C74   H32   S    
C31   C33   A    
C39   C41   A    
O7    C3    A    
C32   C34   A    
C46   C54   A    
O13   V1    S    
O5    C7    A    
C45   C53   A    
C28   C36   A    
C36   C42   A    
C8    C11   S    
O8    V2    S    
C38   C39   A    
C65   C67   A    
O3    V1    S    
O14   V4    S    
C49   C51   A    
C19   C24   A    
C53   C59   A    
O14   V2    S    
C3    C64   S    
C20   C23   A    
C28   H14   S    
C15   C21   A    
C73   H31   S    
C21   C23   A    
C21   H5    S    
C2    O12   A    
C17   C19   A    
C22   H6    S    
C44   C50   A    
C78   H37   S    
C40   H16   S    
C29   H12   S    
O1    V3    S    
C57   C59   A    
C70   C72   A    
O11   V3    S    
C22   C24   A    
C45   C47   A    
C31   H10   S    
O17   V3    S    
C77   H38   S    
C43   C49   A    
C33   C37   A    
C30   H11   S    
C10   H2    S    
C37   C38   A    
C9    C19   A    
C79   H44   S    
C10   C20   A    
C78   H36   S    
O8    C4    A    
C41   H7    S    
C78   H35   S    
C1    O11   A    
C35   C41   A    
O15   V3    S    
C26   C30   A    
C34   C36   A    
C62   C72   A    
V4    O20   S    
C51   C53   A    
C57   H25   S    
C50   C52   A    
C54   C60   A    
C56   C57   A    
O10   V2    S    
C60   H18   S    
C24   C79   S    
C61   C63   A    
C68   C74   A    
C69   C71   A    
C39   H15   S    
C42   H8    S    
C59   H17   S    
O18   V4    S    
C58   C60   A    
O15   C5    A    
C49   H20   S    
C61   H27   S    
C26   C32   A    
C32   H9    S    
O1    C3    A    
O12   V4    S    
C74   C76   A    
C65   H29   S    
C75   H33   S    
C80   H41   S    
O16   V4    S    
C23   C77   S    
C2    C44   S    
C79   H43   S    
C46   H24   S    
C44   C48   A    
C27   C35   A    
C16   C18   A    
C64   C66   A    
C69   C70   A    
C5    C25   S    
O5    V1    S    
C7    C12   S    
O17   C7    A    
C4    C63   S    
O6    V2    S    
O10   C6    A    
O18   C8    A    
O2    V4    S    
C37   C40   A    
C72   C75   A    
C12   C14   A    
C67   C73   A    
C71   C76   A    
V3    O19   S    
C14   C16   A    
C48   H21   S    
C52   C54   A    
C47   H22   S    
C25   C31   A    
O9    C5    A    
C9    C11   A    
C66   C68   A    
C10   C12   A    
O2    C4    A    
C68   C70   A    
C50   H19   S    
C62   H28   S    
C27   C29   A    
C51   C55   A    
O4    V2    S    
O6    C8    A    
C77   H39   S    
C66   H30   S    
C76   H34   S    
C13   C15   A    
C79   C80   S    
C40   C42   A    
C45   H23   S    
C9    H1    S    
C63   C65   A    
