data_mof_unit_23893.cif
_audit_creation_date              2012-10-26T20:32:56-0400
_audit_creation_method            fapswitch 2.2
_symmetry_space_group_name_H-M    P1
_symmetry_Int_Tables_number       1
_space_group_crystal_system       triclinic
_cell_length_a                    27.788576
_cell_length_b                    10.85152
_cell_length_c                    9.536752
_cell_angle_alpha                 90.041339
_cell_angle_beta                  89.949878
_cell_angle_gamma                 90.182103
_cell_volume                      2875.77487281

loop_
_atom_site_label
_atom_site_type_symbol
_atom_type_description
_atom_site_fract_x
_atom_site_fract_y
_atom_site_fract_z
_atom_type_partial_charge
C1    C     C_R   0.500166 0.262689 0.499816 0.555081
C2    C     C_R   0.974352 0.390102 0.542867 0.025318
C3    C     C_R   0.975055 0.616711 0.521819 0.007638
C4    C     C_R   0.407423 0.499785 0.500060 0.552741
C5    C     C_R   0.949331 0.503848 0.530770 0.007034
C6    C     C_R   0.947566 0.279339 0.542897 -0.137996
C7    C     C_R   0.897745 0.280330 0.535050 -0.106071
C8    C     C_R   0.872712 0.391681 0.528358 0.029479
C9    C     C_R   0.898278 0.504283 0.528022 -0.065447
C10   C     C_R   0.872727 0.616606 0.524693 0.030485
C11   C     C_R   0.821854 0.612289 0.516655 0.416954
C12   C     C_R   0.278424 0.503664 0.374733 -0.055017
C13   C     C_R   0.822379 0.392565 0.521436 0.397177
C14   C     C_R   0.720165 0.463213 0.628260 -0.055080
C15   C     C_R   0.670033 0.462720 0.624483 -0.143411
C16   C     C_R   0.500300 0.737312 0.499876 0.555011
C17   C     C_R   0.672199 0.535264 0.384185 -0.141636
C18   C     C_R   0.722394 0.535894 0.388181 -0.054367
C19   C     C_R   0.746531 0.499966 0.510278 0.238340
C20   C     C_R   0.025290 0.390510 0.552152 0.018745
C21   C     C_R   0.050710 0.500636 0.522278 0.035569
C22   C     C_R   0.025595 0.612033 0.498035 0.015402
C23   C     C_R   0.253383 0.497748 0.502070 0.242112
C24   C     C_R   0.051876 0.284176 0.587991 -0.143695
C25   C     C_R   0.101534 0.710163 0.431976 -0.114319
C26   C     C_R   0.949099 0.728933 0.540048 0.090328
C27   C     C_R   0.898465 0.728737 0.536094 0.144961
C28   C     C_R   0.592563 0.499762 0.500237 0.551385
C29   C     C_R   0.051620 0.712719 0.442604 -0.151459
C30   C     C_R   0.497866 0.062098 0.620823 0.023921
C31   C     C_R   0.501137 0.130105 0.498159 0.013947
C32   C     C_R   0.505477 0.064561 0.370842 -0.155811
C33   C     C_R   0.505594 0.935318 0.370923 -0.155801
C34   C     C_R   0.101687 0.499063 0.514369 -0.027113
C35   C     C_R   0.501348 0.869909 0.498326 0.012613
C36   C     C_R   0.498036 0.938088 0.620956 0.022771
C37   C     C_3   0.491066 0.929354 0.775559 -0.263156
C38   C     C_3   0.490841 0.071262 0.775331 -0.270397
C39   C     C_R   0.521977 0.593087 0.073617 0.157035
C40   C     C_R   0.177730 0.392762 0.542788 0.398177
C41   C     C_R   0.474307 0.415174 0.074457 -0.013471
C42   C     C_R   0.474293 0.415204 0.925506 -0.014154
C43   C     C_R   0.521933 0.593174 0.926122 0.155444
C44   C     C_3   0.573833 0.627643 0.919773 -0.272323
C45   C     C_R   0.127246 0.391345 0.548193 0.024573
C46   C     C_3   0.573967 0.626690 0.078690 -0.279983
C47   C     C_R   0.177559 0.602219 0.466735 0.398947
C48   C     C_R   0.278845 0.492453 0.628532 -0.057056
C49   C     C_R   0.329006 0.493258 0.627936 -0.143196
C50   C     C_R   0.328631 0.504182 0.373795 -0.142704
C51   C     C_R   0.101939 0.285081 0.586932 -0.111753
C52   C     C_R   0.127088 0.605010 0.471576 0.025938
C53   C     C_R   0.354398 0.499131 0.500507 0.004647
C54   C     C_R   0.645555 0.498845 0.502368 0.006163
Cu1   Cu    Cu3+1 0.500000 0.499980 0.640670 0.941473
Cu2   Cu    Cu3+1 0.500000 0.500020 0.359330 0.942671
H1    H     H_    0.347201 0.508693 0.274035 0.131177
H2    H     H_    0.258929 0.507514 0.276568 0.131930
H3    H     H_    0.522770 0.889305 0.829484 0.133452
H4    H     H_    0.455339 0.111319 0.803251 0.132828
H5    H     H_    0.522403 0.113132 0.829005 0.143093
H6    H     H_    0.454254 0.345109 0.130318 0.116107
H7    H     H_    0.454171 0.345313 0.869631 0.112697
H8    H     H_    0.596645 0.554060 0.873917 0.152698
H9    H     H_    0.579577 0.720814 0.874497 0.125891
H10   H     H_    0.596348 0.551310 0.121903 0.149809
H11   H     H_    0.580060 0.719144 0.125817 0.125437
H12   H     H_    0.259676 0.488169 0.727340 0.130504
H13   H     H_    0.120732 0.201473 0.615495 0.168125
H14   H     H_    0.650478 0.433276 0.716849 0.121701
H15   H     H_    0.738599 0.435490 0.723063 0.131865
H16   H     H_    0.878884 0.192765 0.534129 0.166730
H17   H     H_    0.964284 0.189790 0.543773 0.109977
H18   H     H_    0.034891 0.199536 0.621027 0.113710
H19   H     H_    0.347835 0.489142 0.727200 0.130118
H20   H     H_    0.004080 0.823857 0.639522 0.250114
H21   H     H_    0.977346 0.899799 0.500471 0.219336
H22   H     H_    0.882031 0.883397 0.646115 0.258118
H23   H     H_    0.119967 0.790864 0.391777 0.168083
H24   H     H_    0.884740 0.902648 0.469584 0.237012
H25   H     H_    0.654400 0.565224 0.289706 0.114903
H26   H     H_    0.742577 0.564637 0.296639 0.131779
H27   H     H_    0.033777 0.792963 0.401837 0.123720
H28   H     H_    0.508524 0.112351 0.271543 0.134232
H29   H     H_    0.508725 0.887412 0.271660 0.134088
H30   H     H_    0.455744 0.887871 0.803801 0.147846
N1    N     N_R   0.201768 0.497445 0.503357 -0.398819
N2    N     N_R   0.798143 0.501625 0.515174 -0.408148
N3    N     N_R   0.500300 0.500930 0.147930 -0.230502
N4    N     N_R   0.500310 0.500890 0.852020 -0.231564
N5    N     N_3   0.972043 0.841029 0.585835 -0.661144
N6    N     N_3   0.873276 0.843552 0.549560 -0.531495
O1    O     O_R   0.500000 0.319640 0.618810 -0.504973
O2    O     O_R   0.569730 0.499960 0.618810 -0.506804
O3    O     O_R   0.569740 0.500000 0.381220 -0.502759
O4    O     O_2   0.202624 0.290220 0.575766 -0.492087
O5    O     O_2   0.797738 0.285131 0.519971 -0.487503
O6    O     O_2   0.202280 0.703756 0.427492 -0.491391
O7    O     O_2   0.796011 0.717190 0.510968 -0.443758
O8    O     O_R   0.500010 0.319680 0.381230 -0.512738
O9    O     O_R   0.430260 0.500000 0.618780 -0.504509
O10   O     O_R   0.430270 0.500040 0.381190 -0.502559
O11   O     O_R   0.499990 0.680320 0.618770 -0.497179
O12   O     O_R   0.500000 0.680360 0.381190 -0.505811

loop_
_geom_bond_atom_site_label_1
_geom_bond_atom_site_label_2
_ccdc_geom_bond_type
C10   C27   A    
Cu2   O3    S    
C41   N3    A    
Cu1   Cu2   S    
C8    C13   A    
C22   C29   A    
C4    C53   S    
C14   H15   S    
C35   C36   A    
Cu1   O1    S    
C7    C8    A    
C44   H8    S    
C12   C23   A    
C26   C27   A    
C47   O6    S    
C28   O3    A    
C40   N1    A    
C11   O7    S    
C36   C37   S    
C29   H27   S    
Cu1   N4    S    
C16   C35   S    
C30   C31   A    
C45   C51   A    
Cu1   O11   S    
C1    C31   S    
C30   C38   S    
C28   O2    A    
C18   C19   A    
C41   C42   A    
C33   H29   S    
C18   H26   S    
C16   O12   A    
H21   N5    S    
C20   C24   A    
C8    C9    A    
C4    O10   A    
C49   H19   S    
C9    C10   A    
C38   H5    S    
C12   H2    S    
C24   C51   A    
C23   N1    S    
C21   C22   A    
C44   H9    S    
C2    C6    A    
C41   H6    S    
C40   O4    S    
Cu1   O2    S    
C1    O8    A    
C44   C46   S    
C6    C7    A    
C25   C29   A    
C40   C45   A    
C32   H28   S    
C43   N4    A    
C2    C20   A    
C50   C53   A    
C15   C54   A    
C37   H30   S    
Cu2   O12   S    
C19   N2    S    
C7    H16   S    
C28   C54   S    
C39   C43   A    
C21   C34   A    
H22   N6    S    
C26   N5    S    
C42   N4    A    
C47   N1    A    
H24   N6    S    
C43   C44   S    
C5    C9    A    
C37   C38   S    
C16   O11   A    
C31   C32   A    
C11   N2    A    
C4    O9    A    
C17   C18   A    
C27   N6    S    
C34   C45   A    
C48   H12   S    
C37   H3    S    
C39   C46   S    
C38   H4    S    
C48   C49   A    
C2    C5    A    
Cu2   O8    S    
C6    H17   S    
C15   H14   S    
Cu2   N3    S    
C23   C48   A    
C25   H23   S    
C50   H1    S    
C14   C19   A    
C3    C26   A    
C3    C5    A    
C12   C50   A    
C46   H10   S    
C47   C52   A    
Cu1   O9    S    
C34   C52   A    
C30   C36   A    
C32   C33   A    
C25   C52   A    
Cu2   O10   S    
C46   H11   S    
C24   H18   S    
C49   C53   A    
C17   C54   A    
C13   N2    A    
C33   C35   A    
C17   H25   S    
C13   O5    S    
C10   C11   A    
H20   N5    S    
C20   C21   A    
C1    O1    A    
C14   C15   A    
C3    C22   A    
C51   H13   S    
C42   H7    S    
C39   N3    A    
