data_mof_unit_21931.cif
_audit_creation_date              2012-12-11T16:10:55-0500
_audit_creation_method            fapswitch 2.2
_symmetry_space_group_name_H-M    P1
_symmetry_Int_Tables_number       1
_space_group_crystal_system       triclinic
_cell_length_a                    12.845719
_cell_length_b                    13.304325
_cell_length_c                    26.935628
_cell_angle_alpha                 97.269373
_cell_angle_beta                  90.25856
_cell_angle_gamma                 118.640518
_cell_volume                      3996.42868639

loop_
_atom_site_label
_atom_site_type_symbol
_atom_type_description
_atom_site_fract_x
_atom_site_fract_y
_atom_site_fract_z
_atom_type_partial_charge
C1    C     C_R   0.627864 0.894864 0.424363 0.542400
C2    C     C_1   0.139847 0.823889 0.179484 -0.037297
C3    C     C_1   0.159962 0.837032 0.231857 0.002879
C4    C     C_R   0.601740 0.223533 0.443235 0.545341
C5    C     C_1   0.174326 0.844178 0.276562 0.002972
C6    C     C_1   0.194324 0.851205 0.328580 -0.036991
C7    C     C_1   0.220468 0.859547 0.372385 -0.001999
C8    C     C_1   0.689506 0.799106 0.136149 -0.005418
C9    C     C_1   0.673016 0.808921 0.179979 -0.042660
C10   C     C_1   0.661891 0.818278 0.232072 -0.004960
C11   C     C_1   0.656151 0.827445 0.276826 -0.005061
C12   C     C_R   0.688630 0.436678 0.241670 -0.100168
C13   C     C_1   0.650459 0.842497 0.329205 -0.042816
C14   C     C_1   0.643066 0.861811 0.373500 -0.005136
C15   C     C_1   0.694410 0.384644 0.874832 -0.006973
C16   C     C_R   0.268271 0.875692 0.422520 0.543304
C17   C     C_1   0.686703 0.358334 0.830068 -0.049720
C18   C     C_1   0.679607 0.337780 0.777322 -0.026056
C19   C     C_1   0.671182 0.322687 0.732196 -0.022467
C20   C     C_1   0.655710 0.301690 0.679472 -0.046198
C21   C     C_1   0.635855 0.274953 0.634736 -0.005798
C22   C     C_1   0.210361 0.859909 0.607243 -0.010818
C23   C     C_R   0.681118 0.422162 0.292143 -0.102358
C24   C     C_R   0.180084 0.756948 0.721203 -0.087475
C25   C     C_R   0.173032 0.752739 0.772656 0.009142
C26   C     C_R   0.104894 0.897928 0.779825 -0.003510
C27   C     C_R   0.111763 0.898542 0.727817 -0.115758
C28   C     C_R   0.630264 0.899070 0.564179 0.545037
C29   C     C_R   0.150145 0.829702 0.699108 0.008993
C30   C     C_R   0.136758 0.824273 0.802382 0.043634
C31   C     C_1   0.125676 0.814573 0.854887 -0.060414
C32   C     C_1   0.175828 0.844961 0.648277 -0.060326
C33   C     C_1   0.104532 0.796393 0.897180 -0.020870
C34   C     C_R   0.677182 0.323354 0.306734 0.037452
C35   C     C_1   0.647695 0.867815 0.610918 -0.007425
C36   C     C_R   0.724788 0.933083 0.741584 0.008503
C37   C     C_R   0.710149 0.920520 0.792194 -0.118447
C38   C     C_R   0.571512 0.714365 0.770033 0.006025
C39   C     C_R   0.580502 0.728473 0.719157 -0.126231
C40   C     C_R   0.602978 0.227086 0.582951 0.543476
C41   C     C_R   0.657483 0.836104 0.704865 0.013271
C42   C     C_R   0.637296 0.812459 0.806611 0.014548
C43   C     C_1   0.651100 0.801289 0.858135 -0.068169
C44   C     C_1   0.654927 0.849486 0.652933 -0.057606
C45   C     C_R   0.691652 0.352225 0.205793 0.037488
C46   C     C_1   0.672778 0.790520 0.899852 -0.027154
C47   C     C_R   0.065326 0.771724 0.084157 0.544653
C48   C     C_R   0.716134 0.438684 0.066629 0.544416
C49   C     C_R   0.720355 0.782319 0.086058 0.543333
C50   C     C_R   0.059590 0.765028 0.944247 0.543626
C51   C     C_R   0.709624 0.432221 0.926631 0.542959
C52   C     C_R   0.267485 0.879139 0.561697 0.546302
C53   C     C_R   0.712265 0.775407 0.946344 0.540787
C54   C     C_1   0.636009 0.273310 0.398287 -0.006654
C55   C     C_R   0.682006 0.239676 0.270966 -0.100465
C56   C     C_1   0.697233 0.368432 0.154206 -0.053117
C57   C     C_R   0.689407 0.254148 0.220440 -0.102809
C58   C     C_R   0.498866 0.596519 0.784017 0.032392
C59   C     C_R   0.424999 0.578696 0.824148 -0.088952
C60   C     C_R   0.366194 0.470310 0.840128 -0.107299
C61   C     C_R   0.378202 0.378026 0.815546 -0.104136
C62   C     C_R   0.445436 0.392731 0.773902 -0.107548
C63   C     C_R   0.506620 0.501576 0.758411 -0.094090
C64   C     C_3   0.206087 0.672930 0.795402 -0.400255
C65   C     C_R   0.069787 0.979017 0.808889 0.030017
C66   C     C_R   0.986963 0.943474 0.845669 -0.072951
C67   C     C_1   0.658222 0.301802 0.357463 -0.053237
C68   C     C_R   0.957829 0.022196 0.872856 -0.111972
C69   C     C_R   0.005202 0.134880 0.861885 -0.117109
C70   C     C_R   0.083134 0.169801 0.824064 -0.106232
C71   C     C_R   0.116627 0.093208 0.798186 -0.098776
C72   C     C_R   0.815742 0.046443 0.728589 0.044152
C73   C     C_R   0.820169 0.149947 0.751018 -0.091204
C74   C     C_R   0.910698 0.256875 0.741278 -0.108527
C75   C     C_R   0.997571 0.261538 0.709215 -0.102954
C76   C     C_R   0.994248 0.159281 0.686887 -0.108791
C77   C     C_R   0.904084 0.052201 0.696588 -0.077774
C78   C     C_1   0.703833 0.392827 0.112535 -0.006750
C79   C     C_1   0.113493 0.805335 0.135125 -0.002519
Cr1   Cr    Cr6+3 0.416010 0.828400 0.490230 1.036482
Cr2   Cr    Cr6+3 0.676380 0.087280 0.505260 1.038542
Cr3   Cr    Cr6+3 0.407590 0.084280 0.504540 1.033669
Cr4   Cr    Cr6+3 0.914090 0.832340 0.018020 1.029251
Cr5   Cr    Cr6+3 0.923310 0.576840 0.003860 1.028490
Cr6   Cr    Cr6+3 0.654200 0.573160 0.004700 1.036384
H1    H     H_    0.677785 0.162344 0.282038 0.118790
H2    H     H_    0.312114 0.458129 0.871853 0.109879
H3    H     H_    0.335605 0.295109 0.828802 0.119771
H4    H     H_    0.451664 0.320018 0.754179 0.120458
H5    H     H_    0.562371 0.512164 0.727319 0.110729
H6    H     H_    0.234960 0.625127 0.766952 0.123064
H7    H     H_    0.280388 0.724274 0.824691 0.135657
H8    H     H_    0.128312 0.608464 0.812648 0.138634
H9    H     H_    0.943239 0.854846 0.852977 0.123305
H10   H     H_    0.895813 0.995365 0.901579 0.142409
H11   H     H_    0.980148 0.194593 0.882222 0.109243
H12   H     H_    0.761510 0.994264 0.820702 0.117423
H13   H     H_    0.118122 0.256584 0.814957 0.117580
H14   H     H_    0.179567 0.123549 0.769794 0.099355
H15   H     H_    0.753930 0.147863 0.776211 0.109209
H16   H     H_    0.914013 0.336249 0.758847 0.116749
H17   H     H_    0.067872 0.344415 0.701931 0.109922
H18   H     H_    0.062283 0.162990 0.662457 0.108727
H19   H     H_    0.904631 0.973982 0.679967 0.106348
H20   H     H_    0.527613 0.655308 0.690504 0.109810
H21   H     H_    0.692025 0.188713 0.192909 0.116001
H22   H     H_    0.690699 0.513045 0.230507 0.118485
H23   H     H_    0.676238 0.486588 0.319510 0.115588
H24   H     H_    0.211623 0.705330 0.698347 0.116136
H25   H     H_    0.089523 0.954594 0.709562 0.105002
H26   H     H_    0.414693 0.649145 0.843797 0.106239
O1    O     O_R   0.294740 0.800910 0.434410 -0.503757
O2    O     O_R   0.635480 0.460400 0.052590 -0.504646
O3    O     O_R   0.662650 0.681410 0.060750 -0.494098
O4    O     O_R   0.526010 0.837250 0.440870 -0.494045
O5    O     O_R   0.814500 0.852290 0.965490 -0.525270
O6    O     O_R   0.013160 0.821640 0.966980 -0.495201
O7    O     O_R   0.038850 0.666600 0.954370 -0.509498
O8    O     O_R   0.813260 0.476410 0.948680 -0.499110
O9    O     O_R   0.630060 0.454430 0.944230 -0.501581
O10   O     O_R   0.657630 0.675880 0.960300 -0.487592
O11   O     O_3   0.830530 0.660780 0.008860 -0.252213
O12   O     O_R   0.664100 0.185180 0.560770 -0.490832
O13   O     O_R   0.704290 0.994500 0.446090 -0.504998
O14   O     O_R   0.662870 0.181760 0.460430 -0.494360
O15   O     O_R   0.498970 0.199080 0.457120 -0.504311
O16   O     O_R   0.309350 0.975930 0.448180 -0.493974
O17   O     O_R   0.296060 0.804610 0.542650 -0.506105
O18   O     O_R   0.527240 0.840670 0.541200 -0.495109
O19   O     O_R   0.705610 0.998200 0.554330 -0.502856
O20   O     O_R   0.500290 0.202770 0.565360 -0.509257
O21   O     O_R   0.310570 0.979360 0.548520 -0.496045
O22   O     O_3   0.499990 0.999990 0.500010 -0.254305
O23   O     O_R   0.819910 0.858260 0.073860 -0.504074
O24   O     O_R   0.018180 0.827180 0.067430 -0.492180
O25   O     O_R   0.044260 0.672570 0.062730 -0.504355
O26   O     O_R   0.818270 0.481940 0.049130 -0.494261

loop_
_geom_bond_atom_site_label_1
_geom_bond_atom_site_label_2
_ccdc_geom_bond_type
C73   H15   S    
C66   C68   A    
C49   O23   A    
C47   O25   A    
C27   C29   A    
C50   O6    A    
C73   C74   A    
C19   C20   S    
C47   C79   S    
C69   H11   S    
C37   H12   S    
C52   O17   A    
C39   C41   A    
C12   C23   A    
C45   C57   A    
C26   C27   A    
C62   C63   A    
C22   C32   T    
C4    O14   A    
Cr2   O12   S    
C36   C37   A    
C64   H8    S    
C38   C42   A    
C29   C32   S    
C30   C31   S    
Cr5   O11   S    
C62   H4    S    
C25   C30   A    
C56   C78   T    
C46   C53   S    
C39   H20   S    
C28   O18   A    
C48   C78   S    
C37   C42   A    
C24   C29   A    
Cr3   O15   S    
Cr4   O23   S    
C2    C79   T    
C38   C58   S    
C27   H25   S    
C8    C9    T    
C75   H17   S    
C59   H26   S    
C31   C33   T    
Cr6   O10   S    
C70   C71   A    
C15   C51   S    
C9    C10   S    
Cr4   O24   S    
C53   O5    A    
C66   H9    S    
C47   O24   A    
C76   H18   S    
C49   O3    A    
C59   C60   A    
C13   C14   T    
C36   C41   A    
C61   C62   A    
C16   O16   A    
C60   H2    S    
C51   O9    A    
C38   C39   A    
C68   H10   S    
C74   C75   A    
Cr2   O13   S    
C52   O21   A    
C76   C77   A    
C45   C56   S    
Cr2   O14   S    
C68   C69   A    
C54   C67   T    
Cr1   O17   S    
C58   C59   A    
C65   C71   A    
C71   H14   S    
Cr1   O22   S    
C60   C61   A    
C25   C64   S    
Cr6   O9    S    
C75   C76   A    
C72   C77   A    
C61   H3    S    
C51   O8    A    
Cr1   O4    S    
C23   C34   A    
Cr1   O1    S    
C17   C18   S    
Cr6   O11   S    
C24   C25   A    
C35   C44   T    
C74   H16   S    
C48   O26   A    
C7    C16   S    
C40   O20   A    
Cr5   O26   S    
C26   C30   A    
C55   C57   A    
C41   C44   S    
C42   C43   S    
C64   H7    S    
Cr3   O21   S    
C16   O1    A    
C22   C52   S    
C58   C63   A    
C15   C17   T    
C40   O12   A    
Cr5   O25   S    
Cr1   O18   S    
C4    C54   S    
C50   O7    A    
C26   C65   S    
Cr4   O5    S    
C24   H24   S    
C72   C73   A    
C3    C5    T    
C34   C67   S    
C12   H22   S    
Cr2   O22   S    
C6    C7    T    
C12   C45   A    
C4    O15   A    
Cr4   O6    S    
C55   H1    S    
Cr6   O2    S    
C2    C3    S    
C33   C50   S    
C1    O13   A    
C53   O10   A    
C11   C13   S    
Cr2   O19   S    
C5    C6    S    
C21   C40   S    
Cr3   O22   S    
Cr5   O8    S    
C23   H23   S    
C63   H5    S    
C57   H21   S    
C28   O19   A    
Cr4   O11   S    
C69   C70   A    
C43   C46   T    
Cr3   O16   S    
Cr6   O3    S    
C10   C11   T    
C70   H13   S    
C34   C55   A    
C20   C21   T    
Cr5   O7    S    
C65   C66   A    
C18   C19   T    
C77   H19   S    
C1    C14   S    
C1    O4    A    
C64   H6    S    
Cr3   O20   S    
C28   C35   S    
C8    C49   S    
C36   C72   S    
C48   O2    A    
