data_mof_unit_58876.cif
_audit_creation_date              2012-12-11T14:17:56-0500
_audit_creation_method            fapswitch 2.2
_symmetry_space_group_name_H-M    P1
_symmetry_Int_Tables_number       1
_space_group_crystal_system       triclinic
_cell_length_a                    11.040679
_cell_length_b                    11.012696
_cell_length_c                    18.873736
_cell_angle_alpha                 90.106578
_cell_angle_beta                  90.013163
_cell_angle_gamma                 119.802716
_cell_volume                      1991.30021258

loop_
_atom_site_label
_atom_site_type_symbol
_atom_type_description
_atom_site_fract_x
_atom_site_fract_y
_atom_site_fract_z
_atom_type_partial_charge
C1    C     C_R   0.519972 0.459582 0.147520 0.538547
C2    C     C_R   0.984364 0.422545 0.541169 -0.152325
C3    C     C_R   0.469235 0.069013 0.544458 -0.164059
C4    C     C_R   0.601187 0.544627 0.543112 -0.167201
C5    C     C_R   0.687224 0.896411 0.546872 -0.052182
C6    C     C_R   0.157203 0.809994 0.539993 -0.145985
C7    C     C_R   0.213646 0.309620 0.546601 -0.114172
C8    C     C_R   0.145578 0.758661 0.396207 -0.143843
C9    C     C_R   0.610086 0.862131 0.405886 -0.117438
C10   C     C_R   0.251912 0.387434 0.405725 -0.132055
C11   C     C_R   0.756324 0.855890 0.498571 0.341346
C12   C     C_R   0.540359 0.060041 0.147585 0.538494
C13   C     C_R   0.169700 0.912488 0.491930 0.307275
C14   C     C_R   0.103643 0.239707 0.498143 0.351546
C15   C     C_R   0.169774 0.889233 0.419527 0.322686
C16   C     C_R   0.717936 0.838785 0.426881 0.291531
C17   C     C_R   0.123011 0.277861 0.427222 0.352824
C18   C     C_R   0.520083 0.456910 0.353575 0.528402
C19   C     C_R   0.544142 0.064277 0.353866 0.526124
C20   C     C_R   0.939599 0.481928 0.352771 0.526644
C21   C     C_R   0.450822 0.517785 0.644496 0.540658
C22   C     C_R   0.122044 0.578492 0.638306 0.555741
C23   C     C_R   0.939750 0.479924 0.147507 0.538493
C24   C     C_R   0.482691 0.933949 0.644781 0.535961
C25   C     C_R   0.492315 0.972188 0.929296 0.004196
C26   C     C_R   0.027644 0.520272 0.929191 0.002972
C27   C     C_R   0.479769 0.507329 0.929168 0.004259
C28   C     C_R   0.004541 0.497100 0.077258 -0.003804
C29   C     C_R   0.492696 0.994667 0.077392 -0.004188
C30   C     C_R   0.502532 0.507083 0.077260 -0.003925
C31   C     C_R   0.408006 0.019873 0.961238 0.017337
C32   C     C_R   0.979270 0.387990 0.960692 0.017272
C33   C     C_R   0.611504 0.590834 0.960983 0.016857
C34   C     C_R   0.454029 0.521006 0.854338 0.536979
C35   C     C_R   0.981942 0.379167 0.035525 0.029299
C36   C     C_R   0.396741 0.016634 0.036068 0.029548
C37   C     C_R   0.620028 0.602324 0.035829 0.029357
C38   C     C_R   0.570445 0.942502 0.044751 -0.147319
C39   C     C_R   0.057321 0.627251 0.045025 -0.146722
C40   C     C_R   0.372932 0.429790 0.044704 -0.147089
C41   C     C_R   0.071947 0.639116 0.972414 -0.135812
C42   C     C_R   0.567507 0.928174 0.972116 -0.134764
C43   C     C_R   0.361235 0.432729 0.972098 -0.134927
C44   C     C_R   0.332889 0.068478 0.920752 -0.097181
C45   C     C_R   0.066885 0.545952 0.854375 0.543860
C46   C     C_R   0.930536 0.264700 0.919726 -0.097466
C47   C     C_R   0.734518 0.664962 0.920327 -0.097261
C48   C     C_R   0.960765 0.252420 0.065446 -0.087120
C49   C     C_R   0.290907 0.036833 0.066418 -0.086452
C50   C     C_R   0.746101 0.707735 0.066046 -0.086486
C51   C     C_R   0.236252 0.096862 0.952729 -0.129106
C52   C     C_R   0.901423 0.139139 0.951253 -0.129113
C53   C     C_R   0.859485 0.761056 0.952169 -0.128709
C54   C     C_R   0.918272 0.133808 0.023800 -0.136091
C55   C     C_R   0.214368 0.079355 0.025256 -0.136021
C56   C     C_R   0.478903 0.933149 0.854381 0.537504
C57   C     C_R   0.864498 0.783322 0.024723 -0.136018
C58   C     C_R   0.514282 0.981299 0.571308 0.003670
C59   C     C_R   0.077058 0.557579 0.564387 0.014087
C60   C     C_R   0.467891 0.488815 0.570711 0.007420
C61   C     C_R   0.005995 0.507088 0.421394 0.004972
C62   C     C_R   0.510553 0.014333 0.425672 0.009676
C63   C     C_R   0.503434 0.494052 0.424781 0.013992
C64   C     C_R   0.585015 0.931834 0.525087 -0.022149
C65   C     C_R   0.115299 0.672339 0.517240 -0.032905
C66   C     C_R   0.348696 0.414805 0.524615 -0.009957
C67   C     C_R   0.475172 0.091806 0.472095 -0.108732
C68   C     C_R   0.094902 0.645375 0.444132 -0.033258
C69   C     C_R   0.561179 0.929267 0.452147 -0.026425
C70   C     C_R   0.368262 0.439568 0.451683 -0.025664
C71   C     C_R   0.944096 0.398723 0.470911 -0.129801
C72   C     C_R   0.617773 0.537843 0.470854 -0.134599
Cr1   Cr    Cr6+3 0.768550 0.541320 0.250660 1.014863
Cr2   Cr    Cr6+3 0.458680 0.227230 0.250660 1.020479
Cr3   Cr    Cr6+3 0.772770 0.231450 0.250660 1.021328
Cr4   Cr    Cr6+3 0.541320 0.768550 0.749340 1.000863
Cr5   Cr    Cr6+3 0.227230 0.458680 0.749340 0.990280
Cr6   Cr    Cr6+3 0.231450 0.772770 0.749340 0.994213
H1    H     H_    0.348805 0.086490 0.864394 0.132310
H2    H     H_    0.897675 0.037267 0.048445 0.102460
H3    H     H_    0.138321 0.099444 0.050253 0.101907
H4    H     H_    0.960604 0.859038 0.049607 0.102123
H5    H     H_    0.449023 0.168223 0.452198 0.196561
H6    H     H_    0.863941 0.294584 0.455243 0.197291
H7    H     H_    0.720596 0.567026 0.450827 0.175118
H8    H     H_    0.939334 0.335675 0.577889 0.150799
H9    H     H_    0.430228 0.119873 0.579415 0.133811
H10   H     H_    0.691523 0.589436 0.577677 0.163902
H11   H     H_    0.638198 0.917559 0.075358 0.129777
H12   H     H_    0.913074 0.263400 0.863319 0.133956
H13   H     H_    0.082641 0.719879 0.075940 0.129310
H14   H     H_    0.280618 0.362490 0.075346 0.130322
H15   H     H_    0.118697 0.743261 0.950109 0.151178
H16   H     H_    0.625287 0.881849 0.949493 0.151946
H17   H     H_    0.257410 0.375462 0.949582 0.151870
H18   H     H_    0.731295 0.914838 0.599173 0.178407
H19   H     H_    0.169795 0.840272 0.594431 0.168057
H20   H     H_    0.192002 0.264765 0.598632 0.139449
H21   H     H_    0.150444 0.742288 0.339929 0.108316
H22   H     H_    0.577105 0.843968 0.350960 0.101096
H23   H     H_    0.736085 0.648679 0.863930 0.134986
H24   H     H_    0.264865 0.420488 0.350888 0.096865
H25   H     H_    0.894216 0.796989 0.485767 0.369272
H26   H     H_    0.177962 0.037018 0.566998 0.301259
H27   H     H_    0.975099 0.121820 0.571278 0.301223
H28   H     H_    0.181894 0.959318 0.323844 0.305830
H29   H     H_    0.756305 0.807324 0.329918 0.322046
H30   H     H_    0.048287 0.239290 0.331433 0.307976
H31   H     H_    0.981946 0.243637 0.120435 0.131663
H32   H     H_    0.261293 0.015007 0.121396 0.130131
H33   H     H_    0.754520 0.737956 0.121020 0.131963
H34   H     H_    0.176979 0.130832 0.920995 0.120100
H35   H     H_    0.867429 0.046209 0.919155 0.120394
H36   H     H_    0.952194 0.819666 0.920307 0.121104
O1    O     O_R   0.910960 0.572410 0.171010 -0.521603
O2    O     O_R   0.528530 0.639750 0.824400 -0.509557
O3    O     O_R   0.111220 0.471470 0.824400 -0.507875
O4    O     O_R   0.360250 0.888780 0.824400 -0.511264
O5    O     O_R   0.909330 0.572400 0.331540 -0.507400
O6    O     O_R   0.427600 0.336930 0.331540 -0.497591
O7    O     O_R   0.663070 0.090670 0.331540 -0.497854
O8    O     O_R   0.572400 0.909330 0.668460 -0.541981
O9    O     O_R   0.336930 0.427600 0.668460 -0.549219
O10   O     O_R   0.090670 0.663070 0.668460 -0.525465
O11   O     O_R   0.638240 0.528520 0.324410 -0.494592
O12   O     O_R   0.427590 0.338550 0.171010 -0.520781
O13   O     O_R   0.471480 0.109720 0.324410 -0.493374
O14   O     O_R   0.890280 0.361760 0.324410 -0.494362
O15   O     O_R   0.528520 0.638240 0.675590 -0.499038
O16   O     O_R   0.109720 0.471480 0.675590 -0.510698
O17   O     O_R   0.361760 0.890280 0.675590 -0.530728
O18   O     O_3   0.666667 0.333333 0.250630 -0.249002
O19   O     O_3   0.333333 0.666667 0.749370 -0.260814
O20   O     O_3   0.862277 0.835809 0.523986 -0.695313
O21   O     O_3   0.187808 0.038963 0.514733 -0.653470
O22   O     O_3   0.974680 0.134545 0.519310 -0.643621
O23   O     O_R   0.661450 0.089040 0.171010 -0.521280
O24   O     O_3   0.189923 0.994272 0.373059 -0.611973
O25   O     O_3   0.790691 0.805786 0.378271 -0.678880
O26   O     O_3   0.015053 0.204620 0.380036 -0.618712
O27   O     O_R   0.572410 0.910960 0.828990 -0.524501
O28   O     O_R   0.338550 0.427590 0.828990 -0.526276
O29   O     O_R   0.089040 0.661450 0.828990 -0.521168
O30   O     O_R   0.639750 0.528530 0.175600 -0.516387
O31   O     O_R   0.471470 0.111220 0.175600 -0.516334
O32   O     O_R   0.888780 0.360250 0.175600 -0.516904

loop_
_geom_bond_atom_site_label_1
_geom_bond_atom_site_label_2
_ccdc_geom_bond_type
C25   C31   A    
C26   C32   A    
C51   H34   S    
C47   H23   S    
C7    H20   S    
Cr2   O18   S    
C12   C29   S    
C19   O7    A    
Cr2   O31   S    
C61   C68   A    
C25   C56   S    
C72   H7    S    
C39   C41   A    
Cr2   O12   S    
C52   H35   S    
C27   C33   A    
C67   H5    S    
C29   C36   A    
C62   C67   A    
Cr1   O5    S    
H26   O21   S    
C9    C16   A    
C9    C69   A    
C38   C42   A    
Cr5   O3    S    
C31   C36   A    
C18   O11   A    
C18   C63   S    
H28   O24   S    
C19   C62   S    
C34   O2    A    
C46   C52   A    
Cr3   O14   S    
C11   C16   A    
C20   C61   S    
Cr5   O28   S    
C50   H33   S    
C26   C45   S    
C7    C14   A    
C41   H15   S    
C28   C35   A    
C29   C38   A    
C43   H17   S    
C55   H3    S    
Cr6   O10   S    
C47   C53   A    
C15   O24   S    
Cr4   O27   S    
C61   C71   A    
C48   H31   S    
Cr1   O18   S    
C60   C66   A    
Cr3   O32   S    
C42   H16   S    
C22   O16   A    
C13   O21   S    
C14   C17   A    
C4    C60   A    
Cr5   O19   S    
C35   C48   A    
C39   H13   S    
C52   C54   A    
C54   H2    S    
C6    C65   A    
C27   C34   S    
C58   C64   A    
C23   O32   A    
C8    H21   S    
C31   C44   A    
C3    H9    S    
C32   C35   A    
C10   H24   S    
C1    O12   A    
C21   C60   S    
Cr3   O23   S    
C11   O20   S    
C22   C59   S    
H30   O26   S    
C53   C57   A    
C2    C59   A    
C28   C39   A    
C49   C55   A    
C33   C37   A    
C30   C37   A    
C12   O31   A    
C21   O9    A    
C48   C54   A    
Cr6   O17   S    
C6    H19   S    
Cr5   O9    S    
Cr4   O15   S    
Cr2   O13   S    
C38   H11   S    
C63   C70   A    
C65   C68   A    
C40   C43   A    
C24   O8    A    
C30   C40   A    
C64   C69   A    
C40   H14   S    
C22   O10   A    
C21   O15   A    
H27   O22   S    
C46   H12   S    
C56   O27   A    
C10   C70   A    
C44   C51   A    
C8    C68   A    
C8    C15   A    
C13   C15   A    
C33   C47   A    
C16   O25   S    
C23   C28   S    
C2    C71   A    
C18   O6    A    
C4    C72   A    
C5    H18   S    
C53   H36   S    
C71   H6    S    
C45   O3    A    
C34   O28   A    
H25   O20   S    
Cr6   O4    S    
Cr3   O7    S    
C50   C57   A    
C32   C46   A    
C12   O23   A    
C44   H1    S    
C3    C67   A    
Cr1   O1    S    
C25   C42   A    
Cr4   O19   S    
C5    C11   A    
C4    H10   S    
C9    H22   S    
Cr2   O6    S    
Cr3   O18   S    
C20   O14   A    
C5    C64   A    
Cr4   O8    S    
C1    O30   A    
Cr6   O29   S    
C59   C65   A    
C7    C66   A    
C56   O4    A    
C37   C50   A    
C24   O17   A    
C66   C70   A    
C14   O22   S    
Cr1   O11   S    
C19   O13   A    
C1    C30   S    
Cr4   O2    S    
C2    H8    S    
C17   O26   S    
C51   C55   A    
Cr5   O16   S    
H29   O25   S    
Cr6   O19   S    
C23   O1    A    
C3    C58   A    
C27   C43   A    
C63   C72   A    
C62   C69   A    
C24   C58   S    
C45   O29   A    
C57   H4    S    
C10   C17   A    
C20   O5    A    
C36   C49   A    
C26   C41   A    
C49   H32   S    
C6    C13   A    
Cr1   O30   S    
