data_mof_unit_47161.cif
_audit_creation_date              2012-12-10T17:21:11-0500
_audit_creation_method            fapswitch 2.2
_symmetry_space_group_name_H-M    P1
_symmetry_Int_Tables_number       1
_space_group_crystal_system       triclinic
_cell_length_a                    10.312379
_cell_length_b                    10.774689
_cell_length_c                    11.054454
_cell_angle_alpha                 95.135508
_cell_angle_beta                  93.729218
_cell_angle_gamma                 80.836844
_cell_volume                      1206.13582359

loop_
_atom_site_label
_atom_site_type_symbol
_atom_type_description
_atom_site_fract_x
_atom_site_fract_y
_atom_site_fract_z
_atom_type_partial_charge
C1    C     C_R   0.448823 0.504090 0.269259 0.924223
C2    C     C_3   0.497756 0.879664 0.495768 -0.015042
C3    C     C_3   0.483491 0.942030 0.627253 -0.503583
C4    C     C_3   0.379352 0.942456 0.410235 0.842502
C5    C     C_2   0.431911 0.491442 0.139533 -0.448504
C6    C     C_2   0.482843 0.564104 0.069812 -0.168891
C7    C     C_2   0.569117 0.507531 0.868197 0.180756
C8    C     C_2   0.461096 0.547565 0.936496 0.389227
C9    C     C_2   0.073045 0.509632 0.470293 0.543499
C10   C     C_2   0.925773 0.522241 0.494791 -0.061319
C11   C     C_R   0.501676 0.257635 0.500360 0.848893
C12   C     C_R   0.551804 0.496787 0.733032 0.760557
C13   C     C_R   0.498833 0.742394 0.497910 0.885618
C14   C     C_3   0.645388 0.045698 0.478474 -0.452563
C15   C     C_3   0.634370 0.904874 0.455753 -0.455613
C16   C     C_3   0.467797 0.086986 0.625605 0.313342
C17   C     C_3   0.412409 0.076618 0.389707 0.264669
C18   C     C_3   0.504690 0.120188 0.498664 -0.033572
H1    H     H_    0.884571 0.606284 0.549242 0.111369
N1    N     N_2   0.157300 0.551950 0.551120 0.044475
N2    N     N_2   0.842730 0.448000 0.448950 0.042473
O1    O     O_R   0.568940 0.489540 0.307530 -0.637197
O2    O     O_R   0.348880 0.522880 0.340350 -0.571681
O3    O     O_R   0.610030 0.298130 0.483570 -0.641626
O4    O     O_R   0.389960 0.331470 0.516390 -0.594900
O5    O     O_R   0.651120 0.477120 0.659650 -0.626355
O6    O     O_R   0.431060 0.510460 0.692470 -0.543828
O7    O     O_R   0.610040 0.668530 0.483610 -0.641382
O8    O     O_R   0.389970 0.701870 0.516430 -0.622681
Zn1   Zn    Zn3+2 0.646940 0.477740 0.478080 0.951534
Zn2   Zn    Zn3+2 0.353060 0.522260 0.521920 1.032342
H2    H     H_    0.712747 0.061528 0.559372 0.168640
O9    O     O_3   0.261342 0.949832 0.475278 -0.657985
C19   C     C_3   0.143328 0.017379 0.425102 0.050213
H3    H     H_    0.074600 0.949717 0.396004 0.144394
H4    H     H_    0.154854 0.068627 0.345535 0.122841
C20   C     C_3   0.075422 0.108807 0.522637 -0.734988
H5    H     H_    0.119254 0.196906 0.533905 0.280375
H6    H     H_    0.969114 0.131920 0.499061 0.235748
H7    H     H_    0.082364 0.064759 0.609343 0.251851
O10   O     O_3   0.337436 0.142606 0.652002 -0.572794
C21   C     C_3   0.329323 0.175955 0.778330 0.130575
H8    H     H_    0.377052 0.260985 0.803510 0.145270
H9    H     H_    0.377632 0.097236 0.832361 0.128614
C22   C     C_3   0.186250 0.206105 0.811573 -0.883817
H10   H     H_    0.141686 0.118683 0.806096 0.236597
H11   H     H_    0.180051 0.248240 0.906520 0.207645
H12   H     H_    0.129637 0.273367 0.750131 0.266706
H13   H     H_    0.399929 0.914712 0.670111 0.219802
O11   O     O_3   0.333545 0.582102 0.882180 -0.589449
C23   C     C_3   0.235448 0.540581 0.945856 0.100017
H14   H     H_    0.223886 0.595828 0.035196 0.162319
H15   H     H_    0.260059 0.437454 0.951368 0.135705
C24   C     C_3   0.099150 0.556915 0.883665 -0.730659
H16   H     H_    0.097463 0.492676 0.799944 0.278843
H17   H     H_    0.029518 0.528939 0.944762 0.184872
H18   H     H_    0.063306 0.656251 0.867293 0.272146
H19   H     H_    0.537789 0.637131 0.109705 0.179891
O12   O     O_3   0.692600 0.482672 0.928585 -0.630459
C25   C     C_3   0.774813 0.379592 0.870715 0.152259
H20   H     H_    0.839685 0.415050 0.809649 0.184840
H21   H     H_    0.719013 0.309802 0.818476 0.115732
C26   C     C_3   0.860635 0.309160 0.966476 -0.909867
H22   H     H_    0.795818 0.270719 0.024381 0.264982
H23   H     H_    0.928632 0.230031 0.922842 0.221830
H24   H     H_    0.918326 0.373439 0.022998 0.264414
H25   H     H_    0.391391 0.411398 0.099550 0.142649
O13   O     O_3   0.113760 0.497763 0.352288 -0.629703
C27   C     C_3   0.088287 0.386571 0.287430 0.154174
H26   H     H_    0.990931 0.407835 0.241918 0.191006
H27   H     H_    0.105183 0.304778 0.344234 0.186210
C28   C     C_3   0.177828 0.352986 0.184921 -0.987152
H28   H     H_    0.146472 0.274269 0.124308 0.209781
H29   H     H_    0.170448 0.436072 0.132756 0.266776
H30   H     H_    0.278733 0.324992 0.223317 0.279753
O14   O     O_3   0.892069 0.329631 0.406568 -0.600561
C29   C     C_3   0.814527 0.294155 0.301408 0.221356
H31   H     H_    0.799695 0.366334 0.234133 0.138155
H32   H     H_    0.715994 0.281424 0.319975 0.214583
C30   C     C_3   0.876692 0.167220 0.241662 -1.021766
H33   H     H_    0.891297 0.094295 0.307491 0.260019
H34   H     H_    0.809755 0.134463 0.167202 0.242504
H35   H     H_    0.972046 0.174004 0.204093 0.253713
H36   H     H_    0.690896 0.075946 0.399948 0.248065
O15   O     O_3   0.105714 0.626031 0.646096 -0.597578
C31   C     C_3   0.108166 0.753042 0.625455 0.181388
H37   H     H_    0.005544 0.803724 0.623844 0.095120
H38   H     H_    0.147932 0.765667 0.537072 0.169807
C32   C     C_3   0.186602 0.814551 0.728853 -0.738297
H39   H     H_    0.287002 0.760548 0.738930 0.291844
H40   H     H_    0.193869 0.911583 0.709576 0.207503
H41   H     H_    0.137320 0.821532 0.815690 0.220415
H42   H     H_    0.645633 0.873307 0.357856 0.239783
H43   H     H_    0.717959 0.851943 0.508035 0.190047
H44   H     H_    0.541589 0.121872 0.693991 0.028172
H45   H     H_    0.572291 0.908186 0.685198 0.138895
H46   H     H_    0.323985 0.149509 0.384667 0.060620
O16   O     O_3   0.485030 0.070201 0.282857 -0.628463
C33   C     C_3   0.408798 0.076662 0.172493 0.182837
H47   H     H_    0.303838 0.114287 0.184091 0.111348
H48   H     H_    0.413657 0.981007 0.125206 0.212053
C34   C     C_3   0.470585 0.154660 0.090681 -0.949889
H49   H     H_    0.517323 0.228135 0.146103 0.276323
H50   H     H_    0.548230 0.093807 0.038069 0.241715
H51   H     H_    0.394387 0.200173 0.026917 0.211204
O17   O     O_3   0.379156 0.869066 0.295141 -0.692609
C35   C     C_3   0.272063 0.803236 0.261899 0.143210
H52   H     H_    0.215034 0.783767 0.337314 0.174459
H53   H     H_    0.313903 0.709972 0.224331 0.182126
C36   C     C_3   0.186669 0.858691 0.155475 -0.978201
H54   H     H_    0.244161 0.845907 0.072465 0.261067
H55   H     H_    0.100716 0.808256 0.136810 0.239593
H56   H     H_    0.150096 0.960165 0.172918 0.242107

loop_
_geom_bond_atom_site_label_1
_geom_bond_atom_site_label_2
_ccdc_geom_bond_type
O4    Zn2   S    
C26   H23   S    
C11   C18   S    
C19   C20   S    
O10   C21   S    
C6    H19   S    
C14   H36   S    
C5    H25   S    
C15   H43   S    
C3    H13   S    
C7    C8    D    
C29   H31   S    
N2    O14   S    
C25   C26   S    
C1    C5    S    
C13   O8    A    
C20   H7    S    
C30   H35   S    
C5    C6    D    
C31   H38   S    
C22   H12   S    
O17   C35   S    
C11   O4    A    
C11   O3    A    
C34   H51   S    
C25   H21   S    
C19   H3    S    
C27   H27   S    
C2    C13   S    
C14   C18   S    
C36   H54   S    
C24   H16   S    
O13   C27   S    
C35   H52   S    
C13   O7    A    
C3    H45   S    
C32   H40   S    
C17   O16   S    
C22   H11   S    
C26   H24   S    
C1    O1    A    
C35   H53   S    
C34   H49   S    
C21   H9    S    
C28   H30   S    
C7    O12   S    
C17   C18   S    
C36   H55   S    
C29   H32   S    
C10   N2    D    
C7    C12   S    
C24   H17   S    
C12   O6    A    
O6    Zn2   S    
C23   H14   S    
O14   C29   S    
C30   H34   S    
C31   H37   S    
C28   H28   S    
C6    C8    S    
O15   C31   S    
C4    O17   S    
C12   O5    A    
C25   H20   S    
C23   H15   S    
C21   C22   S    
O2    Zn2   S    
C27   C28   S    
C2    C4    S    
C20   H5    S    
C9    N1    D    
C33   H47   S    
C10   H1    S    
N1    O15   S    
O11   C23   S    
C16   C18   S    
C32   H41   S    
C34   H50   S    
C2    C15   S    
C36   H56   S    
C4    C17   S    
C28   H29   S    
C33   H48   S    
C1    O2    A    
C35   C36   S    
C21   H8    S    
C8    O11   S    
C9    C10   S    
C29   C30   S    
C4    O9    S    
C16   H44   S    
O1    Zn1   S    
C14   H2    S    
C30   H33   S    
C31   C32   S    
C15   H42   S    
O5    Zn1   S    
N2    Zn1   S    
C23   C24   S    
O7    Zn1   S    
C2    C3    S    
C9    O13   S    
O8    Zn2   S    
O9    C19   S    
C19   H4    S    
C27   H26   S    
O3    Zn1   S    
C26   H22   S    
C22   H10   S    
O12   C25   S    
C33   C34   S    
C20   H6    S    
O16   C33   S    
C14   C15   S    
C32   H39   S    
C17   H46   S    
C16   O10   S    
N1    Zn2   S    
C3    C16   S    
C24   H18   S    
