data_mof_unit_67687.cif
_audit_creation_date              2012-12-10T19:48:30-0500
_audit_creation_method            fapswitch 2.2
_symmetry_space_group_name_H-M    P1
_symmetry_Int_Tables_number       1
_space_group_crystal_system       triclinic
_cell_length_a                    11.096137
_cell_length_b                    10.659098
_cell_length_c                    9.458374
_cell_angle_alpha                 91.788622
_cell_angle_beta                  92.03454
_cell_angle_gamma                 90.293452
_cell_volume                      1117.415753

loop_
_atom_site_label
_atom_site_type_symbol
_atom_type_description
_atom_site_fract_x
_atom_site_fract_y
_atom_site_fract_z
_atom_type_partial_charge
C1    C     C_R   0.506025 0.259931 0.498478 0.900937
C2    C     C_R   0.504576 0.740329 0.501968 0.901780
C3    C     C_R   0.871420 0.501671 0.507293 -0.095358
C4    C     C_R   0.127166 0.507747 0.492683 -0.110882
C5    C     C_R   0.943642 0.546778 0.624463 0.113089
C6    C     C_R   0.053645 0.466296 0.374534 0.066091
C7    C     C_3   0.586105 0.046054 0.604116 0.449929
C8    C     C_3   0.439480 0.955167 0.396658 0.464089
C9    C     C_3   0.623805 0.957972 0.482169 0.435089
C10   C     C_3   0.402408 0.041801 0.519174 0.467456
C11   C     C_3   0.510671 0.877299 0.505031 -0.227385
C12   C     C_3   0.513707 0.123254 0.495959 -0.221646
C13   C     C_3   0.473347 0.965151 0.629633 -0.449590
C14   C     C_3   0.552922 0.035798 0.371609 -0.478789
C15   C     C_3   0.500000 0.613094 0.053632 -0.073109
C16   C     C_3   0.499959 0.386714 0.946217 -0.064402
C17   C     C_3   0.406306 0.556235 0.946857 -0.004229
C18   C     C_3   0.593834 0.443756 0.052824 -0.004616
C19   C     C_3   0.593654 0.557201 0.954634 -0.021683
C20   C     C_3   0.406160 0.442705 0.045120 -0.014238
C21   C     C_R   0.261873 0.502347 0.497286 0.793887
C22   C     C_R   0.737634 0.500859 0.502856 0.807161
C23   C     C_R   0.140478 0.535699 0.008908 -0.227055
C24   C     C_R   0.863312 0.482561 0.994030 -0.224845
C25   C     C_R   0.129164 0.547446 0.154594 -0.141347
C26   C     C_R   0.876227 0.466798 0.849045 -0.168344
C27   C     C_R   0.098851 0.442676 0.231866 -0.054214
C28   C     C_R   0.895993 0.570793 0.766355 -0.031241
C29   C     C_R   0.082597 0.324626 0.160595 0.390829
C30   C     C_R   0.893888 0.692685 0.828949 0.418683
C31   C     C_R   0.109308 0.310639 0.017320 0.476856
C32   C     C_R   0.871416 0.709096 0.974547 0.425125
C33   C     C_R   0.136738 0.417169 0.941097 -0.303057
C34   C     C_R   0.861790 0.602638 0.057475 -0.292592
C35   C     C_R   0.928510 0.460322 0.385616 -0.208655
C36   C     C_R   0.069613 0.551002 0.614279 -0.246802
Cu1   Cu    Cu3+1 0.500030 0.499990 0.643150 0.961914
Cu2   Cu    Cu3+1 0.499970 0.500010 0.356850 0.957342
H1    H     H_    0.150958 0.407741 0.829107 0.182849
H2    H     H_    0.852098 0.612964 0.170333 0.183299
H3    H     H_    0.149904 0.619505 0.949016 0.137229
H4    H     H_    0.857752 0.400365 0.057029 0.169840
H5    H     H_    0.132602 0.640224 0.204896 0.176394
H6    H     H_    0.880797 0.372549 0.803175 0.185528
N1    N     N_3   0.500090 0.499970 0.858290 -0.169910
N2    N     N_3   0.499910 0.500030 0.141710 -0.167162
O1    O     O_R   0.500060 0.316850 0.620870 -0.554406
O2    O     O_R   0.499940 0.683150 0.379130 -0.556433
O3    O     O_R   0.500000 0.316860 0.379090 -0.605920
O4    O     O_R   0.500000 0.683140 0.620910 -0.604541
O5    O     O_R   0.319670 0.500010 0.620890 -0.596130
O6    O     O_R   0.680330 0.499990 0.379110 -0.603628
O7    O     O_R   0.319620 0.500010 0.379110 -0.575148
O8    O     O_R   0.680380 0.499990 0.620890 -0.576159
H7    H     H_    0.336761 0.613380 0.893475 0.108457
H8    H     H_    0.665790 0.388291 0.104505 0.116500
H9    H     H_    0.499845 0.708687 0.102878 0.138237
H10   H     H_    0.499847 0.290586 0.897557 0.143978
H11   H     H_    0.662916 0.613541 0.905371 0.127891
H12   H     H_    0.334833 0.386873 0.092348 0.114477
O9    O     O_3   0.024750 0.226798 0.222593 -0.592784
C37   C     C_3   0.106495 0.168439 0.315403 -0.208686
H13   H     H_    0.110664 0.220064 0.419158 0.187129
H14   H     H_    0.198387 0.159401 0.272935 0.173387
H15   H     H_    0.072742 0.072261 0.331296 0.187010
O10   O     O_3   0.903009 0.795632 0.745234 -0.560476
C38   C     C_3   0.016084 0.853811 0.771802 -0.291429
H16   H     H_    0.053369 0.846841 0.882249 0.172760
H17   H     H_    0.005849 0.955091 0.752233 0.207742
H18   H     H_    0.081369 0.812486 0.698038 0.140332
O11   O     O_3   0.096648 0.193681 0.950975 -0.553424
C39   C     C_3   0.209035 0.155678 0.899713 -0.344195
H19   H     H_    0.285526 0.177409 0.976133 0.120009
H20   H     H_    0.225428 0.199063 0.796862 0.216597
H21   H     H_    0.207013 0.052432 0.883011 0.175694
O12   O     O_3   0.868624 0.829378 0.034575 -0.565888
C40   C     C_3   0.757992 0.849585 0.100540 -0.308430
H22   H     H_    0.753362 0.797769 0.200191 0.211538
H23   H     H_    0.679739 0.824859 0.028138 0.115465
H24   H     H_    0.750867 0.950918 0.128711 0.188590
H25   H     H_    0.874238 0.424196 0.296238 0.163519
H26   H     H_    0.123844 0.586697 0.703932 0.137081
O13   O     O_3   0.737188 0.900833 0.466997 -0.576533
C41   C     C_3   0.826150 0.993587 0.451781 -0.223844
H27   H     H_    0.842962 0.048465 0.552267 0.200350
H28   H     H_    0.802936 0.057175 0.363975 0.155890
H29   H     H_    0.911605 0.946016 0.425990 0.182134
O14   O     O_3   0.288270 0.095194 0.536371 -0.605518
C42   C     C_3   0.206543 0.999976 0.568396 -0.403771
H30   H     H_    0.235434 0.952011 0.666125 0.155328
H31   H     H_    0.193860 0.930280 0.479261 0.213329
H32   H     H_    0.118129 0.044017 0.586775 0.178202
O15   O     O_3   0.665331 0.106075 0.705060 -0.592920
C43   C     C_3   0.687033 0.026610 0.818914 -0.262300
H33   H     H_    0.709188 0.929389 0.782696 0.225125
H34   H     H_    0.608032 0.025769 0.887913 0.125457
H35   H     H_    0.765493 0.063989 0.883226 0.220243
O16   O     O_3   0.356645 0.898507 0.296762 -0.575949
C44   C     C_3   0.367048 0.953549 0.164394 -0.331166
H36   H     H_    0.453675 0.927192 0.116405 0.142855
H37   H     H_    0.359599 0.057403 0.172860 0.159058
H38   H     H_    0.292714 0.917678 0.092435 0.183461
H39   H     H_    0.442111 0.933936 0.733144 0.156594
H40   H     H_    0.586486 0.068565 0.269847 0.161016

loop_
_geom_bond_atom_site_label_1
_geom_bond_atom_site_label_2
_ccdc_geom_bond_type
C21   O7    A    
C4    C36   A    
O15   C43   S    
C4    C21   S    
C27   C29   A    
C24   H4    S    
C13   H39   S    
C41   H29   S    
C25   H5    S    
C35   H25   S    
C26   H6    S    
C22   O8    A    
Cu2   O3    S    
C40   H22   S    
C15   C19   S    
C10   O14   S    
C33   H1    S    
C34   H2    S    
Cu1   Cu2   S    
C24   C26   A    
Cu1   O5    S    
C20   H12   S    
Cu2   O6    S    
C5    C36   A    
C17   C20   S    
C6    C35   A    
C7    C9    S    
C18   C19   S    
C8    O16   S    
C37   H14   S    
C2    O4    A    
O13   C41   S    
C36   H26   S    
C23   C33   A    
C31   C33   A    
Cu1   O1    S    
C17   H7    S    
Cu2   O2    S    
C18   H8    S    
C31   O11   S    
O10   C38   S    
C15   H9    S    
C43   H33   S    
C1    C12   S    
C39   H21   S    
C2    C11   S    
C18   N2    S    
C40   H23   S    
C7    C12   S    
C7    O15   S    
C29   O9    S    
C38   H16   S    
O12   C40   S    
C4    C6    A    
C1    O1    A    
C43   H35   S    
C2    O2    A    
C24   C34   A    
C38   H17   S    
C32   C34   A    
C9    C14   S    
C37   H13   S    
C5    C28   S    
C14   H40   S    
C6    C27   S    
C3    C35   A    
C16   C20   S    
C16   C18   S    
C16   H10   S    
C41   H27   S    
C42   H32   S    
C43   H34   S    
C9    C11   S    
C30   O10   S    
C10   C12   S    
C9    O13   S    
Cu1   O8    S    
C39   H20   S    
C44   H37   S    
C12   C14   S    
C42   H31   S    
Cu1   N1    S    
C21   O5    A    
C22   O6    A    
C40   H24   S    
C15   C17   S    
C8    C14   S    
C37   H15   S    
C17   N1    S    
C39   H19   S    
C3    C5    A    
C10   C13   S    
C16   N1    S    
C32   O12   S    
C19   N1    S    
C25   C27   A    
C26   C28   A    
C23   H3    S    
C44   H36   S    
C38   H18   S    
C19   H11   S    
C28   C30   A    
O11   C39   S    
C29   C31   A    
C30   C32   A    
Cu1   O4    S    
C11   C13   S    
Cu2   O7    S    
C8    C11   S    
C23   C25   A    
O9    C37   S    
Cu2   N2    S    
C7    C13   S    
C44   H38   S    
O14   C42   S    
C8    C10   S    
O16   C44   S    
C41   H28   S    
C3    C22   S    
C15   N2    S    
C42   H30   S    
C1    O3    A    
C20   N2    S    
