data_mof_unit_39890.cif
_audit_creation_date              2012-12-10T20:27:53-0500
_audit_creation_method            fapswitch 2.2
_symmetry_space_group_name_H-M    P1
_symmetry_Int_Tables_number       1
_space_group_crystal_system       triclinic
_cell_length_a                    12.835306
_cell_length_b                    10.691001
_cell_length_c                    9.856383
_cell_angle_alpha                 89.26861
_cell_angle_beta                  97.829178
_cell_angle_gamma                 90.680494
_cell_volume                      1339.72857424

loop_
_atom_site_label
_atom_site_type_symbol
_atom_type_description
_atom_site_fract_x
_atom_site_fract_y
_atom_site_fract_z
_atom_type_partial_charge
C1    C     C_R   0.503870 0.259688 0.501079 0.894832
C2    C     C_R   0.031015 0.549231 0.565493 0.123537
C3    C     C_R   0.971745 0.521008 0.437838 0.104678
C4    C     C_R   0.865340 0.498928 0.429022 -0.228095
C5    C     C_R   0.873083 0.532401 0.673173 -0.193625
C6    C     C_R   0.980742 0.553318 0.683387 -0.150950
C7    C     C_R   0.548542 0.061902 0.624477 0.134420
C8    C     C_R   0.522600 0.128325 0.502085 -0.143607
C9    C     C_R   0.520673 0.066099 0.376916 -0.184410
C10   C     C_R   0.521438 0.936980 0.375920 -0.194106
C11   C     C_R   0.524266 0.871078 0.500118 -0.102348
C12   C     C_R   0.299039 0.516598 0.472449 0.931540
C13   C     C_R   0.549209 0.933991 0.623212 0.084615
C14   C     C_3   0.504587 0.921785 0.754827 -0.468590
C15   C     C_3   0.503324 0.063598 0.756313 -0.032452
C16   C     C_R   0.413235 0.461408 0.056365 0.278543
C17   C     C_R   0.582522 0.548410 0.085847 -0.117802
C18   C     C_R   0.582772 0.547795 0.941857 -0.108731
C19   C     C_R   0.412046 0.464555 0.913865 0.287613
C20   C     C_3   0.356781 0.341608 0.897839 -0.498031
C21   C     C_3   0.362729 0.334925 0.052565 -0.489449
C22   C     C_R   0.504507 0.740020 0.499842 0.891019
C23   C     C_R   0.702376 0.499555 0.527629 0.882152
C24   C     C_R   0.815459 0.507205 0.545295 -0.052162
C25   C     C_R   0.187238 0.545095 0.454600 -0.178687
C26   C     C_R   0.017872 0.522996 0.318248 -0.232030
C27   C     C_R   0.125239 0.538451 0.325091 0.154104
C28   C     C_R   0.138746 0.571448 0.571214 0.066379
H1    H     H_    0.820949 0.478723 0.329814 0.161931
H2    H     H_    0.561173 0.878756 0.837129 0.226333
H3    H     H_    0.422017 0.100179 0.742780 0.141392
H4    H     H_    0.649825 0.585862 0.151264 0.152421
H5    H     H_    0.650317 0.584215 0.898950 0.145774
H6    H     H_    0.275217 0.350734 0.844102 0.224473
H7    H     H_    0.404527 0.270831 0.855788 0.228092
H8    H     H_    0.284306 0.334168 0.087941 0.232971
H9    H     H_    0.417031 0.261653 0.100346 0.220356
H10   H     H_    0.834866 0.538581 0.764276 0.164731
H11   H     H_    0.970222 0.513745 0.219131 0.168638
H12   H     H_    0.023419 0.571153 0.783656 0.191522
H13   H     H_    0.509943 0.115528 0.279519 0.184971
H14   H     H_    0.510731 0.890018 0.278163 0.186875
H15   H     H_    0.424484 0.879062 0.741954 0.220154
N1    N     N_R   0.499290 0.499140 0.142710 -0.113036
N2    N     N_R   0.499290 0.499180 0.857070 -0.105867
O1    O     O_R   0.500010 0.316790 0.614690 -0.605487
O2    O     O_R   0.500000 0.316760 0.385350 -0.620023
O3    O     O_R   0.346360 0.499990 0.595720 -0.598476
O4    O     O_R   0.346350 0.499960 0.366370 -0.592534
O5    O     O_R   0.500000 0.683240 0.614650 -0.613347
O6    O     O_R   0.499990 0.683210 0.385310 -0.620950
O7    O     O_R   0.653650 0.500040 0.633630 -0.622233
O8    O     O_R   0.653640 0.500010 0.404280 -0.632368
Zn1   Zn    Zn3+2 0.500010 0.500020 0.653130 0.980820
Zn2   Zn    Zn3+2 0.499990 0.499980 0.346870 0.975791
I1    I     I_    0.613026 0.141208 0.918126 -0.396948
I2    I     I_    0.178849 0.576213 0.134646 -0.375631
I3    I     I_    0.220946 0.673301 0.740818 -0.368702

loop_
_geom_bond_atom_site_label_1
_geom_bond_atom_site_label_2
_ccdc_geom_bond_type
C8    C9    A    
C23   C24   S    
C19   N2    A    
C12   O4    A    
C16   C21   S    
C28   I3    S    
C10   H14   S    
C1    C8    S    
C9    C10   A    
C16   N1    A    
C11   C22   S    
C9    H13   S    
C19   C20   S    
C22   O5    A    
C12   C25   S    
C12   O3    A    
C20   H6    S    
C15   I1    S    
O1    Zn1   S    
C7    C15   S    
C17   C18   A    
C23   O7    A    
C17   N1    A    
C7    C8    A    
C21   H8    S    
C2    C6    A    
C5    H10   S    
C25   C28   A    
O3    Zn1   S    
C11   C13   A    
N1    Zn2   S    
C26   C27   A    
O5    Zn1   S    
C5    C24   A    
C14   H2    S    
C16   C19   A    
C1    O1    A    
O7    Zn1   S    
N2    Zn1   S    
C23   O8    A    
C2    C3    A    
O8    Zn2   S    
C5    C6    A    
C4    C24   A    
C18   H5    S    
C6    H12   S    
C26   H11   S    
C25   C27   A    
C10   C11   A    
C3    C4    A    
C18   N2    A    
C7    C13   A    
C21   H9    S    
C20   C21   S    
O2    Zn2   S    
C27   I2    S    
C17   H4    S    
C14   C15   S    
C22   O6    A    
C2    C28   A    
O6    Zn2   S    
C13   C14   S    
C20   H7    S    
C15   H3    S    
C3    C26   A    
C1    O2    A    
C4    H1    S    
C14   H15   S    
O4    Zn2   S    
