data_mof_unit_55676.cif
_audit_creation_date              2012-12-11T16:22:16-0500
_audit_creation_method            fapswitch 2.2
_symmetry_space_group_name_H-M    P1
_symmetry_Int_Tables_number       1
_space_group_crystal_system       triclinic
_cell_length_a                    13.479472
_cell_length_b                    14.034932
_cell_length_c                    30.037129
_cell_angle_alpha                 98.178219
_cell_angle_beta                  89.928758
_cell_angle_gamma                 118.740252
_cell_volume                      4917.03245165

loop_
_atom_site_label
_atom_site_type_symbol
_atom_type_description
_atom_site_fract_x
_atom_site_fract_y
_atom_site_fract_z
_atom_type_partial_charge
C1    C     C_R   0.721343 0.099284 0.569055 0.544038
C2    C     C_1   0.365543 0.646404 0.761453 0.082933
C3    C     C_1   0.372332 0.657669 0.722512 0.125058
C4    C     C_R   0.383626 0.789387 0.551477 0.589054
C5    C     C_R   0.300933 0.596064 0.896438 -0.007280
C6    C     C_3   0.218957 0.139407 0.723124 -0.086728
C7    C     C_3   0.236887 0.066381 0.752871 -0.081668
C8    C     C_1   0.295855 0.198977 0.876074 0.027403
C9    C     C_1   0.363024 0.138450 0.613237 0.062262
C10   C     C_3   0.292446 0.242669 0.758666 -0.110668
C11   C     C_3   0.310694 0.169381 0.787533 0.039258
C12   C     C_R   0.370142 0.676045 0.676853 -0.010340
C13   C     C_3   0.400554 0.260653 0.734796 -0.100831
C14   C     C_3   0.326980 0.157709 0.700082 0.038334
C15   C     C_3   0.418513 0.187672 0.764364 -0.082314
C16   C     C_R   0.396898 0.119280 0.569362 0.562179
C17   C     C_3   0.345072 0.084477 0.728986 -0.085233
C18   C     C_1   0.303051 0.180984 0.836242 -0.014482
C19   C     C_1   0.342540 0.149421 0.651945 0.010980
C20   C     C_3   0.928491 0.248172 0.731983 0.102314
C21   C     C_3   0.856554 0.275172 0.766524 0.104624
C22   C     C_1   0.894623 0.203076 0.878722 0.044851
C23   C     C_R   0.304183 0.723080 0.667493 -0.117181
C24   C     C_1   0.770241 0.132436 0.614369 0.058766
C25   C     C_3   0.917833 0.154811 0.757140 -0.165519
C26   C     C_3   0.844999 0.181751 0.791161 -0.009909
C27   C     C_3   0.807916 0.073112 0.727467 0.195761
C28   C     C_R   0.718280 0.093630 0.441841 0.562758
C29   C     C_3   0.819184 0.165631 0.702636 -0.010091
C30   C     C_3   0.736619 0.099742 0.761635 0.212350
C31   C     C_3   0.746267 0.192422 0.736602 -0.157028
C32   C     C_1   0.866094 0.191678 0.839635 0.039621
C33   C     C_1   0.798227 0.151679 0.653935 0.046572
C34   C     C_R   0.301418 0.753324 0.625922 0.035090
C35   C     C_3   0.242455 0.615689 0.258407 -0.155977
C36   C     C_3   0.279490 0.708750 0.229898 0.246520
C37   C     C_1   0.310183 0.609469 0.111010 0.038703
C38   C     C_1   0.366414 0.735166 0.378309 0.086097
C39   C     C_3   0.306216 0.566974 0.228283 -0.156920
C40   C     C_R   0.382085 0.783819 0.424509 0.574731
C41   C     C_3   0.342355 0.660820 0.200186 0.001645
C42   C     C_3   0.416614 0.639141 0.259724 -0.148862
C43   C     C_3   0.352662 0.687358 0.289106 -0.003998
C44   C     C_3   0.452767 0.732700 0.230827 -0.117344
C45   C     C_R   0.236039 0.592707 0.820563 -0.114632
C46   C     C_3   0.388404 0.779961 0.260812 0.301376
C47   C     C_1   0.329679 0.638626 0.151042 0.017587
C48   C     C_1   0.358456 0.707543 0.338223 0.039351
C49   C     C_R   0.356228 0.134980 0.401088 0.019213
C50   C     C_R   0.436276 0.224861 0.381789 -0.139560
C51   C     C_R   0.419642 0.233031 0.337270 -0.126160
C52   C     C_R   0.395172 0.114779 0.443148 0.572519
C53   C     C_R   0.322096 0.152796 0.311390 0.002068
C54   C     C_R   0.236187 0.069473 0.330836 -0.018183
C55   C     C_R   0.251019 0.059876 0.375850 0.257871
C56   C     C_R   0.213310 0.574230 0.864549 -0.143885
C57   C     C_R   0.255958 0.083064 0.144526 -0.049376
C58   C     C_R   0.253085 0.100724 0.099904 0.240045
C59   C     C_R   0.391037 0.294271 0.124161 -0.163786
C60   C     C_R   0.393973 0.275026 0.168007 -0.139374
C61   C     C_R   0.323198 0.170807 0.178440 -0.010360
C62   C     C_1   0.316521 0.157240 0.224616 0.026093
C63   C     C_1   0.315373 0.152725 0.264092 0.026038
C64   C     C_R   0.363447 0.732590 0.591347 -0.017372
C65   C     C_R   0.316469 0.209450 0.090070 0.007400
C66   C     C_R   0.776447 0.129849 0.400578 0.017386
C67   C     C_R   0.414735 0.645604 0.884086 0.192438
C68   C     C_R   0.791994 0.058031 0.365975 0.262194
C69   C     C_R   0.821646 0.090892 0.323942 -0.049900
C70   C     C_R   0.833794 0.190642 0.315334 0.004553
C71   C     C_R   0.827386 0.264621 0.349700 -0.117935
C72   C     C_R   0.800502 0.235087 0.392190 -0.149201
C73   C     C_R   0.878488 0.309952 0.164914 -0.104623
C74   C     C_R   0.902672 0.313050 0.119859 -0.112853
C75   C     C_R   0.861035 0.122368 0.110316 -0.103329
C76   C     C_R   0.418154 0.669978 0.598472 0.224268
C77   C     C_R   0.836177 0.119330 0.155268 -0.095094
C78   C     C_R   0.436048 0.662583 0.839308 -0.043897
C79   C     C_R   0.849071 0.214228 0.182871 0.033159
C80   C     C_1   0.843855 0.215281 0.230330 -0.009189
C81   C     C_1   0.841010 0.209392 0.269731 -0.004986
C82   C     C_R   0.899162 0.220706 0.092752 0.013005
C83   C     C_R   0.283958 0.232636 0.921942 0.554895
C84   C     C_R   0.267182 0.548134 0.938239 0.567478
C85   C     C_R   0.944837 0.221787 0.923059 0.547350
C86   C     C_R   0.293408 0.242519 0.048547 0.567702
C87   C     C_R   0.275512 0.559213 0.065030 0.561367
C88   C     C_R   0.428706 0.648526 0.642849 0.240423
C89   C     C_R   0.346489 0.633382 0.807563 -0.008312
C90   C     C_R   0.953953 0.233452 0.050002 0.538600
Cr1   Cr    Cr6+3 0.583430 0.162610 0.509470 1.066539
Cr2   Cr    Cr6+3 0.584210 0.916680 0.495400 1.202308
Cr3   Cr    Cr6+3 0.332380 0.920740 0.495100 1.171993
Cr4   Cr    Cr6+3 0.086810 0.177030 0.983130 1.148686
Cr5   Cr    Cr6+3 0.337180 0.419300 0.994610 1.134025
Cr6   Cr    Cr6+3 0.084840 0.422330 0.995830 1.066399
H1    H     H_    0.125617 0.536426 0.872787 0.176478
H2    H     H_    0.156405 0.567930 0.269956 0.130547
H3    H     H_    0.538569 0.781521 0.219268 0.141829
H4    H     H_    0.472503 0.609783 0.272625 0.144810
H5    H     H_    0.272524 0.478614 0.214174 0.132463
H6    H     H_    0.203515 0.001841 0.153109 0.212763
H7    H     H_    0.159778 0.009294 0.310226 0.198611
H8    H     H_    0.257718 0.741281 0.693819 0.171467
H9    H     H_    0.516398 0.285382 0.399950 0.156878
H10   H     H_    0.447316 0.342970 0.194241 0.126949
H11   H     H_    0.441348 0.377999 0.117844 0.154325
H12   H     H_    0.137400 0.120115 0.705627 0.169433
H13   H     H_    0.485818 0.298937 0.322360 0.126743
H14   H     H_    0.931831 0.390086 0.107293 0.163768
H15   H     H_    0.888559 0.383644 0.186216 0.144432
H16   H     H_    0.837790 0.342746 0.343149 0.133331
H17   H     H_    0.791168 0.292467 0.417702 0.150305
H18   H     H_    0.813060 0.044803 0.169137 0.133833
H19   H     H_    0.857276 0.050039 0.090239 0.173373
H20   H     H_    0.828243 0.035555 0.296541 0.149446
H21   H     H_    0.522000 0.697331 0.829024 0.205465
H22   H     H_    0.170030 0.986514 0.760920 0.150197
H23   H     H_    0.366294 0.018920 0.716028 0.147338
H24   H     H_    0.525233 0.976445 0.715911 0.319361
H25   H     H_    0.840346 0.904899 0.759396 0.333865
H26   H     H_    0.119534 0.759449 0.274505 0.347496
H27   H     H_    0.496560 0.072451 0.256701 0.358507
H28   H     H_    0.107588 0.809751 0.050459 0.381632
H29   H     H_    0.964363 0.833598 0.372262 0.401230
H30   H     H_    0.735506 0.834286 0.302581 0.342392
H31   H     H_    0.477428 0.464793 0.531781 0.371659
H32   H     H_    0.490515 0.792550 0.970606 0.344942
H33   H     H_    0.377589 0.437451 0.671138 0.333451
H34   H     H_    0.500351 0.207357 0.781708 0.172162
H35   H     H_    0.467394 0.340571 0.726761 0.172105
H36   H     H_    0.270747 0.307999 0.771593 0.141423
H37   H     H_    0.675628 0.207635 0.727862 0.132376
H38   H     H_    0.166667 0.572121 0.796234 0.179211
H39   H     H_    0.987824 0.138633 0.765836 0.124716
I1    I     I_    0.889634 0.434831 0.798243 -0.299367
I2    I     I_    0.083060 0.362798 0.707700 -0.398624
I3    I     I_    0.203703 0.835106 0.622345 -0.268392
O1    O     O_R   0.493980 0.188910 0.559650 -0.488840
O2    O     O_R   0.170560 0.527890 0.952050 -0.511949
O3    O     O_R   0.987620 0.318470 0.945550 -0.497734
O4    O     O_R   0.678640 0.153520 0.554450 -0.503449
O5    O     O_R   0.976400 0.159270 0.031530 -0.477266
O6    O     O_R   0.194000 0.188570 0.028560 -0.434812
O7    O     O_R   0.365260 0.335720 0.039020 -0.520033
O8    O     O_R   0.330440 0.515580 0.044910 -0.486840
O9    O     O_R   0.177310 0.536200 0.050190 -0.488307
O10   O     O_R   0.993870 0.326170 0.036530 -0.507371
O11   O     O_3   0.169610 0.339550 0.991190 -0.297172
O12   O     O_R   0.480180 0.824400 0.444640 -0.452255
O13   O     O_R   0.698130 0.004030 0.549500 -0.463031
O14   O     O_R   0.481060 0.827210 0.535360 -0.451648
O15   O     O_R   0.309260 0.811560 0.537660 -0.478209
O16   O     O_R   0.341620 0.023400 0.546290 -0.476100
O17   O     O_R   0.493030 0.185890 0.461780 -0.527499
O18   O     O_R   0.677760 0.150720 0.463730 -0.517494
O19   O     O_R   0.697180 0.001010 0.451640 -0.418853
O20   O     O_2   0.631559 0.928168 0.806014 -0.200485
O21   O     O_2   0.562591 0.062064 0.813399 -0.277131
O22   O     O_3   0.511405 0.926035 0.737968 -0.490032
O23   O     O_R   0.308310 0.808540 0.439800 -0.462147
O24   O     O_2   0.667713 0.885899 0.672325 -0.216253
O25   O     O_2   0.871427 0.948373 0.671349 -0.244009
O26   O     O_3   0.768278 0.861593 0.740144 -0.396094
O27   O     O_2   0.250047 0.837376 0.179192 -0.189671
O28   O     O_2   0.085287 0.657952 0.183482 -0.287069
O29   O     O_3   0.146544 0.812907 0.253137 -0.460274
O30   O     O_2   0.363695 0.935030 0.315117 -0.271668
O31   O     O_2   0.556713 0.962612 0.309180 -0.307049
O32   O     O_3   0.462179 0.994834 0.241618 -0.476699
O33   O     O_2   0.053967 0.974563 0.051834 -0.261806
O34   O     O_R   0.340740 0.020600 0.455570 -0.422172
O35   O     O_2   0.224774 0.998947 0.014340 -0.264886
O36   O     O_3   0.156028 0.870362 0.074979 -0.482624
O37   O     O_2   0.160987 0.856641 0.395817 -0.263151
O38   O     O_2   0.122545 0.988737 0.445130 -0.236430
O39   O     O_3   0.016522 0.907961 0.365397 -0.463581
O40   O     O_2   0.832368 0.927152 0.411523 -0.182654
O41   O     O_2   0.641124 0.850809 0.375360 -0.269564
O42   O     O_3   0.802341 0.867278 0.324748 -0.504867
O43   O     O_2   0.394451 0.597566 0.508653 -0.298063
O44   O     O_2   0.585789 0.686541 0.546273 -0.208495
O45   O     O_3   0.500010 0.000010 0.499990 -0.308266
O46   O     O_3   0.442818 0.486613 0.557587 -0.437757
O47   O     O_2   0.552270 0.592861 0.925523 -0.213077
O48   O     O_2   0.636923 0.780113 0.908382 -0.236018
O49   O     O_3   0.506736 0.732506 0.974792 -0.488250
O50   O     O_2   0.613747 0.622245 0.628090 -0.111748
O51   O     O_2   0.561926 0.630535 0.705398 -0.227309
O52   O     O_3   0.435987 0.452821 0.649071 -0.477922
O53   O     O_R   0.969650 0.150960 0.933380 -0.482528
O54   O     O_R   0.187740 0.180870 0.937580 -0.484211
O55   O     O_R   0.358510 0.327410 0.940870 -0.475363
O56   O     O_R   0.324180 0.507870 0.953930 -0.429900
S1    S     S_3+6 0.608072 0.002328 0.781591 0.055393
S2    S     S_3+6 0.515118 0.590819 0.656953 0.134295
S3    S     S_3+6 0.778068 0.939153 0.700830 0.099632
S4    S     S_3+6 0.187777 0.754362 0.209598 0.070993
S5    S     S_3+6 0.444472 0.922022 0.283622 0.033793
S6    S     S_3+6 0.169647 0.985211 0.058243 0.041807
S7    S     S_3+6 0.137088 0.951071 0.397363 0.057867
S8    S     S_3+6 0.765310 0.923106 0.370686 0.066800
S9    S     S_3+6 0.462272 0.611367 0.551100 0.089658
S10   S     S_3+6 0.532156 0.688525 0.923207 0.061066

loop_
_geom_bond_atom_site_label_1
_geom_bond_atom_site_label_2
_ccdc_geom_bond_type
Cr6   O2    S    
C8    C83   S    
C66   C68   A    
C21   C26   S    
Cr3   O34   S    
C26   C32   S    
C87   O8    A    
Cr1   O45   S    
C27   C29   S    
H32   O49   S    
C53   C63   S    
C73   C74   A    
C88   S2    S    
C5    C56   A    
C28   C66   S    
C35   C36   S    
C27   S3    S    
C5    C67   A    
C52   O34   A    
C67   S10   S    
C76   S9    S    
C86   O6    A    
C65   C86   S    
C39   C41   S    
C53   C54   A    
C52   O17   A    
O21   S1    D    
C57   H6    S    
Cr5   O8    S    
C12   C23   A    
C58   S6    S    
C45   H38   S    
C62   C63   T    
C22   C32   T    
Cr4   O5    S    
O47   S10   D    
Cr3   O16   S    
O30   S5    D    
C9    C16   S    
C36   S4    S    
O42   S8    S    
C69   C70   A    
C30   C31   S    
C44   H3    S    
C11   C18   S    
H28   O36   S    
C20   C25   S    
C55   S7    S    
C29   C33   S    
C85   O53   A    
C22   C85   S    
C70   C81   S    
Cr4   O53   S    
C90   O10   A    
C3    C12   S    
Cr6   O3    S    
C11   C15   S    
C9    C19   T    
C66   C72   A    
C23   H8    S    
C45   C56   A    
C84   O56   A    
C68   C69   A    
C7    C17   S    
Cr5   O7    S    
Cr2   O14   S    
C50   H9    S    
C39   H5    S    
C70   C71   A    
Cr5   O11   S    
C37   C47   T    
C35   H2    S    
C35   C43   S    
C43   C48   S    
C76   C88   A    
C21   I1    S    
C38   C48   T    
C90   O5    A    
O52   S2    S    
O31   S5    D    
Cr1   O4    S    
C46   S5    S    
C23   C34   A    
C4    O15   A    
C59   C60   A    
C51   H13   S    
O46   S9    S    
C13   C14   S    
H33   O52   S    
C27   C30   S    
H31   O46   S    
C7    H22   S    
C36   C41   S    
O43   S9    D    
C67   C78   A    
C42   C44   S    
C56   H1    S    
C74   C82   A    
C4    O14   A    
C14   C19   S    
C34   C64   A    
O32   S5    S    
Cr2   O12   S    
C44   C46   S    
C73   H15   S    
C39   C42   S    
Cr4   O54   S    
C20   C29   S    
C77   C79   A    
C78   C89   A    
C41   C47   S    
Cr6   O10   S    
C12   C88   A    
C68   S8    S    
O44   S9    D    
C54   H7    S    
C78   H21   S    
O37   S7    D    
C85   O3    A    
C31   H37   S    
C5    C84   S    
C25   C26   S    
C49   C55   A    
H25   O26   S    
C72   H17   S    
C10   C13   S    
C59   H11   S    
Cr2   O19   S    
Cr4   O11   S    
C20   I2    S    
C1    O4    A    
C2    C89   S    
C35   C39   S    
O28   S4    D    
Cr1   O17   S    
O33   S6    D    
C42   H4    S    
C6    C14   S    
C21   C31   S    
C83   O54   A    
C58   C65   A    
C7    C11   S    
C30   S1    S    
O24   S3    D    
O41   S8    D    
Cr3   O23   S    
C49   C52   S    
C71   H16   S    
Cr2   O13   S    
C8    C18   T    
C50   C51   A    
C64   C76   A    
C40   O12   A    
C36   C46   S    
C75   C77   A    
O25   S3    D    
C87   O9    A    
O22   S1    S    
Cr1   O1    S    
H26   O29   S    
C13   H35   S    
H30   O42   S    
C26   C30   S    
Cr5   O56   S    
O40   S8    D    
C16   O16   A    
C41   C44   S    
O39   S7    S    
C16   O1    A    
C75   H19   S    
C42   C43   S    
H29   O39   S    
C77   H18   S    
C86   O7    A    
C84   O2    A    
O48   S10   D    
C60   H10   S    
O26   S3    S    
H24   O22   S    
C15   C17   S    
Cr6   O9    S    
C54   C55   A    
C45   C89   A    
O38   S7    D    
C37   C87   S    
C24   C33   T    
C69   H20   S    
C80   C81   T    
C73   C79   A    
Cr2   O45   S    
C6    C10   S    
C75   C82   A    
C57   C61   A    
C6    C7    S    
C25   C27   S    
C4    C64   S    
O36   S6    S    
O20   S1    D    
C82   C90   S    
Cr4   O6    S    
C13   C15   S    
C2    C3    T    
C40   O23   A    
C29   C31   S    
O27   S4    D    
C59   C65   A    
C38   C40   S    
Cr3   O45   S    
O51   S2    D    
C57   C58   A    
C15   H34   S    
Cr6   O11   S    
O49   S10   S    
Cr3   O15   S    
C28   O19   A    
O29   S4    S    
C34   I3    S    
C1    O13   A    
C61   C62   S    
C25   H39   S    
C43   C46   S    
C10   H36   S    
H27   O32   S    
C10   C11   S    
C17   H23   S    
C79   C80   S    
C71   C72   A    
Cr1   O18   S    
C20   C21   S    
O50   S2    D    
C1    C24   S    
Cr5   O55   S    
C49   C50   A    
C28   O18   A    
C6    H12   S    
C60   C61   A    
C51   C53   A    
C74   H14   S    
C83   O55   A    
O35   S6    D    
C14   C17   S    
