data_mof_unit_17797.cif
_audit_creation_date              2012-12-10T17:02:04-0500
_audit_creation_method            fapswitch 2.2
_symmetry_space_group_name_H-M    P1
_symmetry_Int_Tables_number       1
_space_group_crystal_system       triclinic
_cell_length_a                    10.770782
_cell_length_b                    11.038211
_cell_length_c                    9.873742
_cell_angle_alpha                 111.321742
_cell_angle_beta                  98.111464
_cell_angle_gamma                 91.293194
_cell_volume                      1079.12270566

loop_
_atom_site_label
_atom_site_type_symbol
_atom_type_description
_atom_site_fract_x
_atom_site_fract_y
_atom_site_fract_z
_atom_type_partial_charge
C1    C     C_R   0.490885 0.254087 0.440499 0.873560
C2    C     C_R   0.080991 0.620878 0.598853 0.011770
C3    C     C_R   0.129297 0.508346 0.504480 -0.121790
C4    C     C_R   0.049204 0.401189 0.405733 0.404156
C5    C     C_R   0.920014 0.404471 0.404030 -0.287378
C6    C     C_R   0.871031 0.512126 0.499941 -0.107269
C7    C     C_2   0.486023 0.114419 0.407091 -0.321061
C8    C     C_2   0.502627 0.069644 0.516347 -0.154980
C9    C     C_2   0.514340 0.885550 0.593009 -0.339761
C10   C     C_2   0.498131 0.930357 0.483783 -0.117411
C11   C     C_2   0.520514 0.503644 0.083575 0.499861
C12   C     C_R   0.262893 0.502456 0.501729 0.847523
C13   C     C_2   0.500451 0.482329 0.920486 0.020600
C14   C     C_R   0.509243 0.745905 0.559517 0.831783
C15   C     C_R   0.737264 0.504153 0.499855 0.809491
C16   C     C_R   0.159722 0.733028 0.691793 -0.200421
C17   C     C_R   0.109579 0.843133 0.782221 -0.228583
C18   C     C_R   0.979332 0.845267 0.780758 0.468764
C19   C     C_R   0.900444 0.735981 0.687647 -0.143448
C20   C     C_R   0.949770 0.622615 0.596662 0.012247
Cu1   Cu    Cu3+1 0.521920 0.521810 0.644910 0.975116
Cu2   Cu    Cu3+1 0.478080 0.478190 0.355090 1.010591
H1    H     H_    0.800208 0.742194 0.685923 0.150432
H2    H     H_    0.857316 0.321215 0.330414 0.146359
H3    H     H_    0.519688 0.135975 0.630999 0.178904
H4    H     H_    0.531269 0.952118 0.707486 0.159370
N1    N     N_2   0.445130 0.445430 0.137370 -0.312772
N2    N     N_2   0.554930 0.554500 0.862630 -0.019699
O1    O     O_R   0.511700 0.332330 0.577400 -0.594554
O2    O     O_R   0.474680 0.295500 0.332650 -0.569243
O3    O     O_R   0.338160 0.518420 0.622400 -0.599022
O4    O     O_R   0.301140 0.481590 0.377650 -0.540603
O5    O     O_R   0.525320 0.704500 0.667350 -0.602912
O6    O     O_R   0.488300 0.667670 0.422600 -0.533621
O7    O     O_R   0.698860 0.518410 0.622350 -0.589940
O8    O     O_R   0.661840 0.481580 0.377600 -0.531343
O9    O     O_3   0.099835 0.293409 0.314358 -0.730275
H5    H     H_    0.030800 0.227237 0.252175 0.326437
H6    H     H_    0.468915 0.047790 0.292638 0.161259
H7    H     H_    0.436743 0.399945 0.846754 0.065350
O10   O     O_3   0.621671 0.582590 0.178070 -0.639167
H8    H     H_    0.693956 0.569583 0.123789 0.342708
O11   O     O_3   0.618661 0.666398 0.955813 -0.629002
H9    H     H_    0.654763 0.705043 0.892622 0.373382
H10   H     H_    0.370068 0.385874 0.065781 0.149183
H11   H     H_    0.260377 0.738046 0.694449 0.164480
H12   H     H_    0.172474 0.927313 0.852314 0.138233
O12   O     O_3   0.926113 0.952918 0.867462 -0.735129
H13   H     H_    0.994084 0.021562 0.926673 0.322139
H14   H     H_    0.481260 0.864039 0.369123 0.205685

loop_
_geom_bond_atom_site_label_1
_geom_bond_atom_site_label_2
_ccdc_geom_bond_type
C14   O6    A    
C19   H1    S    
C9    C14   S    
C13   N2    D    
O9    H5    S    
Cu1   O7    S    
C6    C20   A    
O10   H8    S    
N2    O11   S    
C19   C20   A    
C11   N1    D    
O11   H9    S    
N1    H10   S    
C14   O5    A    
C1    O1    A    
C17   C18   A    
C7    C8    D    
Cu1   Cu2   S    
C12   O4    A    
C8    H3    S    
C11   C13   S    
Cu1   O3    S    
C16   C17   A    
C5    H2    S    
Cu2   O4    S    
C15   O7    A    
C1    O2    A    
Cu1   N2    S    
C9    H4    S    
C11   O10   S    
C2    C3    A    
Cu2   N1    S    
C12   O3    A    
C5    C6    A    
Cu2   O6    S    
Cu1   O5    S    
C2    C20   A    
C3    C4    A    
C10   H14   S    
C15   O8    A    
C2    C16   A    
C4    O9    S    
C8    C10   S    
C18   C19   A    
C9    C10   D    
C16   H11   S    
C7    H6    S    
O12   H13   S    
C13   H7    S    
C3    C12   S    
Cu2   O2    S    
C6    C15   S    
C1    C7    S    
Cu1   O1    S    
Cu2   O8    S    
C17   H12   S    
C4    C5    A    
C18   O12   S    
