data_mof_unit_37905.cif
_audit_creation_date              2012-12-11T15:52:18-0500
_audit_creation_method            fapswitch 2.2
_symmetry_space_group_name_H-M    P1
_symmetry_Int_Tables_number       1
_space_group_crystal_system       triclinic
_cell_length_a                    11.028047
_cell_length_b                    11.030868
_cell_length_c                    18.806395
_cell_angle_alpha                 89.67335
_cell_angle_beta                  90.482438
_cell_angle_gamma                 119.752862
_cell_volume                      1986.11583918

loop_
_atom_site_label
_atom_site_type_symbol
_atom_type_description
_atom_site_fract_x
_atom_site_fract_y
_atom_site_fract_z
_atom_type_partial_charge
C1    C     C_R   0.522968 0.451586 0.144679 0.536069
C2    C     C_3   0.938648 0.693252 0.462730 -0.106037
C3    C     C_3   0.779256 0.090536 0.476340 -0.135804
C4    C     C_3   0.302991 0.239470 0.463974 -0.098996
C5    C     C_R   0.518421 0.456722 0.353316 0.549439
C6    C     C_R   0.544775 0.062968 0.353935 0.556798
C7    C     C_R   0.941848 0.483290 0.352671 0.540957
C8    C     C_R   0.452776 0.523511 0.643989 0.566020
C9    C     C_R   0.125838 0.579037 0.639013 0.579760
C10   C     C_R   0.478406 0.934921 0.645738 0.566393
C11   C     C_R   0.502455 0.008496 0.920439 0.014617
C12   C     C_R   0.548964 0.073276 0.144171 0.537708
C13   C     C_R   0.010118 0.504274 0.924320 0.013038
C14   C     C_R   0.505543 0.498399 0.921190 0.016122
C15   C     C_R   0.975236 0.499427 0.072422 0.021748
C16   C     C_R   0.530476 0.048020 0.068122 0.018254
C17   C     C_R   0.514036 0.470166 0.068924 0.014353
C18   C     C_R   0.387738 0.983385 0.962615 0.004253
C19   C     C_R   0.078935 0.457727 0.970665 0.013216
C20   C     C_R   0.591927 0.613478 0.964154 0.006292
C21   C     C_R   0.063191 0.456340 0.043407 -0.010464
C22   C     C_R   0.401969 0.004373 0.035338 -0.003046
C23   C     C_R   0.933785 0.479482 0.146257 0.535698
C24   C     C_R   0.597774 0.599064 0.036922 -0.000181
C25   C     C_R   0.649450 0.096117 0.024784 -0.148983
C26   C     C_R   0.915565 0.558308 0.026863 -0.146231
C27   C     C_R   0.444734 0.351017 0.025247 -0.157957
C28   C     C_R   0.932762 0.560656 0.953581 -0.162751
C29   C     C_R   0.635834 0.076996 0.951320 -0.158529
C30   C     C_R   0.442118 0.364837 0.951630 -0.165304
C31   C     C_3   0.249441 0.853662 0.970875 -0.243610
C32   C     C_3   0.082645 0.324162 0.972642 -0.263174
C33   C     C_3   0.597172 0.750876 0.971933 -0.242892
C34   C     C_R   0.458087 0.520074 0.852590 0.550417
C35   C     C_3   0.072372 0.327032 0.053186 -0.274738
C36   C     C_3   0.265066 0.877942 0.050451 -0.276310
C37   C     C_3   0.604826 0.735066 0.051651 -0.275488
C38   C     C_R   0.492193 0.988657 0.575028 0.056910
C39   C     C_R   0.096939 0.559636 0.563140 0.062866
C40   C     C_R   0.475342 0.516833 0.569045 0.083439
C41   C     C_R   0.023481 0.521869 0.418224 0.023606
C42   C     C_R   0.521194 0.021685 0.427336 0.024942
C43   C     C_R   0.489278 0.495699 0.421488 0.022384
C44   C     C_R   0.622366 0.063479 0.544944 0.124087
C45   C     C_R   0.062159 0.541741 0.852474 0.560300
C46   C     C_R   0.066956 0.651439 0.526876 0.002511
C47   C     C_R   0.370581 0.406641 0.531575 0.013367
C48   C     C_R   0.035704 0.635988 0.456099 0.008576
C49   C     C_R   0.636865 0.077647 0.473378 0.047010
C50   C     C_R   0.375011 0.396271 0.459889 0.018974
C51   C     C_R   0.387976 0.961877 0.457196 -0.184001
C52   C     C_R   0.074795 0.441455 0.450157 -0.168385
C53   C     C_R   0.585468 0.618908 0.456083 -0.162805
C54   C     C_R   0.109829 0.459363 0.523057 -0.154152
C55   C     C_R   0.373573 0.945240 0.531049 -0.180125
C56   C     C_R   0.480197 0.938364 0.852391 0.548975
C57   C     C_R   0.577842 0.630691 0.530072 -0.150275
C58   C     C_2   0.859598 0.190204 0.601549 0.248135
C59   C     C_2   0.846947 0.613518 0.587139 0.272298
C60   C     C_2   0.379646 0.206505 0.588357 0.232665
C61   C     C_2   0.997920 0.829098 0.423891 0.213052
C62   C     C_2   0.791986 0.974756 0.442321 0.216450
C63   C     C_2   0.162915 0.175282 0.427912 0.197633
C64   C     C_3   0.758791 0.069132 0.556869 -0.159214
C65   C     C_3   0.971137 0.708311 0.542177 -0.141863
C66   C     C_3   0.295750 0.253078 0.544504 -0.140891
Cr1   Cr    Cr6+3 0.769160 0.541570 0.250690 1.090763
Cr2   Cr    Cr6+3 0.458430 0.227590 0.250690 1.079068
Cr3   Cr    Cr6+3 0.772410 0.230840 0.250690 1.083573
Cr4   Cr    Cr6+3 0.541570 0.769160 0.749310 1.002904
Cr5   Cr    Cr6+3 0.227590 0.458430 0.749310 1.016732
Cr6   Cr    Cr6+3 0.230840 0.772410 0.749310 0.998160
H1    H     H_    0.752600 0.143733 0.047854 0.136729
H2    H     H_    0.976811 0.238053 0.075439 0.148783
H3    H     H_    0.188403 0.904818 0.072797 0.151955
H4    H     H_    0.706955 0.812660 0.075152 0.151787
H5    H     H_    0.162660 0.864739 0.947320 0.151721
H6    H     H_    0.989155 0.236323 0.947223 0.128603
H7    H     H_    0.694401 0.838402 0.949508 0.148378
H8    H     H_    0.170639 0.348780 0.080838 0.154017
H9    H     H_    0.275830 0.796292 0.080204 0.138251
H10   H     H_    0.511443 0.722949 0.080168 0.138012
H11   H     H_    0.296743 0.926858 0.423588 0.135370
H12   H     H_    0.850535 0.597685 0.047581 0.150637
H13   H     H_    0.076187 0.358832 0.420587 0.144593
H14   H     H_    0.671726 0.698893 0.426826 0.176073
H15   H     H_    0.136141 0.388993 0.549211 0.113049
H16   H     H_    0.270832 0.895516 0.553761 0.119926
H17   H     H_    0.654894 0.724331 0.556727 0.100995
H18   H     H_    0.746929 0.968770 0.576603 0.087181
H19   H     H_    0.027484 0.817698 0.561944 0.047314
H20   H     H_    0.189086 0.213666 0.566010 0.049346
H21   H     H_    0.829340 0.615862 0.448179 0.182068
H22   H     H_    0.861231 0.195357 0.460099 0.142284
H23   H     H_    0.388126 0.247441 0.048044 0.150941
H24   H     H_    0.369861 0.196189 0.446781 0.178321
H25   H     H_    0.963534 0.205890 0.610437 0.075461
H26   H     H_    0.818608 0.656733 0.631460 0.106873
H27   H     H_    0.326933 0.123497 0.627009 0.104933
H28   H     H_    0.086966 0.919918 0.445998 0.091743
H29   H     H_    0.819982 0.910993 0.474868 0.067091
H30   H     H_    0.069714 0.145621 0.458614 0.074404
H31   H     H_    0.887155 0.607850 0.919969 0.136795
H32   H     H_    0.727785 0.103526 0.920073 0.131342
H33   H     H_    0.378881 0.272740 0.919779 0.137341
H34   H     H_    0.253199 0.758912 0.954784 0.149297
H35   H     H_    0.184015 0.338257 0.954395 0.163754
H36   H     H_    0.498505 0.746605 0.954617 0.147707
O1    O     O_R   0.911480 0.572650 0.170990 -0.518285
O2    O     O_R   0.528970 0.640340 0.824320 -0.498325
O3    O     O_R   0.111370 0.471030 0.824320 -0.490042
O4    O     O_R   0.359660 0.888630 0.824320 -0.500643
O5    O     O_R   0.909980 0.572450 0.331530 -0.479463
O6    O     O_R   0.427550 0.337530 0.331530 -0.472935
O7    O     O_R   0.662470 0.090020 0.331530 -0.449265
O8    O     O_R   0.572450 0.909980 0.668470 -0.521620
O9    O     O_R   0.337530 0.427550 0.668470 -0.537969
O10   O     O_R   0.090020 0.662470 0.668470 -0.516886
O11   O     O_R   0.638950 0.528780 0.324500 -0.488085
O12   O     O_R   0.427350 0.338830 0.170990 -0.519706
O13   O     O_R   0.471220 0.110170 0.324500 -0.503603
O14   O     O_R   0.889830 0.361050 0.324500 -0.495867
O15   O     O_R   0.528780 0.638950 0.675500 -0.522265
O16   O     O_R   0.110170 0.471220 0.675500 -0.475771
O17   O     O_R   0.361050 0.889830 0.675500 -0.536929
O18   O     O_3   0.666667 0.333333 0.250560 -0.286768
O19   O     O_3   0.333333 0.666667 0.749440 -0.285715
O20   O     O_2   0.824769 0.266826 0.630601 -0.397145
O21   O     O_2   0.777579 0.488881 0.574394 -0.402668
O22   O     O_2   0.505965 0.260929 0.581503 -0.436097
O23   O     O_R   0.661170 0.088520 0.170990 -0.519456
O24   O     O_2   0.950578 0.836462 0.366211 -0.412065
O25   O     O_2   0.781230 0.957113 0.378185 -0.414038
O26   O     O_2   0.152638 0.157149 0.363712 -0.429944
O27   O     O_R   0.572650 0.911480 0.829010 -0.521521
O28   O     O_R   0.338830 0.427350 0.829010 -0.526276
O29   O     O_R   0.088520 0.661170 0.829010 -0.524817
O30   O     O_R   0.640340 0.528970 0.175680 -0.497205
O31   O     O_R   0.471030 0.111370 0.175680 -0.501381
O32   O     O_R   0.888630 0.359660 0.175680 -0.508646

loop_
_geom_bond_atom_site_label_1
_geom_bond_atom_site_label_2
_ccdc_geom_bond_type
C44   C49   A    
Cr4   O19   S    
C40   C47   A    
C13   C45   S    
Cr6   O4    S    
C35   H2    S    
C58   O20   D    
C12   O23   A    
Cr2   O18   S    
C5    O6    A    
C27   H23   S    
C64   H18   S    
C2    C65   S    
C3    C49   S    
C11   C18   A    
C3    C64   S    
C44   C64   S    
C58   H25   S    
C4    C63   S    
C57   H17   S    
C5    O11   A    
C62   O25   D    
C52   H13   S    
C19   C21   A    
C54   H15   S    
C39   C54   A    
C35   H8    S    
C9    C39   S    
C9    O16   A    
C55   H16   S    
Cr1   O30   S    
Cr4   O2    S    
C61   O24   D    
C4    H24   S    
Cr4   O15   S    
Cr1   O1    S    
C59   O21   D    
C38   C55   A    
C20   C24   A    
C32   H35   S    
Cr5   O3    S    
C16   C22   A    
C13   C28   A    
C53   H14   S    
C10   O17   A    
C47   C66   S    
C25   H1    S    
C2    C61   S    
C42   C51   A    
C62   H29   S    
C60   H27   S    
Cr3   O32   S    
C15   C23   S    
C5    C43   S    
C60   C66   S    
C27   C30   A    
C25   C29   A    
C9    O10   A    
Cr5   O19   S    
C33   H36   S    
C14   C30   A    
C63   H30   S    
C19   C32   S    
C52   C54   A    
C8    O9    A    
C31   H5    S    
C47   C50   A    
C58   C64   S    
C23   O1    A    
C46   C48   A    
C17   C24   A    
Cr5   O9    S    
Cr6   O19   S    
C17   C27   A    
C32   C35   S    
C12   C16   S    
Cr5   O16   S    
C46   C65   S    
Cr1   O18   S    
C60   O22   D    
Cr5   O28   S    
C13   C19   A    
C33   H7    S    
C15   C26   A    
C66   H20   S    
Cr4   O8    S    
C43   C53   A    
C33   C37   S    
C29   H32   S    
C4    C50   S    
C1    O12   A    
C63   O26   D    
C38   C44   A    
C36   H3    S    
C14   C20   A    
C23   O32   A    
C34   O28   A    
C36   H9    S    
Cr3   O23   S    
C45   O29   A    
C24   C37   S    
C12   O31   A    
C8    O15   A    
C39   C46   A    
C20   C33   S    
Cr6   O29   S    
C37   H4    S    
Cr3   O18   S    
C30   H33   S    
Cr4   O27   S    
C34   O2    A    
C31   H34   S    
C37   H10   S    
C61   H28   S    
C7    O14   A    
C51   H11   S    
C56   O27   A    
C10   O8    A    
C3    C62   S    
C16   C25   A    
C65   H19   S    
Cr3   O7    S    
C26   H12   S    
C40   C57   A    
C41   C52   A    
C18   C22   A    
C26   C28   A    
C2    H21   S    
C53   C57   A    
Cr2   O13   S    
C14   C34   S    
C45   O3    A    
C43   C50   A    
C21   C35   S    
C22   C36   S    
C1    C17   S    
Cr6   O17   S    
C10   C38   S    
C2    C48   S    
C7    O5    A    
Cr1   O5    S    
Cr2   O12   S    
C4    C66   S    
C28   H31   S    
Cr3   O14   S    
C41   C48   A    
C3    H22   S    
C51   C55   A    
C7    C41   S    
C6    O7    A    
C1    O30   A    
C42   C49   A    
C32   H6    S    
C15   C21   A    
C11   C29   A    
C6    C42   S    
Cr6   O10   S    
C59   H26   S    
C31   C36   S    
Cr2   O31   S    
C18   C31   S    
C8    C40   S    
C6    O13   A    
Cr1   O11   S    
C56   O4    A    
C59   C65   S    
C11   C56   S    
Cr2   O6    S    
