data_mof_unit_68064.cif
_audit_creation_date              2013-03-05T15:43:53-0500
_audit_creation_method            fapswitch 2.2
_symmetry_space_group_name_H-M    P1
_symmetry_Int_Tables_number       1
_space_group_crystal_system       triclinic
_cell_length_a                    7.366042
_cell_length_b                    14.22699
_cell_length_c                    16.873425
_cell_angle_alpha                 89.855453
_cell_angle_beta                  96.278877
_cell_angle_gamma                 90.000409
_cell_volume                      1757.6647209

loop_
_atom_site_label
_atom_site_type_symbol
_atom_site_description
_atom_site_fract_x
_atom_site_fract_y
_atom_site_fract_z
_atom_type_partial_charge
O1    O     O_R   0.525340 0.338340 0.164530 -0.579497
O2    O     O_R   0.474660 0.661660 0.835470 -0.579984
O3    O     O_R   0.974660 0.838340 0.835470 -0.577375
O4    O     O_R   0.025340 0.161660 0.164530 -0.576690
O5    O     O_R   0.253520 0.352000 0.336710 -0.593044
O6    O     O_R   0.746480 0.648000 0.663290 -0.563647
O7    O     O_R   0.246480 0.852000 0.663290 -0.557721
O8    O     O_R   0.753520 0.148000 0.336710 -0.547614
O9    O     O_R   0.083330 0.168380 0.337300 -0.585923
O10   O     O_R   0.916670 0.831620 0.662700 -0.558746
O11   O     O_R   0.416670 0.668380 0.662700 -0.558608
O12   O     O_R   0.583330 0.331620 0.337300 -0.525930
C1    C     C_R   0.432008 0.362650 0.368092 0.880441
C2    C     C_R   0.567527 0.636417 0.632551 0.900968
C3    C     C_R   0.068164 0.862262 0.631664 0.910318
C4    C     C_R   0.931295 0.136274 0.367089 0.924088
O13   O     O_R   0.195840 0.349670 0.165140 -0.563817
O14   O     O_R   0.804160 0.650330 0.834860 -0.565681
O15   O     O_R   0.304160 0.849670 0.834860 -0.557408
O16   O     O_R   0.695840 0.150330 0.165140 -0.568057
C5    C     C_R   0.357797 0.363667 0.133819 0.805655
C6    C     C_R   0.642781 0.636467 0.866024 0.804077
C7    C     C_R   0.142419 0.863868 0.866096 0.806975
C8    C     C_R   0.857161 0.137733 0.133240 0.805249
O17   O     O_3   0.387830 0.193120 0.250910 -0.326190
O18   O     O_3   0.612170 0.806880 0.749090 -0.322601
O19   O     O_3   0.112170 0.693120 0.749090 -0.327210
O20   O     O_3   0.887830 0.306880 0.250910 -0.326842
V1    V     V_3+5 0.113010 0.264540 0.250910 1.070734
V2    V     V_3+5 0.886990 0.735460 0.749090 1.089359
V3    V     V_3+5 0.386990 0.764540 0.749090 1.098616
V4    V     V_3+5 0.613010 0.235460 0.250910 1.099474
C9    C     C_R   0.033130 0.198223 0.536809 0.348952
C10   C     C_R   0.931366 0.801257 0.462040 0.345040
C11   C     C_R   0.433899 0.697735 0.462963 0.348078
C12   C     C_R   0.557966 0.302140 0.539084 0.370804
C13   C     C_R   0.115343 0.221587 0.616752 -0.057987
C14   C     C_R   0.875121 0.777676 0.379710 -0.040283
C15   C     C_R   0.377148 0.721822 0.380839 -0.039853
C16   C     C_R   0.605829 0.278228 0.621893 -0.016687
C17   C     C_R   0.158902 0.149605 0.672169 0.399222
C18   C     C_R   0.874980 0.845250 0.319892 0.382929
C19   C     C_R   0.377742 0.654907 0.320893 0.381247
C20   C     C_R   0.589768 0.344592 0.680949 0.408197
C21   C     C_R   0.082151 0.061587 0.657242 -0.035759
C22   C     C_R   0.938697 0.935089 0.338406 -0.067957
C23   C     C_R   0.440128 0.564536 0.339352 -0.061530
C24   C     C_R   0.531873 0.435071 0.660803 -0.081999
C25   C     C_R   0.044762 0.029738 0.577837 -0.107998
C26   C     C_R   0.956375 0.968087 0.418663 -0.112691
C27   C     C_R   0.458654 0.530974 0.419824 -0.104603
C28   C     C_R   0.529257 0.468640 0.580884 -0.111707
C29   C     C_R   0.016621 0.099046 0.515551 -0.047361
C30   C     C_R   0.969929 0.899291 0.482092 -0.049222
C31   C     C_R   0.471933 0.599535 0.483232 -0.051188
C32   C     C_R   0.521532 0.400160 0.517813 -0.062390
C33   C     C_R   0.027792 0.930672 0.562266 -0.074476
C34   C     C_R   0.967299 0.067244 0.435218 -0.073079
C35   C     C_R   0.472333 0.431708 0.436585 -0.077202
C36   C     C_R   0.524100 0.567786 0.564034 -0.065928
C37   C     C_2   0.148866 0.923210 0.939945 -0.077337
C38   C     C_2   0.850663 0.082229 0.057523 -0.071765
C39   C     C_2   0.353358 0.422696 0.059828 -0.074765
C40   C     C_2   0.651014 0.581273 0.941940 -0.074675
C41   C     C_2   0.996603 0.960140 0.970975 0.057641
C42   C     C_2   0.003330 0.046149 0.026717 0.062218
C43   C     C_2   0.506792 0.460316 0.030107 0.058977
C44   C     C_2   0.499391 0.545809 0.973714 0.064095
O21   O     O_3   0.849998 0.816930 0.240771 -0.669701
C45   C     C_3   0.681996 0.850809 0.203458 0.262145
H1    H     H_    0.700344 0.921861 0.178013 0.042034
H2    H     H_    0.574762 0.854507 0.244606 0.058701
C46   C     C_3   0.614046 0.784108 0.136510 -0.303252
H3    H     H_    0.619206 0.710295 0.157643 0.155977
H4    H     H_    0.471329 0.801834 0.114945 0.082279
H5    H     H_    0.699327 0.789338 0.086797 0.082780
O22   O     O_3   0.288212 0.163939 0.737826 -0.620123
C47   C     C_3   0.205681 0.175021 0.808979 0.286048
H6    H     H_    0.192982 0.105547 0.837870 0.045070
H7    H     H_    0.071048 0.210096 0.798419 0.003503
C48   C     C_3   0.326006 0.235013 0.867187 -0.296877
H8    H     H_    0.342116 0.306397 0.843110 0.147134
H9    H     H_    0.263799 0.243256 0.923391 0.031454
H10   H     H_    0.459791 0.199921 0.879695 0.140840
O23   O     O_3   0.598070 0.314799 0.759547 -0.634931
C49   C     C_3   0.759359 0.347592 0.803530 0.264984
H11   H     H_    0.739483 0.419961 0.825559 0.043607
H12   H     H_    0.878344 0.347364 0.768734 0.008971
C50   C     C_3   0.803868 0.282832 0.874439 -0.353561
H13   H     H_    0.940225 0.299763 0.904636 0.061350
H14   H     H_    0.700848 0.291782 0.916314 0.106954
H15   H     H_    0.801977 0.208176 0.855505 0.121019
O24   O     O_3   0.355452 0.684548 0.241910 -0.669201
C51   C     C_3   0.188157 0.651679 0.203157 0.262920
H16   H     H_    0.081511 0.642415 0.244123 0.051404
H17   H     H_    0.209095 0.583288 0.173846 0.041751
C52   C     C_3   0.116577 0.723041 0.140070 -0.302597
H18   H     H_    0.196467 0.721599 0.088501 0.080605
H19   H     H_    0.972206 0.707468 0.120246 0.091062
H20   H     H_    0.125463 0.795268 0.164063 0.153970
O25   O     O_3   0.947770 0.264209 0.482045 -0.620896
C53   C     C_3   0.017981 0.356760 0.488975 0.305008
H21   H     H_    0.168646 0.355211 0.492787 0.025185
H22   H     H_    0.961800 0.393981 0.537707 0.031419
C54   C     C_3   0.951231 0.418855 0.419204 -0.258819
H23   H     H_    0.939372 0.378309 0.365324 0.210115
H24   H     H_    0.816906 0.449555 0.426596 0.073677
H25   H     H_    0.049016 0.477185 0.413473 0.023609
O26   O     O_3   0.925363 0.735515 0.524321 -0.635715
C55   C     C_3   0.986970 0.643906 0.506719 0.283432
H26   H     H_    0.096818 0.646367 0.467061 0.029070
H27   H     H_    0.871646 0.599591 0.483062 0.038879
C56   C     C_3   0.059643 0.589901 0.580132 -0.265290
H28   H     H_    0.952274 0.547963 0.604957 0.089061
H29   H     H_    0.164525 0.539241 0.565211 0.026145
H30   H     H_    0.117085 0.640113 0.623771 0.213529
O27   O     O_3   0.426729 0.763245 0.524967 -0.635767
C57   C     C_3   0.488680 0.855031 0.507585 0.272382
H31   H     H_    0.373095 0.899641 0.484723 0.041622
H32   H     H_    0.596867 0.853283 0.467123 0.028181
C58   C     C_3   0.563810 0.907274 0.581298 -0.253951
H33   H     H_    0.614960 0.855213 0.624475 0.219346
H34   H     H_    0.675557 0.954285 0.567977 0.024143
H35   H     H_    0.459514 0.951909 0.605524 0.091615
O28   O     O_3   0.567154 0.236017 0.477878 -0.609149
C59   C     C_3   0.500807 0.145349 0.495582 0.271038
H36   H     H_    0.386471 0.149194 0.532930 -0.004579
H37   H     H_    0.612657 0.101077 0.522780 0.053408
C60   C     C_3   0.436362 0.091176 0.421218 -0.279193
H38   H     H_    0.546329 0.047063 0.400765 0.087921
H39   H     H_    0.323410 0.043760 0.432289 0.031211
H40   H     H_    0.389010 0.141501 0.375604 0.212092
C61   C     C_3   0.129878 0.319140 0.652330 -0.376227
H41   H     H_    0.991874 0.348479 0.654697 0.078090
H42   H     H_    0.193399 0.321748 0.714343 0.157589
H43   H     H_    0.215984 0.365117 0.620179 0.091498
C62   C     C_3   0.819354 0.680849 0.350860 -0.345218
H44   H     H_    0.936726 0.632420 0.352178 0.067943
H45   H     H_    0.718218 0.655449 0.387329 0.094481
H46   H     H_    0.750966 0.678344 0.289457 0.168180
C63   C     C_3   0.318078 0.818621 0.352610 -0.343091
H47   H     H_    0.433703 0.868155 0.353309 0.065013
H48   H     H_    0.247927 0.821040 0.291671 0.164544
H49   H     H_    0.217219 0.842971 0.389645 0.096448
C64   C     C_3   0.669642 0.182438 0.652524 -0.310487
H50   H     H_    0.554984 0.132154 0.652526 0.132438
H51   H     H_    0.775720 0.156057 0.618578 0.079935
H52   H     H_    0.736979 0.183918 0.714071 0.145559
C65   C     C_3   0.979416 0.021059 0.721642 -0.358108
H53   H     H_    0.851130 0.986843 0.696670 0.133384
H54   H     H_    0.072179 0.973765 0.756919 0.130970
H55   H     H_    0.930231 0.073990 0.761729 0.060688
C66   C     C_3   0.028320 0.983705 0.273584 -0.328509
H56   H     H_    0.160920 0.014706 0.297365 0.123278
H57   H     H_    0.062079 0.937096 0.224856 0.122464
H58   H     H_    0.929634 0.034113 0.246419 0.117910
C67   C     C_3   0.527882 0.516066 0.274065 -0.326401
H59   H     H_    0.660736 0.484846 0.297197 0.119132
H60   H     H_    0.428375 0.465931 0.247322 0.120525
H61   H     H_    0.561197 0.562833 0.225080 0.121781
C68   C     C_3   0.438436 0.485587 0.723332 -0.317288
H62   H     H_    0.310327 0.518895 0.697302 0.123254
H63   H     H_    0.394994 0.439657 0.770740 0.119714
H64   H     H_    0.537794 0.534138 0.752736 0.114555
C69   C     C_3   0.173801 0.106778 0.034787 -0.357444
H65   H     H_    0.251684 0.098574 0.983052 0.095467
H66   H     H_    0.137362 0.182446 0.034729 0.114645
H67   H     H_    0.262505 0.089865 0.090446 0.146056
C70   C     C_3   0.821809 0.902898 0.960831 -0.351993
H68   H     H_    0.738427 0.914702 0.010328 0.099100
H69   H     H_    0.739610 0.919834 0.903474 0.149755
H70   H     H_    0.852849 0.826710 0.963787 0.112124
C71   C     C_3   0.330730 0.607717 0.967504 -0.353936
H71   H     H_    0.253688 0.597421 0.019207 0.098942
H72   H     H_    0.369082 0.683200 0.969518 0.110471
H73   H     H_    0.240444 0.593234 0.911838 0.144352
C72   C     C_3   0.685523 0.406473 0.044816 -0.353084
H74   H     H_    0.772145 0.417195 0.996287 0.099436
H75   H     H_    0.762132 0.427147 0.102468 0.143175
H76   H     H_    0.660917 0.329615 0.044422 0.117678
C73   C     C_3   0.671366 0.092125 0.006932 -0.464384
H77   H     H_    0.632649 0.167348 0.003112 0.106777
H78   H     H_    0.674264 0.068240 0.944729 0.129344
H79   H     H_    0.567461 0.056289 0.038186 0.133989
C74   C     C_3   0.334374 0.923297 0.986048 -0.461698
H80   H     H_    0.389434 0.850762 0.988755 0.113825
H81   H     H_    0.424492 0.965379 0.951829 0.137366
H82   H     H_    0.334103 0.945641 0.048746 0.121022
C75   C     C_3   0.830081 0.593468 0.992273 -0.460876
H83   H     H_    0.865849 0.669002 0.994273 0.109198
H84   H     H_    0.828246 0.571268 0.055026 0.119683
H85   H     H_    0.935610 0.557889 0.961909 0.134410
C76   C     C_3   0.169204 0.422839 0.012698 -0.464648
H86   H     H_    0.115403 0.350209 0.010127 0.116280
H87   H     H_    0.077759 0.464600 0.046346 0.130690
H88   H     H_    0.170939 0.445518 0.950005 0.122855

loop_
_geom_bond_atom_site_label_1
_geom_bond_atom_site_label_2
_geom_bond_distance
_ccdc_geom_bond_type
O1    C5    1.334399 A    
C69   H65   1.102205 S    
O3    V2    2.118635 S    
C46   H4    1.103194 S    
C46   H3    1.107482 S    
O3    C7    1.336871 A    
C12   O28   1.405818 S    
O15   V3    2.033619 S    
C48   H10   1.104050 S    
C74   H81   1.102068 S    
C52   H18   1.102715 S    
C25   C33   1.437278 A    
C27   C31   1.445020 A    
O22   C47   1.412966 S    
C62   H45   1.078598 S    
O24   C51   1.410714 S    
C16   C64   1.512812 S    
C9    O25   1.413895 S    
C40   C44   1.385275 D    
O20   V1    1.764681 S    
O9    C4    1.355519 A    
C14   C18   1.392083 A    
C24   C28   1.427588 A    
O10   C3    1.355073 A    
C65   H54   1.087648 S    
C17   O22   1.395178 S    
O4    C8    1.336832 A    
O11   C2    1.351006 A    
C47   H7    1.106868 S    
C71   H73   1.109648 S    
O13   V1    2.029261 S    
C53   C54   1.508745 S    
C18   C22   1.386159 A    
C75   H84   1.105695 S    
C57   H31   1.097010 S    
C58   H35   1.109315 S    
C28   C36   1.437891 A    
C55   H27   1.097976 S    
C68   H63   1.105729 S    
C55   H26   1.105458 S    
C63   H47   1.104531 S    
C67   H59   1.105836 S    
O16   C8    1.369045 A    
C5    C39   1.500276 S    
C76   H87   1.102007 S    
O2    C6    1.336893 A    
C61   H43   1.094502 S    
C8    C38   1.499942 S    
C39   C76   1.495494 S    
C45   H1    1.111271 S    
O14   V2    2.029260 S    
C66   H57   1.106819 S    
C16   C20   1.388863 A    
O5    C1    1.371148 A    
O4    V1    2.118637 S    
O9    V1    2.025813 S    
C56   H30   1.079841 S    
C72   H76   1.108295 S    
O17   V4    1.764673 S    
O7    C3    1.370260 A    
C62   H44   1.103819 S    
O11   V3    2.030777 S    
O18   V3    1.764673 S    
O8    C4    1.363132 A    
C10   C14   1.445856 A    
C31   C36   1.446668 A    
O12   V4    2.030776 S    
O19   V2    1.764681 S    
C3    C33   1.524787 S    
C69   H66   1.109454 S    
C51   H16   1.109316 S    
C64   H51   1.085574 S    
C40   C75   1.498974 S    
O5    V1    2.096846 S    
C71   H72   1.110090 S    
C9    C29   1.458541 A    
C62   H46   1.102046 S    
C39   C43   1.392093 D    
O7    V3    2.092515 S    
C38   C42   1.388354 D    
C11   C31   1.457382 A    
C43   C44   1.539683 S    
C26   C34   1.439331 A    
O25   C53   1.415081 S    
C15   C63   1.504714 S    
C12   C16   1.443000 A    
C21   C65   1.504201 S    
C52   H19   1.102022 S    
C73   H78   1.106453 S    
C47   H6    1.109456 S    
C74   H82   1.105629 S    
C15   C19   1.391139 A    
C24   C68   1.505356 S    
C59   C60   1.506115 S    
C72   H75   1.110235 S    
C73   H77   1.107445 S    
C18   O21   1.388353 S    
C48   H8    1.104075 S    
C41   C70   1.517485 S    
O2    V3    2.113554 S    
C66   H58   1.085495 S    
C57   C58   1.503266 S    
O8    V4    2.092515 S    
C75   H85   1.100628 S    
C11   C15   1.443347 A    
C12   C32   1.456693 A    
O6    C2    1.372825 A    
C54   H24   1.101178 S    
O10   V2    2.025814 S    
C21   C25   1.413752 A    
C29   C34   1.438560 A    
C76   H88   1.106587 S    
C45   C46   1.519494 S    
C37   C74   1.496617 S    
C70   H68   1.102673 S    
C4    C34   1.511264 S    
C54   H25   1.109805 S    
O12   C1    1.354663 A    
C50   H15   1.109544 S    
C51   H17   1.110963 S    
C55   C56   1.503822 S    
C58   H33   1.076370 S    
C49   H11   1.110625 S    
O21   C45   1.410039 S    
O6    V2    2.096845 S    
C23   C67   1.505493 S    
C72   H74   1.102074 S    
C67   H61   1.108022 S    
C43   C72   1.519621 S    
O28   C59   1.421963 S    
C70   H70   1.107648 S    
C13   C61   1.512680 S    
C65   H55   1.100929 S    
C50   H14   1.099575 S    
C41   C42   1.542734 S    
C20   O23   1.386239 S    
C50   H13   1.102348 S    
C64   H50   1.106843 S    
C68   H64   1.086830 S    
C64   H52   1.101088 S    
O15   C7    1.369632 A    
C9    C13   1.456147 A    
C56   H28   1.108220 S    
O16   V4    2.033620 S    
C73   H79   1.100352 S    
C75   H83   1.106163 S    
C22   C66   1.504869 S    
C63   H49   1.079403 S    
C59   H37   1.096346 S    
C52   H20   1.104705 S    
C42   C69   1.517401 S    
O14   C6    1.365529 A    
C49   C50   1.515431 S    
O23   C49   1.410253 S    
C48   H9    1.103951 S    
C23   C27   1.430566 A    
C44   C71   1.516996 S    
C10   C30   1.456629 A    
C1    C35   1.523089 S    
C69   H67   1.109714 S    
C2    C36   1.522196 S    
C54   H23   1.073395 S    
C22   C26   1.426841 A    
C51   C52   1.521092 S    
C32   C35   1.448989 A    
C53   H22   1.097465 S    
C60   H40   1.079432 S    
C63   H48   1.099597 S    
C60   H38   1.109675 S    
C26   C30   1.443869 A    
C68   H62   1.102833 S    
O27   C57   1.423659 S    
C38   C73   1.498538 S    
C47   C48   1.514090 S    
C74   H80   1.107800 S    
C61   H41   1.103696 S    
C28   C32   1.441188 A    
C59   H36   1.107112 S    
C25   C29   1.437675 A    
C19   O24   1.389314 S    
C14   C62   1.504333 S    
C49   H12   1.107014 S    
O1    V4    2.113556 S    
C13   C17   1.398439 A    
C53   H21   1.104841 S    
C57   H32   1.104942 S    
C58   H34   1.102321 S    
C11   O27   1.408196 S    
C6    C40   1.496357 S    
C37   C41   1.392112 D    
C7    C37   1.503366 S    
C27   C35   1.440958 A    
C46   H5    1.103954 S    
C67   H60   1.085775 S    
C76   H86   1.105944 S    
O26   C55   1.422760 S    
C61   H42   1.099222 S    
C10   O26   1.409380 S    
C17   C21   1.386208 A    
C45   H2    1.108562 S    
C60   H39   1.102521 S    
C66   H56   1.106664 S    
C65   H53   1.105161 S    
C71   H71   1.101021 S    
C19   C23   1.388506 A    
C30   C33   1.444995 A    
C20   C24   1.385827 A    
C56   H29   1.105966 S    
C70   H69   1.109948 S    
O13   C5    1.370962 A    
