data_mof_unit_44536.cif
_audit_creation_date              2012-12-10T17:15:50-0500
_audit_creation_method            fapswitch 2.2
_symmetry_space_group_name_H-M    P1
_symmetry_Int_Tables_number       1
_space_group_crystal_system       triclinic
_cell_length_a                    10.136026
_cell_length_b                    10.63315
_cell_length_c                    10.812123
_cell_angle_alpha                 89.716838
_cell_angle_beta                  94.631364
_cell_angle_gamma                 84.147444
_cell_volume                      1155.34658003

loop_
_atom_site_label
_atom_site_type_symbol
_atom_type_description
_atom_site_fract_x
_atom_site_fract_y
_atom_site_fract_z
_atom_type_partial_charge
C1    C     C_R   0.445080 0.512594 0.267607 0.963556
C2    C     C_R   0.462627 0.067010 0.376360 -0.089446
C3    C     C_R   0.481333 0.129802 0.490306 -0.083396
C4    C     C_R   0.512621 0.064459 0.602207 -0.193900
C5    C     C_R   0.524046 0.934759 0.603418 0.411233
C6    C     C_R   0.516513 0.871385 0.490472 -0.117197
C7    C     C_2   0.416190 0.534094 0.135977 -0.241220
C8    C     C_2   0.518029 0.547483 0.067975 -0.133747
C9    C     C_2   0.586001 0.502413 0.864407 0.145799
C10   C     C_2   0.498466 0.564867 0.935918 0.339886
C11   C     C_2   0.070800 0.491179 0.489417 -0.156383
C12   C     C_R   0.494217 0.261220 0.494040 0.924285
C13   C     C_2   0.927288 0.512318 0.509702 0.443048
C14   C     C_R   0.555263 0.497349 0.732237 0.934304
C15   C     C_R   0.503364 0.739454 0.494580 0.950074
C16   C     C_R   0.406630 0.127088 0.263667 0.282186
C17   C     C_R   0.422680 0.065714 0.150449 0.387264
C18   C     C_R   0.492753 0.946464 0.149438 -0.220284
C19   C     C_R   0.534980 0.881936 0.260477 0.306938
C20   C     C_R   0.505234 0.937489 0.375478 -0.090923
H1    H     H_    0.878805 0.383215 0.386613 0.164352
H2    H     H_    0.126416 0.615377 0.616473 0.260405
N1    N     N_2   0.157290 0.551390 0.551110 -0.166088
N2    N     N_2   0.842740 0.448550 0.448960 -0.202442
O1    O     O_R   0.568950 0.489660 0.307530 -0.595558
O2    O     O_R   0.348880 0.522640 0.340350 -0.585924
O3    O     O_R   0.610060 0.300270 0.483590 -0.608299
O4    O     O_R   0.389990 0.333260 0.516410 -0.579634
O5    O     O_R   0.651120 0.477360 0.659650 -0.539892
O6    O     O_R   0.431050 0.510340 0.692470 -0.584284
O7    O     O_R   0.610010 0.666740 0.483590 -0.526216
O8    O     O_R   0.389940 0.699730 0.516410 -0.596099
Zn1   Zn    Zn3+2 0.646940 0.477980 0.478090 1.098727
Zn2   Zn    Zn3+2 0.353060 0.522020 0.521910 1.074268
H3    H     H_    0.528000 0.114683 0.688472 0.195596
H4    H     H_    0.313995 0.540700 0.095587 0.225387
Cl1   Cl    Cl    0.871448 0.625659 0.617543 -0.456256
H5    H     H_    0.104290 0.423345 0.421117 0.194676
Cl2   Cl    Cl    0.291088 0.262189 0.263049 -0.560805
Cl3   Cl    Cl    0.361733 0.138474 0.007602 -0.445341
H6    H     H_    0.515553 0.904015 0.061752 0.255118
Cl4   Cl    Cl    0.657409 0.754293 0.249532 -0.556752
Cl5   Cl    Cl    0.558760 0.854506 0.747052 -0.491783
Cl6   Cl    Cl    0.357450 0.668550 0.878696 -0.485442
H7    H     H_    0.619895 0.538469 0.109029 0.244573
Cl7   Cl    Cl    0.733032 0.411744 0.926649 -0.494362

loop_
_geom_bond_atom_site_label_1
_geom_bond_atom_site_label_2
_ccdc_geom_bond_type
C11   H5    S    
C9    C14   S    
O7    Zn1   S    
C15   O7    A    
C6    C20   A    
C9    C10   D    
C13   Cl1   S    
N2    Zn1   S    
C19   Cl4   S    
N1    Zn2   S    
C17   C18   A    
C5    Cl5   S    
C4    H3    S    
O4    Zn2   S    
C7    C8    D    
O3    Zn1   S    
C1    O1    A    
C11   C13   S    
C16   Cl2   S    
C1    O2    A    
C12   O4    A    
C11   N1    D    
C14   O6    A    
C2    C3    A    
C9    Cl7   S    
H2    N1    S    
C5    C6    A    
C18   H6    S    
O6    Zn2   S    
C12   O3    A    
C10   Cl6   S    
C3    C4    A    
O5    Zn1   S    
C15   O8    A    
C2    C16   A    
C8    C10   S    
C18   C19   A    
C7    H4    S    
H1    N2    S    
C8    H7    S    
C16   C17   A    
C3    C12   S    
C14   O5    A    
C6    C15   S    
C1    C7    S    
C2    C20   A    
O2    Zn2   S    
C19   C20   A    
C13   N2    D    
O1    Zn1   S    
C4    C5    A    
C17   Cl3   S    
O8    Zn2   S    
