data_mof_unit_45952.cif
_audit_creation_date              2012-12-10T18:20:34-0500
_audit_creation_method            fapswitch 2.2
_symmetry_space_group_name_H-M    P1
_symmetry_Int_Tables_number       1
_space_group_crystal_system       triclinic
_cell_length_a                    14.307624
_cell_length_b                    13.558689
_cell_length_c                    14.947754
_cell_angle_alpha                 84.982327
_cell_angle_beta                  90.095112
_cell_angle_gamma                 82.61127
_cell_volume                      2864.41105437

loop_
_atom_site_label
_atom_site_type_symbol
_atom_type_description
_atom_site_fract_x
_atom_site_fract_y
_atom_site_fract_z
_atom_type_partial_charge
C1    C     C_R   0.499171 0.505644 0.327091 0.863095
C2    C     C_R   0.501151 0.493429 0.672964 0.888975
C3    C     C_R   0.501678 0.499549 0.953357 -0.103370
C4    C     C_R   0.498606 0.503941 0.046461 -0.103047
C5    C     C_R   0.525393 0.405934 0.917382 -0.131442
C6    C     C_R   0.479977 0.597626 0.082895 -0.113662
C7    C     C_R   0.458936 0.681872 0.931419 0.361195
C8    C     C_R   0.545133 0.322754 0.068536 0.373200
C9    C     C_R   0.455039 0.685569 0.024943 0.420409
C10   C     C_R   0.553653 0.319030 0.975885 0.387009
C11   C     C_R   0.808985 0.434022 0.557589 0.209914
C12   C     C_R   0.193695 0.563833 0.437762 0.214297
C13   C     C_R   0.790613 0.565578 0.439740 0.212849
C14   C     C_R   0.206872 0.437832 0.560815 0.240862
C15   C     C_R   0.891291 0.561549 0.434854 -0.004738
C16   C     C_R   0.106374 0.445313 0.566202 -0.005185
C17   C     C_R   0.948931 0.505160 0.501385 -0.032602
C18   C     C_R   0.049534 0.504633 0.500069 -0.042944
C19   C     C_R   0.906147 0.446758 0.567885 -0.097173
C20   C     C_R   0.093054 0.560767 0.431585 -0.059045
C21   C     C_R   0.935639 0.610925 0.363669 -0.331458
C22   C     C_R   0.061014 0.394729 0.636839 -0.332908
C23   C     C_R   0.517229 0.314492 0.500269 0.882833
C24   C     C_R   0.482840 0.685072 0.503215 0.876622
C25   C     C_R   0.033956 0.612222 0.360291 0.487959
C26   C     C_R   0.962630 0.399635 0.640932 0.465494
C27   C     C_1   0.469528 0.788619 0.508744 -0.181457
C28   C     C_1   0.530579 0.210197 0.500553 -0.196061
C29   C     C_2   0.460325 0.979985 0.516602 -0.161263
C30   C     C_2   0.540503 0.017654 0.501872 -0.155956
C31   C     C_1   0.538689 0.121939 0.500995 0.006810
C32   C     C_1   0.461581 0.876242 0.513274 -0.003557
C33   C     C_R   0.519381 0.402135 0.823941 0.439203
C34   C     C_R   0.488883 0.601050 0.176387 0.431566
C35   C     C_R   0.502929 0.492028 0.768810 -0.186450
C36   C     C_R   0.497106 0.509971 0.231197 -0.176507
C37   C     C_R   0.491875 0.583604 0.804158 -0.258574
C38   C     C_R   0.504785 0.418836 0.195017 -0.248853
C39   C     C_R   0.483905 0.589003 0.896046 -0.034690
C40   C     C_R   0.515508 0.414520 0.103475 -0.034915
H1    H     H_    0.605951 0.971249 0.488586 0.155679
H2    H     H_    0.394682 0.026394 0.529219 0.156465
H3    H     H_    0.488964 0.650123 0.758428 0.171336
H4    H     H_    0.508297 0.351092 0.239777 0.176847
H5    H     H_    0.894464 0.645678 0.306758 0.150725
H6    H     H_    0.100256 0.350751 0.691201 0.162613
N1    N     N_R   0.750030 0.500040 0.500070 -0.141302
N2    N     N_R   0.249970 0.499960 0.499930 -0.149212
O1    O     O_R   0.580280 0.500020 0.367860 -0.627503
O2    O     O_R   0.419720 0.499980 0.632140 -0.650100
O3    O     O_R   0.419730 0.500030 0.367840 -0.643416
O4    O     O_R   0.580270 0.499970 0.632160 -0.600123
O5    O     O_R   0.591830 0.359650 0.500030 -0.623538
O6    O     O_R   0.408170 0.640350 0.499970 -0.632038
O7    O     O_R   0.431280 0.359660 0.500010 -0.613814
O8    O     O_R   0.568720 0.640340 0.499990 -0.614853
Zn1   Zn    Zn3+2 0.607200 0.499990 0.500020 0.929195
Zn2   Zn    Zn3+2 0.392800 0.500010 0.499980 0.907495
O9    O     O_3   0.536072 0.311637 0.786537 -0.628779
C41   C     C_3   0.450235 0.278360 0.763545 0.077429
H7    H     H_    0.453580 0.265090 0.691459 0.149188
H8    H     H_    0.386241 0.331936 0.774593 0.111692
C42   C     C_3   0.439261 0.179189 0.816076 -0.715112
H9    H     H_    0.426845 0.190158 0.887986 0.270846
H10   H     H_    0.377638 0.148343 0.789520 0.178250
H11   H     H_    0.503207 0.124689 0.809442 0.272689
O10   O     O_3   0.514240 0.687292 0.208337 -0.585549
C43   C     C_3   0.445715 0.730054 0.266051 0.128331
H12   H     H_    0.454382 0.690990 0.333483 0.117155
H13   H     H_    0.372645 0.727815 0.242332 0.119385
C44   C     C_3   0.460623 0.837975 0.274625 -0.761222
H14   H     H_    0.462997 0.878999 0.207274 0.296203
H15   H     H_    0.402311 0.875329 0.313405 0.192697
H16   H     H_    0.528209 0.840519 0.310261 0.237303
O11   O     O_3   0.447779 0.771371 0.876869 -0.573762
C45   C     C_3   0.361022 0.785170 0.828238 0.113656
H17   H     H_    0.307367 0.739303 0.857412 0.092665
H18   H     H_    0.372805 0.766147 0.758209 0.146585
C46   C     C_3   0.320660 0.895158 0.822126 -0.813783
H19   H     H_    0.370604 0.940883 0.786615 0.258647
H20   H     H_    0.252753 0.906728 0.784214 0.198727
H21   H     H_    0.308278 0.920678 0.890018 0.261226
O12   O     O_3   0.563204 0.234536 0.123759 -0.580554
C47   C     C_3   0.653580 0.227110 0.164731 0.116400
H22   H     H_    0.646708 0.251656 0.233589 0.144317
H23   H     H_    0.703017 0.272730 0.127606 0.098691
C48   C     C_3   0.697702 0.118396 0.172791 -0.796388
H24   H     H_    0.705580 0.090554 0.105203 0.262749
H25   H     H_    0.768295 0.111368 0.205460 0.193159
H26   H     H_    0.652428 0.071978 0.214037 0.260080
O13   O     O_3   0.425521 0.775931 0.059152 -0.536706
C49   C     C_3   0.325743 0.789030 0.062609 0.117652
H27   H     H_    0.299858 0.732250 0.111245 0.107599
H28   H     H_    0.293066 0.781746 0.996874 0.127807
C50   C     C_3   0.290615 0.893145 0.089283 -0.834143
H29   H     H_    0.328708 0.949626 0.051636 0.276744
H30   H     H_    0.214191 0.911550 0.073540 0.209076
H31   H     H_    0.301026 0.896840 0.162303 0.240921
O14   O     O_3   0.586536 0.228268 0.944095 -0.542985
C51   C     C_3   0.683013 0.226696 0.923317 0.166728
H32   H     H_    0.725945 0.230782 0.984426 0.108749
H33   H     H_    0.694786 0.289747 0.873798 0.149116
C52   C     C_3   0.717852 0.129732 0.882986 -0.804467
H34   H     H_    0.678833 0.125165 0.819525 0.265579
H35   H     H_    0.794146 0.126850 0.868216 0.197005
H36   H     H_    0.707094 0.064954 0.930901 0.258025
C53   C     C_3   0.781324 0.332106 0.588152 -0.339151
C54   C     C_3   0.724688 0.329219 0.674507 -0.630270
H37   H     H_    0.725242 0.398397 0.708914 0.259618
H38   H     H_    0.651364 0.317763 0.659595 0.259508
H39   H     H_    0.755215 0.265038 0.721260 0.231968
H40   H     H_    0.745820 0.302226 0.532903 0.198036
H41   H     H_    0.845225 0.276146 0.598378 0.193677
C55   C     C_3   0.237454 0.644246 0.381821 -0.310446
C56   C     C_3   0.207349 0.747618 0.413592 -0.889671
H42   H     H_    0.130046 0.768558 0.407551 0.262743
H43   H     H_    0.228560 0.748668 0.484989 0.267927
H44   H     H_    0.242456 0.804168 0.372632 0.235209
H45   H     H_    0.312896 0.632042 0.385941 0.239215
H46   H     H_    0.227266 0.642169 0.308947 0.226769
C57   C     C_3   0.729995 0.643195 0.377273 -0.315314
C58   C     C_3   0.735715 0.749273 0.402577 -0.900473
H47   H     H_    0.710011 0.757342 0.471957 0.275877
H48   H     H_    0.808843 0.768057 0.398589 0.250600
H49   H     H_    0.691050 0.803723 0.355735 0.249963
H50   H     H_    0.748962 0.636120 0.306083 0.177098
H51   H     H_    0.656201 0.633420 0.376685 0.274597
C59   C     C_3   0.265554 0.358108 0.620938 -0.381276
C60   C     C_3   0.260114 0.253848 0.591057 -0.884215
H52   H     H_    0.187470 0.233853 0.596776 0.262148
H53   H     H_    0.282769 0.250370 0.520240 0.278881
H54   H     H_    0.307511 0.197623 0.633888 0.237040
H55   H     H_    0.338495 0.370007 0.620333 0.256403
H56   H     H_    0.245992 0.362171 0.692267 0.156414
O15   O     O_3   0.073506 0.649078 0.281237 -0.626886
C61   C     C_3   0.025929 0.742471 0.245682 0.104973
H57   H     H_    0.999951 0.791025 0.299278 0.127538
H58   H     H_    0.965970 0.730895 0.202141 0.153187
C62   C     C_3   0.092896 0.796886 0.186747 -0.871372
H59   H     H_    0.118627 0.751087 0.131564 0.253836
H60   H     H_    0.055677 0.869332 0.157135 0.213298
H61   H     H_    0.154012 0.811441 0.227019 0.259534
O16   O     O_3   0.921323 0.357573 0.716442 -0.619360
C63   C     C_3   0.940243 0.408292 0.791997 0.125924
H62   H     H_    0.929177 0.491013 0.776401 0.136211
H63   H     H_    0.013771 0.384579 0.816572 0.137246
C64   C     C_3   0.874418 0.382293 0.867742 -0.877922
H64   H     H_    0.879045 0.299980 0.881631 0.255181
H65   H     H_    0.894517 0.414686 0.929594 0.215031
H66   H     H_    0.800815 0.413760 0.849251 0.240190

loop_
_geom_bond_atom_site_label_1
_geom_bond_atom_site_label_2
_ccdc_geom_bond_type
C2    C35   S    
C48   H24   S    
C42   H10   S    
C29   H2    S    
C8    O12   S    
C53   H40   S    
C11   N1    A    
C64   H64   S    
C47   C48   S    
C12   N2    A    
C59   C60   S    
C9    O13   S    
C6    C9    A    
C55   C56   S    
C50   H31   S    
C14   C59   S    
O15   C61   S    
O8    Zn1   S    
C11   C19   A    
C41   C42   S    
C35   C37   A    
C47   H23   S    
C57   H51   S    
C29   C32   S    
C61   C62   S    
C30   C31   S    
C62   H61   S    
C20   C25   A    
C24   O6    A    
O16   C63   S    
O1    Zn1   S    
C54   H37   S    
C18   C20   A    
C41   H8    S    
C19   C26   A    
C53   H41   S    
C2    O2    A    
C44   H16   S    
C17   C19   A    
C4    C40   A    
C43   H12   S    
C56   H43   S    
C5    C33   A    
C53   C54   S    
C45   C46   S    
C30   H1    S    
C21   H5    S    
C55   H45   S    
C60   H54   S    
C56   H44   S    
C42   H11   S    
C3    C39   A    
O9    C41   S    
C33   O9    S    
C63   C64   S    
C49   H28   S    
C23   O5    A    
C12   C55   S    
O10   C43   S    
O2    Zn2   S    
C64   H66   S    
C47   H22   S    
C63   H63   S    
O13   C49   S    
C44   H15   S    
O5    Zn1   S    
C61   H57   S    
C7    O11   S    
C49   C50   S    
C6    C34   A    
C41   H7    S    
C37   H3    S    
O11   C45   S    
C38   H4    S    
C29   C30   D    
C59   H56   S    
N1    Zn1   S    
C13   C57   S    
O14   C51   S    
C15   C21   A    
C24   C27   S    
C12   C20   A    
C51   H33   S    
C17   C18   A    
C52   H35   S    
O3    Zn2   S    
C23   C28   S    
C45   H17   S    
C23   O7    A    
C1    O3    A    
C57   C58   S    
C2    O4    A    
C4    C6    A    
C22   H6    S    
C48   H25   S    
C11   C53   S    
C14   C16   A    
C46   H19   S    
O12   C47   S    
C58   H48   S    
C26   O16   S    
C52   H34   S    
C61   H58   S    
C13   N1    A    
C60   H52   S    
O6    Zn2   S    
C15   C17   A    
C21   C25   A    
C16   C22   A    
C64   H65   S    
C27   C32   T    
C28   C31   T    
C45   H18   S    
C63   H62   S    
C3    C5    A    
C34   O10   S    
C46   H21   S    
C14   N2    A    
C62   H59   S    
C50   H30   S    
N2    Zn2   S    
C24   O8    A    
C46   H20   S    
C54   H39   S    
C16   C18   A    
C58   H49   S    
C13   C15   A    
C5    C10   A    
C37   C39   A    
C59   H55   S    
C38   C40   A    
C62   H60   S    
C56   H42   S    
O7    Zn2   S    
C43   C44   S    
C36   C38   A    
C49   H27   S    
C33   C35   A    
C54   H38   S    
C52   H36   S    
C34   C36   A    
C51   C52   S    
C10   O14   S    
C25   O15   S    
O4    Zn1   S    
C42   H9    S    
C7    C9    A    
C57   H50   S    
C44   H14   S    
C8    C10   A    
C22   C26   A    
C48   H26   S    
C50   H29   S    
C43   H13   S    
C7    C39   A    
C51   H32   S    
C8    C40   A    
C58   H47   S    
C1    O1    A    
C55   H46   S    
C3    C4    A    
C1    C36   S    
C60   H53   S    
