data_mof_unit_51369.cif
_audit_creation_date              2012-12-11T14:44:36-0500
_audit_creation_method            fapswitch 2.2
_symmetry_space_group_name_H-M    P1
_symmetry_Int_Tables_number       1
_space_group_crystal_system       triclinic
_cell_length_a                    20.166512
_cell_length_b                    7.211403
_cell_length_c                    19.489703
_cell_angle_alpha                 89.999971
_cell_angle_beta                  98.636708
_cell_angle_gamma                 90.0
_cell_volume                      2802.22436173

loop_
_atom_site_label
_atom_site_type_symbol
_atom_type_description
_atom_site_fract_x
_atom_site_fract_y
_atom_site_fract_z
_atom_type_partial_charge
O1    O     O_R   0.673210 0.377390 0.686390 -0.524078
O2    O     O_R   0.326790 0.622610 0.313610 -0.524613
O3    O     O_R   0.826790 0.877390 0.813610 -0.524077
O4    O     O_R   0.173210 0.122610 0.186390 -0.524612
O5    O     O_R   0.810750 0.706450 0.681250 -0.480040
O6    O     O_R   0.189250 0.293550 0.318750 -0.476401
O7    O     O_R   0.689250 0.206450 0.818750 -0.480041
O8    O     O_R   0.310750 0.793550 0.181250 -0.476401
C1    C     C_R   0.828946 0.538523 0.663043 0.832272
C2    C     C_R   0.170940 0.461473 0.336842 0.833391
C3    C     C_R   0.671054 0.038523 0.836957 0.832271
C4    C     C_R   0.329060 0.961473 0.163158 0.833391
O9    O     O_R   0.672750 0.707060 0.678240 -0.528807
O10   O     O_R   0.327250 0.292940 0.321760 -0.526421
O11   O     O_R   0.827250 0.207060 0.821760 -0.528807
O12   O     O_R   0.172750 0.792940 0.178240 -0.526420
O13   O     O_R   0.687800 0.877990 0.810580 -0.552369
O14   O     O_R   0.312200 0.122010 0.189420 -0.559419
O15   O     O_R   0.812200 0.377990 0.689420 -0.552369
O16   O     O_R   0.187800 0.622010 0.310580 -0.559419
C5    C     C_R   0.647643 0.537943 0.662232 0.782980
C6    C     C_R   0.352386 0.462050 0.337734 0.789387
C7    C     C_R   0.852357 0.037943 0.837768 0.782979
C8    C     C_R   0.147614 0.962050 0.162266 0.789387
O17   O     O_3   0.755100 0.544060 0.793420 -0.365226
O18   O     O_3   0.244900 0.455940 0.206580 -0.373360
O19   O     O_3   0.744900 0.044060 0.706580 -0.365227
O20   O     O_3   0.255100 0.955940 0.293420 -0.373361
V1    V     V_3+5 0.749050 0.818670 0.741950 1.758331
V2    V     V_3+5 0.250950 0.181330 0.258050 1.710533
V3    V     V_3+5 0.750950 0.318670 0.758050 1.758331
V4    V     V_3+5 0.249050 0.681330 0.241950 1.710533
C9    C     C_R   0.084327 0.978592 0.111901 -0.190303
C10   C     C_R   0.915599 0.021367 0.888178 -0.185701
C11   C     C_R   0.415673 0.478592 0.388099 -0.190302
C12   C     C_R   0.584401 0.521367 0.611822 -0.185701
C13   C     C_R   0.024819 0.875271 0.924983 -0.170120
C14   C     C_R   0.975076 0.124609 0.075126 -0.177704
C15   C     C_R   0.475181 0.375273 0.575017 -0.170118
C16   C     C_R   0.524924 0.624606 0.424873 -0.177704
C17   C     C_R   0.970470 0.913233 0.872741 0.451315
C18   C     C_R   0.029471 0.086790 0.127344 0.454348
C19   C     C_R   0.529530 0.413235 0.627259 0.451314
C20   C     C_R   0.470529 0.586788 0.372655 0.454347
C21   C     C_R   0.918773 0.095506 0.955425 -0.220938
C22   C     C_R   0.081081 0.904249 0.044683 -0.220879
C23   C     C_R   0.581227 0.595505 0.544575 -0.220938
C24   C     C_R   0.418919 0.404249 0.455317 -0.220880
C25   C     C_R   0.973373 0.056019 0.007620 0.062430
C26   C     C_R   0.026493 0.943798 0.992491 0.061793
C27   C     C_R   0.526627 0.556018 0.492380 0.062430
C28   C     C_R   0.473506 0.443799 0.507509 0.061793
H1    H     H_    0.122172 0.821006 0.032123 0.202078
H2    H     H_    0.877613 0.178508 0.967991 0.197623
H3    H     H_    0.377827 0.321008 0.467877 0.202078
H4    H     H_    0.622387 0.678505 0.532009 0.197624
H5    H     H_    0.065930 0.790438 0.912991 0.195131
H6    H     H_    0.933970 0.209452 0.087126 0.187717
H7    H     H_    0.434070 0.290441 0.587010 0.195133
H8    H     H_    0.566031 0.709449 0.412874 0.187717
C29   C     C_R   0.579695 0.878306 0.885938 -0.161213
C30   C     C_R   0.421029 0.120697 0.114857 -0.182752
C31   C     C_R   0.920305 0.378306 0.614062 -0.161217
C32   C     C_R   0.078971 0.620697 0.385143 -0.182754
C33   C     C_R   0.624196 0.029254 0.889520 -0.183075
C34   C     C_R   0.376117 0.970670 0.110805 -0.193811
C35   C     C_R   0.875804 0.529254 0.610480 -0.183075
C36   C     C_R   0.123883 0.470670 0.389195 -0.193810
C37   C     C_R   0.622294 0.165863 0.942325 0.414081
C38   C     C_R   0.377775 0.834761 0.057742 0.416255
C39   C     C_R   0.877706 0.665864 0.557675 0.414081
C40   C     C_R   0.122225 0.334760 0.442258 0.416256
C41   C     C_R   0.569098 0.161259 0.982935 -0.023648
C42   C     C_R   0.431243 0.838600 0.017447 -0.026021
C43   C     C_R   0.930902 0.661259 0.517065 -0.023646
C44   C     C_R   0.068757 0.338600 0.482553 -0.026022
C45   C     C_R   0.525514 0.006091 0.978584 0.022516
C46   C     C_R   0.474992 0.993427 0.021975 0.025635
C47   C     C_R   0.974486 0.506091 0.521416 0.022517
C48   C     C_R   0.025008 0.493427 0.478025 0.025636
C49   C     C_R   0.532421 0.862827 0.931214 0.083288
C50   C     C_R   0.468218 0.136412 0.069499 0.090539
C51   C     C_R   0.967579 0.362827 0.568785 0.083285
C52   C     C_R   0.031782 0.636412 0.430501 0.090539
C53   C     C_R   0.557837 0.307507 0.027895 -0.096694
C54   C     C_R   0.442576 0.692136 0.972597 -0.093812
C55   C     C_R   0.942163 0.807507 0.472105 -0.096694
C56   C     C_R   0.057423 0.192135 0.527402 -0.093812
C57   C     C_R   0.509084 0.293605 0.071371 -0.150749
C58   C     C_R   0.491557 0.705618 0.929369 -0.149058
C59   C     C_R   0.990916 0.793605 0.428629 -0.150749
C60   C     C_R   0.008442 0.205618 0.570631 -0.149058
H9    H     H_    0.581672 0.771115 0.847305 0.203528
H10   H     H_    0.419301 0.227208 0.153794 0.208356
H11   H     H_    0.918328 0.271115 0.652695 0.203528
H12   H     H_    0.080699 0.727209 0.346206 0.208356
H13   H     H_    0.585311 0.436244 0.029054 0.199985
H14   H     H_    0.414988 0.563543 0.971330 0.201007
H15   H     H_    0.914689 0.936244 0.470946 0.199985
H16   H     H_    0.085011 0.063542 0.528669 0.201008
H17   H     H_    0.502832 0.407657 0.106079 0.172899
H18   H     H_    0.497889 0.591389 0.894765 0.172471
H19   H     H_    0.997168 0.907657 0.393921 0.172899
H20   H     H_    0.002110 0.091388 0.605234 0.172475
S1    S     S_3+6 0.026293 0.179176 0.211025 -0.017465
O21   O     O_2   0.062623 0.055409 0.266382 -0.361729
O22   O     O_2   0.058485 0.367530 0.215462 -0.357311
O23   O     O_3   0.945992 0.201028 0.223710 -0.490314
H21   H     H_    0.948421 0.257251 0.270407 0.371499
S2    S     S_3+6 0.973716 0.821082 0.789036 -0.014746
O24   O     O_2   0.941494 0.632765 0.784478 -0.359351
O25   O     O_2   0.937456 0.945044 0.733704 -0.365212
O26   O     O_3   0.054040 0.799216 0.776430 -0.480781
H22   H     H_    0.051649 0.743092 0.729722 0.375102
S3    S     S_3+6 0.473707 0.679173 0.288974 -0.017465
O27   O     O_2   0.437377 0.555406 0.233618 -0.361731
O28   O     O_2   0.441515 0.867528 0.284537 -0.357310
O29   O     O_3   0.554008 0.701023 0.276289 -0.490314
H23   H     H_    0.551579 0.757242 0.229591 0.371499
S4    S     S_3+6 0.526283 0.321087 0.710964 -0.014745
O30   O     O_2   0.558504 0.132768 0.715523 -0.359346
O31   O     O_2   0.562544 0.445049 0.766296 -0.365218
O32   O     O_3   0.445960 0.299224 0.723570 -0.480779
H24   H     H_    0.448350 0.243129 0.770284 0.375100
S5    S     S_3+6 0.690287 0.324421 0.964622 -0.015736
O33   O     O_2   0.754060 0.247189 0.945296 -0.372360
O34   O     O_2   0.673643 0.503983 0.926801 -0.344817
O35   O     O_3   0.703693 0.364491 0.050665 -0.498666
H25   H     H_    0.737387 0.465376 0.057221 0.377444
S6    S     S_3+6 0.309154 0.678446 0.034953 -0.002609
O36   O     O_2   0.245665 0.758092 0.054073 -0.374229
O37   O     O_2   0.297688 0.642242 0.958101 -0.313501
O38   O     O_3   0.326833 0.477548 0.077480 -0.506656
H26   H     H_    0.288011 0.395950 0.061739 0.358759
S7    S     S_3+6 0.809712 0.824421 0.535377 -0.015736
O39   O     O_2   0.745940 0.747190 0.554704 -0.372360
O40   O     O_2   0.826357 0.003984 0.573199 -0.344817
O41   O     O_3   0.796307 0.864491 0.449335 -0.498667
H27   H     H_    0.762613 0.965377 0.442779 0.377445
S8    S     S_3+6 0.190846 0.178445 0.465046 -0.002609
O42   O     O_2   0.254335 0.258092 0.445928 -0.374229
O43   O     O_2   0.202311 0.142235 0.541898 -0.313500
O44   O     O_3   0.173167 0.977549 0.422518 -0.506655
H28   H     H_    0.211989 0.895951 0.438258 0.358759

loop_
_geom_bond_atom_site_label_1
_geom_bond_atom_site_label_2
_ccdc_geom_bond_type
O17   V3    S    
C24   H3    S    
C39   C43   A    
O1    C5    A    
C16   H8    S    
C55   C59   A    
O19   V1    S    
O13   V1    S    
O3    C7    A    
S8    O44   S    
O1    V3    S    
C40   C44   A    
O15   V3    S    
O35   H25   S    
S7    O39   D    
C5    C12   S    
C34   C38   A    
C45   C46   A    
O7    C3    A    
C6    C11   S    
S1    O22   D    
C50   C57   A    
C9    C18   A    
C32   C36   A    
O9    V1    S    
S8    O43   D    
C14   C18   A    
C39   S7    S    
O4    C8    A    
C29   H9    S    
O44   H28   S    
C31   H11   S    
C38   S6    S    
O23   H21   S    
C12   C23   A    
O2    V4    S    
O3    V1    S    
O29   H23   S    
C32   C52   A    
C14   H6    S    
C1    O15   A    
C58   H18   S    
C56   C60   A    
C20   S3    S    
C2    O16   A    
S3    O28   D    
C38   C42   A    
S5    O35   S    
C37   C41   A    
O14   V2    S    
C52   C59   A    
C21   C25   A    
C44   C56   A    
C55   H15   S    
S4    O32   S    
C48   C52   A    
C19   S4    S    
C7    C10   S    
O11   C7    A    
C15   C28   A    
C30   C50   A    
C37   S5    S    
O12   C8    A    
C9    C22   A    
C10   C17   A    
O10   V2    S    
C11   C24   A    
S4    O31   D    
O5    V1    S    
S1    O23   S    
C31   C35   A    
O7    V3    S    
C30   C34   A    
C27   C28   A    
O8    V4    S    
O32   H24   S    
S8    O42   D    
C32   H12   S    
C54   C58   A    
C14   C25   A    
C53   C57   A    
O18   V4    S    
C15   C19   A    
C4    C34   S    
O4    V2    S    
S2    O24   D    
C31   C51   A    
C36   C40   A    
S6    O37   D    
C1    C35   S    
O5    C1    A    
C51   C60   A    
C46   C50   A    
C24   C28   A    
O8    C4    A    
S3    O29   S    
C15   H7    S    
O9    C5    A    
C10   C21   A    
C42   C54   A    
C11   C20   A    
S2    O26   S    
C41   C53   A    
C56   H16   S    
S7    O41   S    
C49   C58   A    
C43   C55   A    
O6    V2    S    
C21   H2    S    
C25   C26   A    
C17   S2    S    
C30   H10   S    
S5    O33   D    
S6    O38   S    
C40   S8    S    
S4    O30   D    
O26   H22   S    
O16   V4    S    
S7    O40   D    
C3    O13   A    
C57   H17   S    
C3    C33   S    
C44   C48   A    
C59   H19   S    
O6    C2    A    
C23   C27   A    
O11   V3    S    
C2    C36   S    
O12   V4    S    
C16   C27   A    
S1    O21   D    
C22   C26   A    
C8    C9    S    
O10   C6    A    
O20   V2    S    
S6    O36   D    
C29   C49   A    
O2    C6    A    
C47   C51   A    
C13   C26   A    
O38   H26   S    
C33   C37   A    
C22   H1    S    
C35   C39   A    
C13   C17   A    
C54   H14   S    
C18   S1    S    
S2    O25   D    
C53   H13   S    
O41   H27   S    
C60   H20   S    
C47   C48   A    
C29   C33   A    
C16   C20   A    
C45   C49   A    
C42   C46   A    
C4    O14   A    
S5    O34   D    
C41   C45   A    
C12   C19   A    
C43   C47   A    
C13   H5    S    
S3    O27   D    
C23   H4    S    
