data_mof_unit_7491.cif
_audit_creation_date              2013-03-05T16:24:47-0500
_audit_creation_method            fapswitch 2.2
_symmetry_space_group_name_H-M    P1
_symmetry_Int_Tables_number       1
_space_group_crystal_system       triclinic
_cell_length_a                    28.812523
_cell_length_b                    18.261312
_cell_length_c                    22.011196
_cell_angle_alpha                 90.653505
_cell_angle_beta                  140.638643
_cell_angle_gamma                 89.213991
_cell_volume                      7344.26320299

loop_
_atom_site_label
_atom_site_type_symbol
_atom_site_description
_atom_site_fract_x
_atom_site_fract_y
_atom_site_fract_z
_atom_type_partial_charge
O1    O     O_R   0.894190 0.938730 0.894180 -0.555519
O2    O     O_R   0.105810 0.061270 0.105820 -0.551347
O3    O     O_R   0.105810 0.938730 0.105820 -0.555805
O4    O     O_R   0.894190 0.061270 0.894180 -0.542583
O5    O     O_R   0.394190 0.438730 0.894180 -0.554861
O6    O     O_R   0.605810 0.561270 0.105820 -0.551488
O7    O     O_R   0.605810 0.438730 0.105820 -0.555026
O8    O     O_R   0.394190 0.561270 0.894180 -0.542785
C1    C     C_R   0.860146 0.000174 0.863507 0.907013
C2    C     C_R   0.139913 0.999870 0.137330 0.906327
C3    C     C_R   0.360148 0.500174 0.863527 0.906252
C4    C     C_R   0.639909 0.499873 0.137275 0.905759
O9    O     O_R   0.999980 0.938730 0.908830 -0.520693
O10   O     O_R   0.000020 0.061270 0.091170 -0.523826
O11   O     O_R   0.000020 0.938730 0.091170 -0.513757
O12   O     O_R   0.999980 0.061270 0.908830 -0.513766
O13   O     O_R   0.499980 0.438730 0.908830 -0.520883
O14   O     O_R   0.500020 0.561270 0.091170 -0.524124
O15   O     O_R   0.500020 0.438730 0.091170 -0.510775
O16   O     O_R   0.499980 0.561270 0.908830 -0.513963
C5    C     C_R   0.993433 0.999394 0.873418 0.978330
C6    C     C_R   0.009080 0.000260 0.128787 0.981038
C7    C     C_R   0.493448 0.499392 0.873431 0.977725
C8    C     C_R   0.509075 0.500264 0.128785 0.980331
Cu1   Cu    Cu3+1 0.000000 0.927450 0.000000 1.200937
Cu2   Cu    Cu3+1 0.000000 0.072550 0.000000 1.206282
Cu3   Cu    Cu3+1 0.500000 0.427450 0.000000 1.206303
Cu4   Cu    Cu3+1 0.500000 0.572550 0.000000 1.206337
C9    C     C_3   0.966559 0.912886 0.750074 0.443462
C10   C     C_3   0.047930 0.081091 0.263850 0.433053
C11   C     C_3   0.060739 0.924745 0.272307 0.406799
C12   C     C_3   0.931111 0.065688 0.719658 0.403391
C13   C     C_3   0.466664 0.412853 0.750174 0.443160
C14   C     C_3   0.547594 0.581255 0.263534 0.433453
C15   C     C_3   0.561030 0.424954 0.272611 0.407360
C16   C     C_3   0.431049 0.565614 0.719594 0.403289
C17   C     C_3   0.984405 0.915746 0.694666 0.312028
C18   C     C_3   0.029859 0.081134 0.318967 0.320520
C19   C     C_3   0.059681 0.930933 0.346123 0.317105
C20   C     C_3   0.932198 0.060297 0.646020 0.329354
C21   C     C_3   0.484508 0.415734 0.694765 0.311937
C22   C     C_3   0.529514 0.581221 0.318642 0.320260
C23   C     C_3   0.559957 0.431133 0.346418 0.317692
C24   C     C_3   0.432141 0.560232 0.645961 0.328998
C25   C     C_3   0.074035 0.019289 0.862776 0.249324
C26   C     C_3   0.925912 0.992501 0.136428 0.232417
C27   C     C_3   0.574024 0.519378 0.862757 0.249353
C28   C     C_3   0.425954 0.492135 0.136472 0.231592
C29   C     C_3   0.989580 0.998580 0.800903 -0.538623
C30   C     C_3   0.012769 0.000046 0.201052 -0.536729
C31   C     C_3   0.489593 0.498573 0.800912 -0.538395
C32   C     C_3   0.512769 0.500061 0.201062 -0.536831
C33   C     C_3   0.000652 0.003017 0.689937 -0.538583
C34   C     C_3   0.000243 0.997409 0.310673 -0.546255
C35   C     C_3   0.500656 0.503025 0.689938 -0.538577
C36   C     C_3   0.500248 0.497377 0.310689 -0.546336
C37   C     C_3   0.080699 0.032075 0.797510 0.464031
C38   C     C_3   0.917003 0.980178 0.199294 0.483005
C39   C     C_3   0.580671 0.532168 0.797473 0.464113
C40   C     C_3   0.417091 0.479804 0.199390 0.483176
C41   C     C_1   0.782403 0.000397 0.785417 -0.010949
C42   C     C_1   0.217618 0.999753 0.215075 -0.049121
C43   C     C_1   0.282403 0.500397 0.785433 -0.010824
C44   C     C_1   0.717617 0.499765 0.215029 -0.049345
C45   C     C_1   0.716922 0.000315 0.718705 -0.087265
C46   C     C_1   0.283094 0.999820 0.281466 -0.093683
C47   C     C_1   0.216922 0.500314 0.718711 -0.087206
C48   C     C_1   0.783093 0.499831 0.281446 -0.093840
O17   O     O_R   0.938700 0.894210 0.438700 -0.568570
O18   O     O_R   0.061300 0.105790 0.561300 -0.563189
O19   O     O_R   0.061300 0.894210 0.561300 -0.527142
O20   O     O_R   0.938700 0.105790 0.438700 -0.535693
O21   O     O_R   0.438700 0.394210 0.438700 -0.568441
O22   O     O_R   0.561300 0.605790 0.561300 -0.563244
O23   O     O_R   0.561300 0.394210 0.561300 -0.527155
O24   O     O_R   0.438700 0.605790 0.438700 -0.535481
C49   C     C_R   0.000143 0.860045 0.501670 0.917338
C50   C     C_R   0.999840 0.140000 0.499863 0.922427
C51   C     C_R   0.500144 0.360044 0.501640 0.917140
C52   C     C_R   0.499839 0.639999 0.499840 0.922077
O25   O     O_R   0.938740 0.000000 0.529880 -0.532990
O26   O     O_R   0.061260 0.000000 0.470120 -0.536431
O27   O     O_R   0.438740 0.500000 0.529880 -0.532960
O28   O     O_R   0.561260 0.500000 0.470120 -0.536407
O29   O     O_R   0.061220 1.000000 0.652370 -0.513957
O30   O     O_R   0.938780 0.000000 0.347630 -0.502091
O31   O     O_R   0.561220 0.500000 0.652370 -0.513922
O32   O     O_R   0.438780 0.500000 0.347630 -0.502055
C53   C     C_R   0.000501 0.003238 0.620836 0.972432
C54   C     C_R   0.999607 0.997510 0.379154 0.989774
C55   C     C_R   0.500502 0.503246 0.620835 0.972346
C56   C     C_R   0.499609 0.497482 0.379160 0.989509
Cu5   Cu    Cu3+1 0.927450 0.000000 0.427440 1.227409
Cu6   Cu    Cu3+1 0.072550 0.000000 0.572560 1.253115
Cu7   Cu    Cu3+1 0.427450 0.500000 0.427440 1.227862
Cu8   Cu    Cu3+1 0.572550 0.500000 0.572560 1.253043
O33   O     O_R   0.499910 0.105770 0.447130 -0.579464
O34   O     O_R   0.500090 0.894230 0.552870 -0.568969
O35   O     O_R   0.500090 0.105770 0.552870 -0.543818
O36   O     O_R   0.499910 0.894230 0.447130 -0.550418
O37   O     O_R   0.999910 0.605770 0.447130 -0.579460
O38   O     O_R   0.000090 0.394230 0.552870 -0.569008
O39   O     O_R   0.000090 0.605770 0.552870 -0.543835
O40   O     O_R   0.999910 0.394230 0.447130 -0.550474
C57   C     C_R   0.500115 0.139210 0.500423 0.804789
C58   C     C_R   0.499857 0.860795 0.499594 0.800917
C59   C     C_R   0.000113 0.639209 0.500423 0.804810
C60   C     C_R   0.999858 0.360795 0.499596 0.800873
O41   O     O_R   0.605760 0.000000 0.553010 -0.571916
O42   O     O_R   0.394240 0.000000 0.446990 -0.559155
O43   O     O_R   0.105760 0.500000 0.553010 -0.571793
O44   O     O_R   0.894240 0.500000 0.446990 -0.559112
O45   O     O_R   0.605780 0.000000 0.658540 -0.551425
O46   O     O_R   0.394220 0.000000 0.341460 -0.559653
O47   O     O_R   0.105780 0.500000 0.658540 -0.551470
O48   O     O_R   0.894220 0.500000 0.341460 -0.559684
C61   C     C_R   0.639230 0.000090 0.639681 0.805801
C62   C     C_R   0.360775 0.999958 0.360342 0.802350
C63   C     C_R   0.139231 0.500090 0.639682 0.805852
C64   C     C_R   0.860774 0.499962 0.360339 0.802288
Cu9   Cu    Cu3+1 0.499960 0.000000 0.437480 1.095832
Cu10  Cu    Cu3+1 0.500040 0.000000 0.562520 1.128071
Cu11  Cu    Cu3+1 0.999960 0.500000 0.437480 1.095927
Cu12  Cu    Cu3+1 0.000040 0.500000 0.562520 1.128097
C65   C     C_1   0.000419 0.782370 0.501903 -0.015750
C66   C     C_1   0.999501 0.217656 0.499089 -0.009536
C67   C     C_1   0.500424 0.282370 0.501885 -0.015953
C68   C     C_1   0.499499 0.717655 0.499071 -0.009590
C69   C     C_1   0.500358 0.216887 0.501407 -0.098493
C70   C     C_1   0.499571 0.783126 0.498906 -0.092420
C71   C     C_1   0.000354 0.716887 0.501411 -0.098522
C72   C     C_1   0.999573 0.283127 0.498914 -0.092604
S1    S     S_3+6 0.007670 0.828602 0.832351 0.166012
O49   O     O_2   0.998381 0.761208 0.784069 -0.169744
O50   O     O_2   0.084853 0.826544 0.932563 -0.199867
O51   O     O_3   0.959040 0.810927 0.846675 -0.441583
H1    H     H_    0.973292 0.760622 0.872963 0.371090
S2    S     S_3+6 0.019823 0.170555 0.195423 0.163485
O52   O     O_2   0.943081 0.186563 0.098550 -0.192649
O53   O     O_2   0.042610 0.235116 0.256701 -0.174890
O54   O     O_3   0.067796 0.178470 0.178662 -0.447379
H2    H     H_    0.063021 0.230529 0.162228 0.372716
S3    S     S_3+6 0.028611 0.832615 0.204588 0.170603
O55   O     O_2   0.047187 0.768123 0.261983 -0.150267
O56   O     O_2   0.951352 0.823102 0.106974 -0.198874
O57   O     O_3   0.072751 0.814351 0.183291 -0.446818
H3    H     H_    0.056078 0.765039 0.153195 0.371124
S4    S     S_3+6 0.949565 0.161414 0.773815 0.171674
O58   O     O_2   0.024834 0.184966 0.865933 -0.197915
O59   O     O_2   0.916610 0.222182 0.704159 -0.148136
O60   O     O_3   0.907808 0.169685 0.799854 -0.434721
H4    H     H_    0.908025 0.222687 0.810242 0.376282
S5    S     S_3+6 0.507868 0.328617 0.832555 0.166098
O61   O     O_2   0.498684 0.261202 0.784389 -0.169381
O62   O     O_2   0.585046 0.326675 0.932781 -0.200428
O63   O     O_3   0.459233 0.310869 0.846855 -0.440777
H5    H     H_    0.474022 0.260823 0.873978 0.371327
S6    S     S_3+6 0.519125 0.670614 0.194741 0.163502
O64   O     O_2   0.442326 0.686258 0.097768 -0.192782
O65   O     O_2   0.541588 0.735273 0.255713 -0.174955
O66   O     O_3   0.567112 0.678791 0.178027 -0.447131
H6    H     H_    0.562084 0.730859 0.161348 0.372553
S7    S     S_3+6 0.529283 0.332703 0.205262 0.170010
O67   O     O_2   0.548352 0.268362 0.263194 -0.156564
O68   O     O_2   0.452093 0.322566 0.107781 -0.191430
O69   O     O_3   0.573236 0.314868 0.183614 -0.450010
H7    H     H_    0.564473 0.262427 0.165503 0.374074
S8    S     S_3+6 0.449394 0.661356 0.773648 0.171606
O70   O     O_2   0.524638 0.685008 0.865718 -0.197987
O71   O     O_2   0.416334 0.722089 0.703908 -0.148138
O72   O     O_3   0.407655 0.669549 0.799719 -0.434802
H8    H     H_    0.407907 0.722528 0.810196 0.376248
S9    S     S_3+6 0.868915 0.882448 0.666218 0.141287
O73   O     O_2   0.864540 0.800107 0.663438 -0.169402
O74   O     O_2   0.845577 0.908697 0.704499 -0.236861
O75   O     O_3   0.801886 0.898627 0.548272 -0.406685
H9    H     H_    0.758678 0.871656 0.519467 0.403792
S10   S     S_3+6 0.149033 0.095452 0.349694 0.136734
O76   O     O_2   0.166613 0.063260 0.306152 -0.248649
O77   O     O_2   0.166948 0.175639 0.363529 -0.172508
O78   O     O_3   0.213238 0.070336 0.464922 -0.413061
H10   H     H_    0.260356 0.087689 0.495927 0.403841
S11   S     S_3+6 0.157393 0.910753 0.339501 0.153324
O79   O     O_2   0.221196 0.953006 0.426888 -0.175393
O80   O     O_2   0.180535 0.832535 0.373314 -0.146886
O81   O     O_3   0.158013 0.922971 0.265275 -0.506820
H11   H     H_    0.201012 0.894722 0.293776 0.374080
S12   S     S_3+6 0.834651 0.063215 0.654456 0.144444
O82   O     O_2   0.840793 0.047977 0.726883 -0.305058
O83   O     O_2   0.800149 0.137989 0.613696 -0.143600
O84   O     O_3   0.766813 0.010067 0.560797 -0.416586
H12   H     H_    0.726430 0.016863 0.549574 0.380300
S13   S     S_3+6 0.369055 0.382299 0.666340 0.141476
O85   O     O_2   0.364782 0.299950 0.663643 -0.168853
O86   O     O_2   0.345680 0.408501 0.704586 -0.236689
O87   O     O_3   0.302011 0.398413 0.548378 -0.406717
H13   H     H_    0.258832 0.371391 0.519599 0.403861
S14   S     S_3+6 0.648634 0.596036 0.349338 0.136942
O88   O     O_2   0.666357 0.563943 0.305933 -0.247900
O89   O     O_2   0.666212 0.676304 0.362867 -0.172631
O90   O     O_3   0.712935 0.571161 0.464660 -0.413117
H14   H     H_    0.759981 0.588708 0.495599 0.403885
S15   S     S_3+6 0.657733 0.411351 0.339857 0.151378
O91   O     O_2   0.721363 0.453860 0.427075 -0.174479
O92   O     O_2   0.681188 0.333220 0.373966 -0.151732
O93   O     O_3   0.658307 0.423602 0.265597 -0.507379
H15   H     H_    0.701259 0.395301 0.294024 0.373521
S16   S     S_3+6 0.334595 0.563024 0.654397 0.144546
O94   O     O_2   0.340763 0.547770 0.726846 -0.305207
O95   O     O_2   0.300007 0.637762 0.613571 -0.143358
O96   O     O_3   0.266814 0.509807 0.560789 -0.416417
H16   H     H_    0.226428 0.516546 0.549569 0.380389
Br1   Br    Br    0.905469 0.871030 0.563502 -0.243357
Br2   Br    Br    0.115108 0.115938 0.454810 -0.217804
Br3   Br    Br    0.158221 0.955873 0.476738 -0.165281
Br4   Br    Br    0.837799 0.021956 0.520841 -0.168838
Br5   Br    Br    0.405625 0.370947 0.563640 -0.243406
Br6   Br    Br    0.614602 0.616335 0.454358 -0.218573
Br7   Br    Br    0.658401 0.456466 0.476929 -0.165125
Br8   Br    Br    0.337782 0.521796 0.520818 -0.167987
S17   S     S_3+6 0.052487 0.845330 0.736845 0.107329
O97   O     O_2   0.017327 0.772032 0.689502 -0.208568
O98   O     O_2   0.084247 0.866494 0.709022 -0.272560
O99   O     O_3   0.120331 0.826407 0.854394 -0.391859
H17   H     H_    0.145471 0.782453 0.862873 0.404519
S18   S     S_3+6 0.972327 0.159970 0.287776 0.101516
O100  O     O_2   0.940192 0.142624 0.315944 -0.298705
O101  O     O_2   0.016557 0.228331 0.343284 -0.207971
O102  O     O_3   0.905887 0.186891 0.173044 -0.395162
H18   H     H_    0.887083 0.233826 0.171095 0.400909
S19   S     S_3+6 0.067740 0.840871 0.394903 0.136820
O103  O     O_2   0.135363 0.801939 0.440260 -0.145044
O104  O     O_2   0.081874 0.855796 0.474846 -0.300412
O105  O     O_3   0.003168 0.776044 0.328871 -0.405360
H19   H     H_    0.022183 0.736593 0.374472 0.370874
S20   S     S_3+6 0.910449 0.149056 0.584263 0.142171
O106  O     O_2   0.899777 0.134570 0.507122 -0.288236
O107  O     O_2   0.837422 0.176422 0.533435 -0.146545
O108  O     O_3   0.964095 0.223118 0.641999 -0.393149
H20   H     H_    0.940360 0.259799 0.591456 0.373175
S21   S     S_3+6 0.552658 0.345382 0.737020 0.107399
O109  O     O_2   0.517567 0.272046 0.689762 -0.208527
O110  O     O_2   0.584394 0.366555 0.709166 -0.272334
O111  O     O_3   0.620523 0.326539 0.854592 -0.391844
H21   H     H_    0.645708 0.282608 0.863123 0.404561
S22   S     S_3+6 0.471660 0.659831 0.287118 0.101573
O112  O     O_2   0.439555 0.642383 0.315306 -0.298060
O113  O     O_2   0.515625 0.728361 0.342372 -0.208108
O114  O     O_3   0.405144 0.686488 0.172277 -0.395129
H22   H     H_    0.386155 0.733358 0.170125 0.400972
S23   S     S_3+6 0.568402 0.341100 0.395606 0.137226
O115  O     O_2   0.636214 0.302468 0.441193 -0.144669
O116  O     O_2   0.582425 0.356070 0.475447 -0.300002
O117  O     O_3   0.504122 0.275981 0.329825 -0.405048
H23   H     H_    0.523238 0.236657 0.375580 0.370854
S24   S     S_3+6 0.410301 0.648979 0.584123 0.142619
O118  O     O_2   0.399673 0.634505 0.507018 -0.287762
O119  O     O_2   0.337234 0.676252 0.533241 -0.145728
O120  O     O_3   0.463856 0.723105 0.641803 -0.393219
H24   H     H_    0.440100 0.759761 0.591226 0.373212
Br9   Br    Br    0.146567 0.950589 0.965259 -0.254517
Br10  Br    Br    0.864330 0.071233 0.045233 -0.240661
Br11  Br    Br    0.856894 0.932950 0.019216 -0.246177
Br12  Br    Br    0.133721 0.088897 0.969889 -0.297847
Br13  Br    Br    0.646638 0.450765 0.965322 -0.254732
Br14  Br    Br    0.364039 0.570591 0.044899 -0.241232
Br15  Br    Br    0.357267 0.432179 0.019616 -0.245626
Br16  Br    Br    0.633635 0.589059 0.969788 -0.297704
S25   S     S_3+6 0.172306 0.998044 0.859024 0.166984
O121  O     O_2   0.189498 0.918429 0.873256 -0.169202
O122  O     O_2   0.187644 0.027911 0.812378 -0.198111
O123  O     O_3   0.238504 0.031978 0.971484 -0.449237
H25   H     H_    0.284929 0.023494 0.996129 0.392105
S26   S     S_3+6 0.830880 0.026065 0.144061 0.175105
O124  O     O_2   0.826710 0.106784 0.148522 -0.174565
O125  O     O_2   0.768515 0.008419 0.038663 -0.171779
O126  O     O_3   0.806748 0.990402 0.187084 -0.449270
H26   H     H_    0.754863 0.004809 0.140671 0.374960
S27   S     S_3+6 0.886241 0.886274 0.187492 0.128534
O127  O     O_2   0.912739 0.828283 0.172199 -0.163981
O128  O     O_2   0.908176 0.868104 0.273560 -0.271708
O129  O     O_3   0.794601 0.876169 0.091919 -0.406552
H27   H     H_    0.784990 0.827790 0.100358 0.385606
S28   S     S_3+6 0.097035 0.129085 0.792830 0.132041
O130  O     O_2   0.067486 0.142989 0.700493 -0.260169
O131  O     O_2   0.065658 0.183561 0.804231 -0.179720
O132  O     O_3   0.186192 0.152417 0.879143 -0.399691
H28   H     H_    0.198536 0.175142 0.931380 0.395485
S29   S     S_3+6 0.672309 0.498233 0.859014 0.166952
O133  O     O_2   0.689584 0.418635 0.873334 -0.169171
O134  O     O_2   0.687605 0.528110 0.812322 -0.198231
O135  O     O_3   0.738476 0.532242 0.971436 -0.449195
H29   H     H_    0.784906 0.523816 0.996079 0.392096
S30   S     S_3+6 0.330775 0.525339 0.143929 0.175309
O136  O     O_2   0.326255 0.606050 0.147980 -0.174430
O137  O     O_2   0.268495 0.507378 0.038621 -0.171794
O138  O     O_3   0.306804 0.489632 0.187138 -0.448976
H30   H     H_    0.254855 0.503804 0.140646 0.375064
S31   S     S_3+6 0.386742 0.385785 0.188054 0.128207
O139  O     O_2   0.413471 0.327905 0.172991 -0.164623
O140  O     O_2   0.408808 0.367743 0.274248 -0.272129
O141  O     O_3   0.295149 0.375270 0.092583 -0.406505
H31   H     H_    0.285810 0.326655 0.100995 0.385555
S32   S     S_3+6 0.596901 0.629195 0.792679 0.131946
O142  O     O_2   0.567309 0.643069 0.700309 -0.260365
O143  O     O_2   0.565489 0.683639 0.804057 -0.179748
O144  O     O_3   0.686032 0.652618 0.878939 -0.399792
H32   H     H_    0.698369 0.675364 0.931162 0.395569

loop_
_geom_bond_atom_site_label_1
_geom_bond_atom_site_label_2
_geom_bond_distance
_ccdc_geom_bond_type
O37   C59   1.312281 A    
C9    S1    1.936041 S    
O26   Cu6   2.013917 S    
O31   C55   1.290835 A    
C14   C22   1.649180 S    
S4    O60   1.690605 S    
O42   C62   1.312847 A    
O40   Cu11  1.945692 S    
S15   O92   1.506481 D    
C25   C37   1.609521 S    
O129  H27   0.990807 S    
S12   O84   1.669701 S    
C10   S2    1.930587 S    
S28   O130  1.500080 D    
S7    O68   1.485815 D    
O44   Cu12  1.942233 S    
C35   C39   1.663621 S    
S3    O55   1.496845 D    
S24   O120  1.677500 S    
C16   S8    1.938354 S    
O111  H21   0.991050 S    
C10   C18   1.649153 S    
S26   O124  1.485585 D    
S32   O144  1.689616 S    
O45   Cu10  1.947304 S    
O123  H25   0.990796 S    
C18   S18   1.867881 S    
O33   C57   1.312261 A    
O32   Cu7   2.019748 S    
C18   Br2   2.005082 S    
S22   O113  1.508776 D    
O84   H12   0.991220 S    
O30   C54   1.293510 A    
O44   C64   1.312898 A    
O93   H15   0.991248 S    
C24   S24   1.890246 S    
C25   Br12  1.963137 S    
O16   Cu4   2.014524 S    
C15   S7    1.939271 S    
S11   O79   1.487235 D    
O102  H18   0.991044 S    
S10   O77   1.506950 D    
C37   S25   1.906320 S    
O9    C5    1.287236 A    
O2    Cu2   1.943009 S    
O10   Cu2   2.019197 S    
S5    O63   1.692522 S    
S2    O53   1.501968 D    
S8    O70   1.485107 D    
S25   O122  1.505964 D    
C33   C53   1.517686 S    
S6    O64   1.492350 D    
O8    Cu4   1.946241 S    
C16   C24   1.646994 S    
O21   Cu7   1.941162 S    
C11   C30   1.704736 S    
C49   C65   1.418411 S    
O57   H3    0.993315 S    
C58   C70   1.418308 S    
C51   C67   1.418393 S    
O36   C58   1.313463 A    
S28   O132  1.689615 S    
O87   H13   0.991771 S    
C22   Br6   2.005022 S    
S2    O54   1.691968 S    
O31   Cu8   2.019748 S    
C39   S29   1.906306 S    
O27   C55   1.292094 A    
O17   Cu5   1.941162 S    
O34   C58   1.311332 A    
C19   Br3   1.979270 S    
Cu1   Cu2   2.649715 S    
C17   S17   1.872234 S    
C24   C35   1.713777 S    
O41   Cu9   1.942235 S    
S19   O105  1.677824 S    
S27   O128  1.501877 D    
C11   S3    1.939352 S    
C27   C39   1.609524 S    
C23   S23   1.885952 S    
C28   C32   1.674890 S    
C38   S27   1.862555 S    
S13   O85   1.507257 D    
S1    O50   1.492226 D    
O39   C59   1.312589 A    
O81   H11   0.991256 S    
O23   C51   1.285299 A    
O12   C5    1.295492 A    
O48   Cu11  1.947304 S    
O17   C49   1.280442 A    
C24   Br8   1.974771 S    
C5    C29   1.511850 S    
S10   O76   1.500122 D    
Cu11  Cu12  2.750500 S    
C9    C29   1.726729 S    
O114  H22   0.991043 S    
O13   C7    1.287212 A    
C1    C41   1.420657 S    
C44   C48   1.196472 T    
S4    O59   1.497508 D    
C34   C54   1.521528 S    
C3    C43   1.420668 S    
C4    C44   1.420082 S    
C13   S5    1.936085 S    
O11   Cu1   2.014524 S    
C19   C34   1.706924 S    
S20   O106  1.494090 D    
S12   O83   1.506402 D    
S21   O109  1.508911 D    
C16   S16   1.902635 S    
C14   S14   1.903387 S    
O20   C50   1.284411 A    
O5    Cu3   1.943009 S    
S8    O72   1.690603 S    
O6    Cu4   1.943009 S    
S24   O119  1.507476 D    
C15   C23   1.651153 S    
C17   C33   1.693932 S    
C27   Br13  1.932028 S    
S32   O143  1.480002 D    
O126  H26   0.990678 S    
C26   C38   1.609105 S    
S9    O74   1.499985 D    
O21   C51   1.280465 A    
O7    C4    1.285272 A    
C42   C46   1.196462 T    
O13   Cu3   2.019197 S    
O22   Cu8   1.941160 S    
O14   Cu4   2.019197 S    
S11   O81   1.665208 S    
S23   O117  1.677853 S    
C52   C68   1.418204 S    
C28   Br15  1.963446 S    
C26   Br11  1.963489 S    
O48   C64   1.311698 A    
C21   S21   1.872236 S    
C67   C69   1.195746 T    
S17   O97   1.508912 D    
O30   Cu5   2.019748 S    
C41   C45   1.196597 T    
C65   C71   1.195749 T    
C25   Br9   1.932030 S    
O16   C7    1.295518 A    
C66   C72   1.195670 T    
O60   H4    0.990978 S    
S13   O87   1.675060 S    
C20   Br4   1.974749 S    
S29   O133  1.485915 D    
C10   S10   1.903455 S    
O45   C61   1.311461 A    
O47   C63   1.311450 A    
O19   C49   1.285341 A    
O34   Cu10  1.940836 S    
S22   O112  1.497432 D    
C22   S22   1.867980 S    
O24   C52   1.284395 A    
O51   H1    0.990804 S    
S14   O89   1.506955 D    
S20   O108  1.677499 S    
S21   O111  1.678130 S    
O10   C6    1.293756 A    
S28   O131  1.480001 D    
C48   C64   1.419520 S    
S26   O125  1.505823 D    
S31   O141  1.687174 S    
C12   C29   1.694887 S    
C60   C72   1.418303 S    
S18   O100  1.497420 D    
C45   C61   1.419728 S    
O28   C56   1.291022 A    
O4    C1    1.285116 A    
C47   C63   1.419736 S    
S22   O114  1.676586 S    
C8    C32   1.510166 S    
S3    O57   1.689694 S    
C38   S26   1.907613 S    
S26   O126  1.687899 S    
O108  H20   0.990982 S    
S15   O91   1.487242 D    
O99   H17   0.991050 S    
O66   H6    0.990838 S    
O41   C61   1.313223 A    
S23   O115  1.506237 D    
O78   H10   0.991658 S    
O18   Cu6   1.941160 S    
O5    C3    1.280638 A    
S17   O99   1.678120 S    
O6    C4    1.279582 A    
S30   O136  1.485580 D    
S29   O135  1.687043 S    
O7    Cu3   1.946241 S    
O36   Cu9   1.945692 S    
O138  H30   0.990673 S    
C21   C35   1.693921 S    
C35   C55   1.517641 S    
S6    O66   1.691982 S    
C22   C36   1.699106 S    
O46   Cu9   1.947304 S    
O11   C6    1.291835 A    
Cu7   Cu8   2.651710 S    
S16   O94   1.490878 D    
S27   O127  1.478088 D    
S5    O62   1.492236 D    
C6    C30   1.510022 S    
O25   C53   1.292094 A    
S8    O71   1.497520 D    
C10   C30   1.719425 S    
C13   S13   1.902764 S    
O22   C52   1.280935 A    
S25   O121  1.485916 D    
S6    O65   1.501946 D    
C2    C42   1.420037 S    
O38   Cu12  1.940836 S    
O39   Cu12  1.945689 S    
C17   Br1   2.004585 S    
O23   Cu8   1.944383 S    
O12   Cu2   2.014524 S    
S15   O93   1.665037 S    
O43   Cu11  1.942235 S    
O144  H32   0.990734 S    
O3    Cu1   1.946241 S    
S7    O69   1.689720 S    
O1    C1    1.280628 A    
S30   O138  1.687905 S    
O29   C53   1.290854 A    
C27   C31   1.675773 S    
C40   S31   1.862450 S    
C36   C40   1.664929 S    
S31   O139  1.478073 D    
O117  H23   0.990566 S    
C21   Br5   2.004587 S    
O96   H16   0.991218 S    
C18   C34   1.699303 S    
C28   Br14  1.932205 S    
S19   O104  1.490135 D    
Cu9   Cu10  2.750500 S    
O35   Cu10  1.945689 S    
O20   Cu5   1.944381 S    
S1    O49   1.501683 D    
O14   C8    1.293718 A    
O105  H19   0.990951 S    
C50   C66   1.418210 S    
O40   C60   1.313478 A    
O135  H29   0.990800 S    
C33   C37   1.663664 S    
O47   Cu12  1.947304 S    
C23   Br7   1.979298 S    
C68   C70   1.195670 T    
O4    Cu2   1.946241 S    
S32   O142  1.500076 D    
C12   S4    1.938392 S    
C13   C31   1.726760 S    
C14   C32   1.719556 S    
O26   C54   1.291072 A    
C13   C21   1.651171 S    
O15   C8    1.291923 A    
O42   Cu10  1.942233 S    
S16   O96   1.669701 S    
S20   O107  1.507466 D    
S10   O78   1.677311 S    
S2    O52   1.492353 D    
S25   O123  1.687041 S    
C9    C17   1.651175 S    
C15   C32   1.704575 S    
C27   Br16  1.963150 S    
O72   H8    0.990823 S    
Cu5   Cu6   2.651710 S    
O18   C50   1.280921 A    
O90   H14   0.991658 S    
S7    O67   1.497161 D    
C20   S20   1.890207 S    
O19   Cu6   1.944383 S    
S9    O73   1.507251 D    
O37   Cu11  1.940835 S    
O43   C63   1.313239 A    
O63   H5    0.990765 S    
S11   O80   1.506485 D    
O24   Cu7   1.944381 S    
C37   S28   1.863467 S    
S23   O116  1.490156 D    
O28   Cu8   2.013917 S    
S27   O129  1.687182 S    
C40   S30   1.907504 S    
O32   C56   1.293498 A    
S13   O86   1.499992 D    
S1    O51   1.692541 S    
O33   Cu9   1.940835 S    
O38   C60   1.311316 A    
S14   O88   1.500143 D    
C25   C29   1.675729 S    
O15   Cu3   2.014524 S    
O1    Cu1   1.943009 S    
O9    Cu1   2.019197 S    
C28   C40   1.609150 S    
O35   C57   1.312609 A    
C43   C47   1.196602 T    
C12   S12   1.902658 S    
S4    O58   1.485103 D    
C59   C71   1.418440 S    
C57   C69   1.418438 S    
S12   O82   1.490904 D    
S21   O110  1.497836 D    
C19   S19   1.885717 S    
O25   Cu5   2.013917 S    
O29   Cu6   2.019748 S    
C7    C31   1.511889 S    
O27   Cu7   2.013917 S    
S24   O118  1.494109 D    
S14   O90   1.677286 S    
S31   O140  1.501861 D    
O46   C62   1.311745 A    
C16   C31   1.694846 S    
C14   S6    1.930681 S    
O75   H9    0.991763 S    
S18   O101  1.508783 D    
O132  H28   0.990748 S    
O69   H7    0.990970 S    
O120  H24   0.990994 S    
O2    C2    1.279607 A    
S19   O103  1.506204 D    
C39   S32   1.863462 S    
C34   C38   1.665066 S    
S9    O75   1.675064 S    
S3    O56   1.485984 D    
O141  H31   0.991051 S    
C11   S11   1.904786 S    
C9    S9    1.902780 S    
C26   Br10  1.932120 S    
S18   O102  1.676560 S    
C26   C30   1.675000 S    
S17   O98   1.497838 D    
O3    C2    1.285196 A    
O54   H2    0.990380 S    
S30   O137  1.505822 D    
C15   S15   1.904722 S    
O8    C3    1.285131 A    
S29   O134  1.505967 D    
C11   C19   1.651040 S    
C12   C20   1.647013 S    
C23   C36   1.707047 S    
C36   C56   1.521390 S    
S16   O95   1.506405 D    
C20   C33   1.713740 S    
C46   C62   1.419511 S    
Cu3   Cu4   2.649715 S    
S5    O61   1.501659 D    
