data_mof_unit_67144.cif
_audit_creation_date              2012-12-11T17:48:29-0500
_audit_creation_method            fapswitch 2.2
_symmetry_space_group_name_H-M    P1
_symmetry_Int_Tables_number       1
_space_group_crystal_system       triclinic
_cell_length_a                    8.410067
_cell_length_b                    12.782837
_cell_length_c                    15.114329
_cell_angle_alpha                 97.308985
_cell_angle_beta                  98.200555
_cell_angle_gamma                 97.881802
_cell_volume                      1575.09725477

loop_
_atom_site_label
_atom_site_type_symbol
_atom_type_description
_atom_site_fract_x
_atom_site_fract_y
_atom_site_fract_z
_atom_type_partial_charge
Ba1   Ba    Ba6+2 0.843750 0.550210 0.455600 1.813121
Ba2   Ba    Ba6+2 0.346090 0.449880 0.544410 1.850886
C1    C     C_3   0.599616 0.905746 0.137294 -0.298550
C2    C     C_R   0.902647 0.428567 0.923654 -0.065855
C3    C     C_R   0.038975 0.463987 0.113351 -0.111240
C4    C     C_3   0.067411 0.769675 0.212998 0.427756
C5    C     C_R   0.892737 0.397368 0.080302 -0.002917
C6    C     C_R   0.827547 0.375147 0.988780 0.014303
C7    C     C_R   0.101676 0.481055 0.208151 0.024874
C8    C     C_R   0.252895 0.547350 0.236623 0.076763
C9    C     C_R   0.084602 0.526463 0.796903 -0.009302
C10   C     C_R   0.148043 0.541998 0.891906 -0.097880
C11   C     C_R   0.058036 0.494095 0.954794 0.024455
C12   C     C_3   0.580191 0.827968 0.204788 0.268736
C13   C     C_R   0.301939 0.602610 0.926138 -0.032503
C14   C     C_R   0.369423 0.613828 0.017416 -0.063294
C15   C     C_R   0.283642 0.569605 0.080666 -0.077597
C16   C     C_3   0.035248 0.794908 0.117251 0.240655
C17   C     C_R   0.125905 0.510566 0.049827 0.010890
C18   C     C_R   0.350887 0.583421 0.174020 -0.050458
C19   C     C_R   0.933625 0.458208 0.768442 0.157362
C20   C     C_R   0.757938 0.176050 0.530863 -0.210179
C21   C     C_R   0.414401 0.812322 0.477002 -0.306953
C22   C     C_R   0.399464 0.974727 0.415817 0.293211
C23   C     C_3   0.364423 0.271723 0.259307 0.287529
C24   C     C_R   0.322278 0.877081 0.431247 0.009045
C25   C     C_R   0.577946 0.847095 0.513948 0.046101
C26   C     C_R   0.643527 0.957184 0.517578 -0.084135
C27   C     C_R   0.549127 0.023234 0.469417 -0.082098
C28   C     C_3   0.266117 0.780228 0.654500 0.270343
C29   C     C_R   0.607898 0.134674 0.477365 0.009888
C30   C     C_R   0.860294 0.111556 0.569980 0.013844
C31   C     C_R   0.800010 0.002909 0.565945 -0.086879
C32   C     C_3   0.232129 0.894351 0.665592 -0.353289
C33   C     C_3   0.927485 0.192080 0.299675 0.529323
C34   C     C_3   0.273884 0.210670 0.167997 -0.256158
C35   C     C_3   0.979000 0.084606 0.273018 -0.242043
C36   C     C_3   0.822049 0.745378 0.740035 0.679454
C37   C     C_3   0.906439 0.829780 0.820917 0.296160
C38   C     C_3   0.747418 0.177624 0.279489 -0.277138
C39   C     C_3   0.022858 0.786238 0.887813 -0.358293
C40   C     C_3   0.483947 0.360252 0.237370 -0.300749
C41   C     C_3   0.213722 0.233870 0.921720 -0.383056
C42   C     C_3   0.691878 0.282133 0.966324 -0.350202
C43   C     C_3   0.034228 0.140461 0.777291 0.281235
C44   C     C_3   0.107593 0.130051 0.873628 -0.159453
C45   C     C_3   0.578474 0.162450 0.727583 0.307648
C46   C     C_3   0.593531 0.059861 0.766379 -0.345386
C47   C     C_R   0.835114 0.416482 0.829332 -0.000120
Cl1   Cl    Cl    0.999435 0.229184 0.415552 -0.698753
Cl2   Cl    Cl    0.709475 0.637887 0.778894 -0.671473
Cl3   Cl    Cl    0.761411 0.884622 0.881597 -0.692868
Cl4   Cl    Cl    0.324086 0.581245 0.352167 -0.710549
Cl5   Cl    Cl    0.866445 0.423744 0.652733 -0.673295
Cl6   Cl    Cl    0.362133 0.992417 0.303455 -0.732901
Cl7   Cl    Cl    0.153167 0.917700 0.106484 -0.711772
H1    H     H_    0.630278 0.869810 0.274259 0.079806
H2    H     H_    0.976358 0.895665 0.794465 -0.000260
H3    H     H_    0.448017 0.800480 0.199842 0.052490
H4    H     H_    0.540869 0.976250 0.155369 0.167929
H5    H     H_    0.280049 0.305292 0.300464 0.093509
H6    H     H_    0.198423 0.136809 0.175922 0.206206
H7    H     H_    0.195834 0.260717 0.132247 0.055307
H8    H     H_    0.362330 0.185551 0.124746 0.115777
H9    H     H_    0.541694 0.866023 0.068357 0.158338
H10   H     H_    0.069018 0.730008 0.071299 -0.026888
H11   H     H_    0.938870 0.070148 0.751295 -0.023127
H12   H     H_    0.272292 0.933082 0.736406 0.138378
H13   H     H_    0.979398 0.215065 0.778438 -0.029318
H14   H     H_    0.008501 0.108876 0.912709 0.122598
H15   H     H_    0.181876 0.064452 0.871539 0.135408
H16   H     H_    0.698398 0.191861 0.709416 -0.081699
H17   H     H_    0.485450 0.145128 0.665465 0.084499
H18   H     H_    0.708208 0.070771 0.814785 0.138445
H19   H     H_    0.593917 0.993228 0.711701 0.096431
H20   H     H_    0.983998 0.695185 0.215755 0.005285
H21   H     H_    0.492785 0.040179 0.804250 0.164694
H22   H     H_    0.828391 0.356717 0.125757 0.099412
H23   H     H_    0.294379 0.940809 0.619752 0.068072
H24   H     H_    0.489440 0.659893 0.037778 0.112321
H25   H     H_    0.373967 0.641801 0.882643 0.148500
H26   H     H_    0.875981 0.955591 0.601196 0.071658
H27   H     H_    0.802525 0.259073 0.534081 0.159455
H28   H     H_    0.195174 0.755998 0.227364 -0.034742
H29   H     H_    0.357412 0.734643 0.485757 0.113544
H30   H     H_    0.904668 0.799260 0.096993 0.112375
H31   H     H_    0.396223 0.780532 0.650467 0.050053
H32   H     H_    0.188564 0.737880 0.591083 0.041367
H33   H     H_    0.703439 0.162383 0.205356 0.083069
H34   H     H_    0.099957 0.894113 0.649854 0.100308
H35   H     H_    0.692363 0.110637 0.310850 0.106213
H36   H     H_    0.717970 0.254171 0.308540 0.118797
H37   H     H_    0.103925 0.853778 0.931905 0.196376
H38   H     H_    0.954380 0.734792 0.927850 0.166753
H39   H     H_    0.100473 0.738570 0.853876 0.076557
H40   H     H_    0.537665 0.417572 0.298916 0.177997
H41   H     H_    0.577582 0.326554 0.203319 0.110313
H42   H     H_    0.421156 0.401362 0.186700 0.031777
H43   H     H_    0.136623 0.289067 0.949705 0.105390
H44   H     H_    0.301211 0.216805 0.977938 0.118389
H45   H     H_    0.952099 0.060578 0.198650 0.126513
H46   H     H_    0.283455 0.273664 0.875010 0.192230
H47   H     H_    0.574787 0.310654 0.948948 0.148426
H48   H     H_    0.724107 0.223458 0.914593 0.126641
H49   H     H_    0.675873 0.237229 0.023637 0.089587
H50   H     H_    0.914560 0.021968 0.305607 0.120674
H51   H     H_    0.109893 0.090081 0.297553 0.206183
H52   H     H_    0.914206 0.715613 0.701980 -0.082587
H53   H     H_    0.730153 0.932882 0.136659 0.130258
O1    O     O_2   0.827880 0.435260 0.277750 -0.500480
O2    O     O_2   0.188602 0.117941 0.556191 -0.453725
O3    O     O_3   0.156420 0.140684 0.723129 -0.591855
O4    O     O_3   0.100280 0.438960 0.391170 -0.353610
O5    O     O_3   0.587780 0.631850 0.546230 -0.400558
O6    O     O_2   0.332590 0.233690 0.456160 -0.392866
O7    O     O_3   0.446793 0.200188 0.303286 -0.589429
O8    O     O_2   0.497695 0.435773 0.824788 -0.446896
O9    O     O_3   0.528250 0.235011 0.791860 -0.606060
O10   O     O_3   0.625580 0.634130 0.333250 -0.405549
O11   O     O_2   0.669220 0.542635 0.174248 -0.488759
O12   O     O_3   0.711869 0.794186 0.687878 -0.641515
O13   O     O_3   0.989303 0.266781 0.248179 -0.677979
O14   O     O_3   0.667488 0.744614 0.184061 -0.613133
O15   O     O_2   0.857130 0.766340 0.543890 -0.500607
O16   O     O_3   0.056550 0.691050 0.379010 -0.454578
O17   O     O_2   0.991388 0.880190 0.442056 -0.480886
O18   O     O_3   0.039005 0.854025 0.274944 -0.553258
O19   O     O_2   0.361830 0.564780 0.722310 -0.395657
O20   O     O_3   0.089430 0.561130 0.608830 -0.418784
O21   O     O_3   0.564130 0.365960 0.666760 -0.380473
O22   O     O_3   0.233328 0.736056 0.731072 -0.647061
O23   O     O_3   0.601940 0.368240 0.453770 -0.441705
O24   O     O_3   0.133170 0.309040 0.621000 -0.379700
P1    P     P_3+3 0.998730 0.403530 0.291970 1.061491
P2    P     P_3+3 0.687380 0.751030 0.571310 1.038950
P3    P     P_3+3 0.104711 0.828012 0.384016 1.041193
P4    P     P_3+3 0.190990 0.596560 0.708040 1.068459
P5    P     P_3+3 0.078728 0.169663 0.617140 1.050717
P6    P     P_3+3 0.575022 0.627153 0.215681 0.984130
P7    P     P_3+3 0.499548 0.233844 0.421664 1.024432
P8    P     P_3+3 0.611009 0.365316 0.782059 1.063818

loop_
_geom_bond_atom_site_label_1
_geom_bond_atom_site_label_2
_ccdc_geom_bond_type
C2    C6    A    
Ba1   O23   S    
C15   C18   A    
C19   C47   A    
C42   H48   S    
C43   O3    S    
C5    C6    A    
C37   C39   S    
C39   H39   S    
C42   H49   S    
C22   Cl6   S    
C30   P5    S    
C12   H3    S    
C16   H30   S    
C20   C30   A    
C41   H44   S    
C40   H40   S    
C18   P6    S    
C26   C27   A    
C33   C35   S    
Ba1   O16   S    
C4    O18   S    
C35   H51   S    
Ba1   O20   S    
C40   H42   S    
C19   Cl5   S    
C32   H23   S    
Ba2   O4    S    
C13   C14   A    
O14   P6    S    
Ba2   O20   S    
Ba1   Ba2   S    
Ba1   O10   S    
C21   C24   A    
C2    C11   A    
O21   P8    S    
C8    Cl4   S    
C22   C27   A    
O13   P1    S    
C15   C17   A    
C45   O9    S    
C39   H37   S    
C45   C46   S    
C8    C18   A    
C14   C15   A    
C47   P8    S    
C43   H11   S    
Ba2   O23   S    
O5    P2    S    
C29   P7    S    
C21   C25   A    
C38   H33   S    
C34   H7    S    
C31   H26   S    
C16   Cl7   S    
C1    H4    S    
O9    P8    S    
C37   Cl3   S    
O17   P3    D    
O24   P5    S    
C46   H19   S    
C1    H9    S    
Ba1   O4    S    
C34   H6    S    
C42   H47   S    
C4    C16   S    
Ba2   O24   S    
C4    H28   S    
C20   C29   A    
C28   C32   S    
C43   H13   S    
C46   H18   S    
C24   P3    S    
O18   P3    S    
C45   H17   S    
C13   H25   S    
C40   H41   S    
C32   H12   S    
C3    C5    A    
C11   C17   A    
C36   Cl2   S    
C43   C44   S    
C37   H2    S    
C9    C19   A    
O12   P2    S    
C14   H24   S    
C46   H21   S    
O8    P8    D    
O19   P4    D    
C32   H34   S    
C3    C7    A    
O22   P4    S    
O3    P5    S    
Ba1   O1    S    
Ba2   O6    S    
C39   H38   S    
C10   C13   A    
C33   Cl1   S    
O11   P6    D    
C23   H5    S    
C38   H36   S    
C44   H15   S    
C1    C12   S    
C5    H22   S    
O16   P3    S    
C26   C31   A    
O4    P1    S    
C23   O7    S    
O23   P7    S    
Ba1   O5    S    
C28   H32   S    
Ba1   P1    S    
C44   H14   S    
C7    C8    A    
C12   H1    S    
C12   O14   S    
O15   P2    D    
Ba2   P4    S    
C33   O13   S    
C6    C42   S    
C41   H43   S    
C23   C40   S    
C9    C10   A    
C4    H20   S    
C3    C17   A    
C16   H10   S    
C2    C47   A    
O10   P6    S    
C30   C31   A    
C33   C38   S    
C9    P4    S    
C41   H46   S    
C25   P2    S    
C35   H50   S    
C27   C29   A    
Ba1   P2    S    
C7    P1    S    
C20   H27   S    
C35   H45   S    
Ba2   O5    S    
C22   C24   A    
C36   C37   S    
C1    H53   S    
Ba2   O21   S    
C38   H35   S    
C36   H52   S    
C41   C44   S    
C45   H16   S    
Ba1   O15   S    
C36   O12   S    
O1    P1    D    
C23   C34   S    
O20   P4    S    
O6    P7    D    
C21   H29   S    
C25   C26   A    
C10   C11   A    
C28   H31   S    
C34   H8    S    
C28   O22   S    
O2    P5    D    
O7    P7    S    
Ba2   O19   S    
