data_mof_unit_13460.cif
_audit_creation_date              2012-12-10T17:42:37-0500
_audit_creation_method            fapswitch 2.2
_symmetry_space_group_name_H-M    P1
_symmetry_Int_Tables_number       1
_space_group_crystal_system       triclinic
_cell_length_a                    9.950146
_cell_length_b                    10.745663
_cell_length_c                    13.231962
_cell_angle_alpha                 92.379787
_cell_angle_beta                  68.923671
_cell_angle_gamma                 88.150169
_cell_volume                      1317.29732866

loop_
_atom_site_label
_atom_site_type_symbol
_atom_type_description
_atom_site_fract_x
_atom_site_fract_y
_atom_site_fract_z
_atom_type_partial_charge
C1    C     C_R   0.500732 0.739666 0.491605 0.928392
C2    C     C_R   0.423178 0.497160 0.986318 -0.024771
C3    C     C_R   0.458687 0.455671 0.876120 0.030093
C4    C     C_R   0.537321 0.489664 0.028670 0.081251
C5    C     C_R   0.677096 0.439294 0.962163 0.185202
C6    C     C_R   0.699588 0.383598 0.860729 -0.247754
C7    C     C_R   0.589448 0.386171 0.820734 -0.173880
C8    C     C_R   0.519258 0.528567 0.134710 -0.266194
C9    C     C_R   0.767362 0.478479 0.106898 -0.182851
C10   C     C_R   0.364526 0.487012 0.821815 -0.108984
C11   C     C_R   0.229579 0.900743 0.523178 -0.154945
C12   C     C_R   0.419346 0.493704 0.703740 0.833164
C13   C     C_R   0.101487 0.971161 0.577578 -0.105079
C14   C     C_R   0.104680 0.084418 0.630718 -0.120423
C15   C     C_R   0.236871 0.133504 0.618550 -0.092676
C16   C     C_R   0.367376 0.069375 0.551568 0.105761
C17   C     C_R   0.364765 0.944989 0.517718 0.026676
C18   C     C_R   0.498173 0.872934 0.477065 -0.281783
C19   C     C_R   0.629889 0.932922 0.437606 0.433826
C20   C     C_R   0.628255 0.060467 0.454806 -0.298024
C21   C     C_R   0.499114 0.128037 0.511749 -0.211901
C22   C     C_R   0.788165 0.667140 0.644019 -0.003067
C23   C     C_R   0.499023 0.260833 0.506184 0.869707
C24   C     C_R   0.821045 0.742350 0.719317 -0.203063
C25   C     C_R   0.959424 0.737930 0.721104 -0.209471
C26   C     C_R   0.066724 0.660653 0.645738 -0.130000
C27   C     C_R   0.036985 0.582791 0.569176 0.021642
C28   C     C_R   0.892689 0.583456 0.569253 0.100910
C29   C     C_R   0.960419 0.413301 0.439755 0.403234
C30   C     C_R   0.102565 0.409392 0.443324 0.408127
C31   C     C_R   0.580233 0.505318 0.295754 0.868504
C32   C     C_R   0.792427 0.441437 0.999520 -0.218647
C33   C     C_R   0.627068 0.508815 0.177289 -0.063827
C34   C     C_R   0.222834 0.529353 0.880846 -0.290630
C35   C     C_R   0.178808 0.553549 0.991450 -0.255735
C36   C     C_R   0.277578 0.546000 0.044733 0.459478
H1    H     H_    0.855776 0.478267 0.134862 0.156245
H2    H     H_    0.219929 0.816157 0.480628 0.185352
H3    H     H_    0.999480 0.936846 0.579780 0.187863
H4    H     H_    0.005187 0.136662 0.677375 0.127262
H5    H     H_    0.236131 0.223348 0.658963 0.138096
H6    H     H_    0.727885 0.107817 0.420982 0.247290
H7    H     H_    0.679392 0.676499 0.648307 0.181610
H8    H     H_    0.738325 0.804334 0.776834 0.141996
H9    H     H_    0.984563 0.796359 0.779927 0.152572
H10   H     H_    0.171777 0.662431 0.650027 0.204746
H11   H     H_    0.802441 0.337114 0.812315 0.140407
H12   H     H_    0.900498 0.409504 0.947061 0.140055
H13   H     H_    0.420471 0.568624 0.189733 0.234255
H14   H     H_    0.147104 0.548908 0.841035 0.181502
H15   H     H_    0.068166 0.585892 0.035528 0.160010
H16   H     H_    0.609307 0.335381 0.743987 0.172713
N1    N     N_R   0.856860 0.501200 0.500990 -0.172331
N2    N     N_R   0.142450 0.501280 0.501020 -0.187365
O1    O     O_R   0.385310 0.683220 0.500000 -0.663082
O2    O     O_R   0.614640 0.683250 0.500010 -0.557643
O3    O     O_R   0.328400 0.499950 0.653610 -0.639842
O4    O     O_R   0.557730 0.499970 0.653620 -0.643448
O5    O     O_R   0.385360 0.316750 0.499990 -0.581256
O6    O     O_R   0.614690 0.316780 0.500000 -0.578180
O7    O     O_R   0.442270 0.500030 0.346380 -0.651158
O8    O     O_R   0.671600 0.500050 0.346390 -0.569003
Zn1   Zn    Zn3+2 0.346880 0.499980 0.499990 0.928333
Zn2   Zn    Zn3+2 0.653120 0.500020 0.500010 1.008783
O9    O     O_3   0.921596 0.318652 0.383922 -0.568427
C37   C     C_3   0.959517 0.349765 0.274958 0.141404
H17   H     H_    0.077107 0.344106 0.231747 0.141597
H18   H     H_    0.922788 0.446540 0.268860 0.172219
C38   C     C_3   0.896814 0.257145 0.216265 -0.847645
H19   H     H_    0.777163 0.263485 0.251794 0.254964
H20   H     H_    0.934179 0.273836 0.128509 0.203331
H21   H     H_    0.936411 0.162299 0.223443 0.287697
O10   O     O_3   0.181650 0.296189 0.416503 -0.563339
C39   C     C_3   0.283958 0.288768 0.309360 0.194027
H22   H     H_    0.393777 0.288424 0.312033 0.179389
H23   H     H_    0.274956 0.367146 0.259439 0.124747
C40   C     C_3   0.275701 0.163593 0.253841 -0.862127
H24   H     H_    0.348560 0.160336 0.167424 0.205318
H25   H     H_    0.309646 0.086810 0.294592 0.261886
H26   H     H_    0.164242 0.148333 0.258236 0.291712
O11   O     O_3   0.225387 0.578206 0.154668 -0.689804
C41   C     C_3   0.189885 0.708047 0.172365 0.071176
H27   H     H_    0.079576 0.727390 0.172285 0.221932
H28   H     H_    0.267570 0.763702 0.110060 0.131576
C42   C     C_3   0.191868 0.752049 0.282544 -0.705764
H29   H     H_    0.303660 0.747702 0.281981 0.206445
H30   H     H_    0.149386 0.850389 0.302075 0.268218
H31   H     H_    0.124611 0.692586 0.346152 0.266069
S1    S     S_3+6 0.797556 0.854570 0.359774 -0.023148
O12   O     O_2   0.869705 0.813078 0.435481 -0.313970
O13   O     O_2   0.776407 0.742912 0.295875 -0.348626
O14   O     O_3   0.906241 0.949778 0.273044 -0.607131
H32   H     H_    0.874397 0.948283 0.210170 0.348231

loop_
_geom_bond_atom_site_label_1
_geom_bond_atom_site_label_2
_ccdc_geom_bond_type
C37   H18   S    
C16   C21   A    
C38   H21   S    
O10   C39   S    
C31   O7    A    
C35   C36   A    
C4    C8    A    
O11   C41   S    
C27   N2    A    
C40   H24   S    
C23   O5    A    
C30   N2    A    
C26   C27   A    
C39   H23   S    
C1    O2    A    
C7    H16   S    
C34   C35   A    
C3    C7    A    
C5    C6    A    
N1    Zn2   S    
C40   H26   S    
C37   C38   S    
N2    Zn1   S    
C15   C16   A    
C38   H20   S    
C18   C19   A    
O7    Zn1   S    
O8    Zn2   S    
C9    C32   A    
C19   C20   A    
C16   C17   A    
C39   C40   S    
O1    Zn1   S    
O2    Zn2   S    
S1    O13   D    
C5    C32   A    
C12   O4    A    
C40   H25   S    
C37   H17   S    
C22   C28   A    
C13   C14   A    
C9    C33   A    
C32   H12   S    
C31   O8    A    
O3    Zn1   S    
C42   H30   S    
O4    Zn2   S    
C23   O6    A    
C34   H14   S    
C39   H22   S    
C24   C25   A    
C15   H5    S    
C6    H11   S    
C30   O10   S    
C25   C26   A    
C42   H29   S    
C11   H2    S    
C2    C4    A    
C29   C30   A    
C19   S1    S    
C22   H7    S    
C36   O11   S    
C9    H1    S    
C17   C18   A    
C1    C18   S    
C10   C34   A    
S1    O14   S    
C10   C12   S    
C29   O9    S    
C12   O3    A    
C41   H27   S    
C41   H28   S    
C21   C23   S    
C35   H15   S    
C24   H8    S    
C22   C24   A    
C25   H9    S    
C42   H31   S    
C2    C36   A    
C11   C17   A    
C31   C33   S    
C4    C5    A    
C20   H6    S    
C28   N1    A    
C6    C7    A    
C41   C42   S    
O5    Zn1   S    
O6    Zn2   S    
C2    C3    A    
C1    O1    A    
C3    C10   A    
C11   C13   A    
C29   N1    A    
O14   H32   S    
C8    C33   A    
C38   H19   S    
C13   H3    S    
C26   H10   S    
C14   H4    S    
C20   C21   A    
O9    C37   S    
C27   C28   A    
C14   C15   A    
S1    O12   D    
C8    H13   S    
