data_mof_unit_47054.cif
_audit_creation_date              2012-12-10T20:25:42-0500
_audit_creation_method            fapswitch 2.2
_symmetry_space_group_name_H-M    P1
_symmetry_Int_Tables_number       1
_space_group_crystal_system       triclinic
_cell_length_a                    8.551125
_cell_length_b                    10.66988
_cell_length_c                    9.964132
_cell_angle_alpha                 90.010536
_cell_angle_beta                  97.393812
_cell_angle_gamma                 91.947283
_cell_volume                      901.032745531

loop_
_atom_site_label
_atom_site_type_symbol
_atom_type_description
_atom_site_fract_x
_atom_site_fract_y
_atom_site_fract_z
_atom_type_partial_charge
C1    C     C_R   0.506220 0.260550 0.501088 0.884993
C2    C     C_R   0.572084 0.937667 0.393051 -0.170353
C3    C     C_R   0.526672 0.872288 0.504694 -0.111612
C4    C     C_R   0.513244 0.936289 0.624113 0.125356
C5    C     C_3   0.387184 0.926542 0.714954 -0.419594
C6    C     C_3   0.389184 0.068642 0.715564 -0.414999
C7    C     C_R   0.364519 0.475661 0.054093 0.058480
C8    C     C_R   0.626892 0.548507 0.081852 0.461021
C9    C     C_R   0.629161 0.537470 0.940047 -0.137390
C10   C     C_R   0.362897 0.483097 0.913724 0.114271
C11   C     C_3   0.238848 0.382489 0.886091 -0.506132
C12   C     C_R   0.201904 0.494941 0.465497 0.954619
C13   C     C_3   0.242193 0.369773 0.039535 0.308542
C14   C     C_R   0.503619 0.739903 0.500481 0.900815
C15   C     C_R   0.798125 0.500358 0.534968 0.973671
C16   C     C_2   0.037361 0.479255 0.449720 -0.286080
C17   C     C_2   0.963001 0.507833 0.553302 -0.405180
C18   C     C_R   0.514855 0.064124 0.624762 0.107432
C19   C     C_R   0.531947 0.129799 0.506635 -0.090660
C20   C     C_R   0.578536 0.067318 0.395698 -0.149290
H1    H     H_    0.977511 0.441236 0.355122 0.219219
H2    H     H_    0.732641 0.567694 0.895003 0.194244
H3    H     H_    0.126033 0.419260 0.836590 0.173970
H4    H     H_    0.281494 0.301477 0.832877 0.237064
H5    H     H_    0.129496 0.395123 0.075260 0.126768
H6    H     H_    0.022571 0.542267 0.649923 0.178229
H7    H     H_    0.609701 0.117677 0.308642 0.216667
H8    H     H_    0.593320 0.890185 0.301575 0.226394
H9    H     H_    0.274949 0.883122 0.664062 0.202920
H10   H     H_    0.430836 0.886102 0.815075 0.228905
H11   H     H_    0.278052 0.108233 0.665268 0.206053
H12   H     H_    0.435026 0.110166 0.815647 0.239656
N1    N     N_R   0.498950 0.499140 0.142680 -0.142664
N2    N     N_R   0.498950 0.499180 0.857030 -0.123298
O1    O     O_R   0.500020 0.316790 0.614690 -0.630738
O2    O     O_R   0.500000 0.316760 0.385350 -0.554590
O3    O     O_R   0.271760 0.500010 0.587850 -0.625487
O4    O     O_R   0.271740 0.499970 0.358500 -0.598608
O5    O     O_R   0.500000 0.683240 0.614650 -0.623127
O6    O     O_R   0.499980 0.683210 0.385310 -0.567843
O7    O     O_R   0.728260 0.500030 0.641500 -0.638948
O8    O     O_R   0.728240 0.499990 0.412150 -0.550892
Zn1   Zn    Zn3+2 0.500010 0.500020 0.653130 0.962139
Zn2   Zn    Zn3+2 0.499990 0.499980 0.346870 1.077475
S1    S     S_3+6 0.307494 0.218517 0.094401 0.020678
O9    O     O_2   0.268058 0.194165 0.234735 -0.282709
O10   O     O_2   0.222529 0.120342 0.001187 -0.309837
O11   O     O_3   0.502990 0.211922 0.089843 -0.586158
H13   H     H_    0.521109 0.123770 0.066697 0.367755
S2    S     S_3+6 0.786085 0.647733 0.157700 0.011740
O12   O     O_2   0.935230 0.576916 0.161502 -0.362284
O13   O     O_2   0.799202 0.757414 0.064512 -0.312808
O14   O     O_3   0.774035 0.707900 0.310888 -0.549424
H14   H     H_    0.876839 0.752472 0.337582 0.371628

loop_
_geom_bond_atom_site_label_1
_geom_bond_atom_site_label_2
_ccdc_geom_bond_type
O3    Zn1   S    
C7    C10   A    
S2    O13   D    
O4    Zn2   S    
C16   H1    S    
C20   H7    S    
C11   C13   S    
C15   O8    A    
C6    H12   S    
C19   C20   A    
O6    Zn2   S    
C4    C18   A    
C2    C3    A    
C10   N2    A    
S1    O9    D    
C13   S1    S    
O7    Zn1   S    
C15   O7    A    
C9    N2    A    
C3    C14   S    
O8    Zn2   S    
C17   H6    S    
C11   H3    S    
O11   H13   S    
S2    O12   D    
C5    H9    S    
C8    N1    A    
S1    O10   D    
C12   O4    A    
C5    C6    S    
C6    C18   S    
C9    H2    S    
O2    Zn2   S    
S2    O14   S    
C1    C19   S    
C10   C11   S    
C7    N1    A    
C14   O6    A    
C3    C4    A    
C6    H11   S    
C16   C17   D    
C8    S2    S    
C11   H4    S    
C7    C13   S    
O1    Zn1   S    
C1    O1    A    
C18   C19   A    
C5    H10   S    
S1    O11   S    
C12   O3    A    
C15   C17   S    
C8    C9    A    
C2    H8    S    
C14   O5    A    
O14   H14   S    
N1    Zn2   S    
C2    C20   A    
O5    Zn1   S    
N2    Zn1   S    
C12   C16   S    
C1    O2    A    
C4    C5    S    
C13   H5    S    
