data_mof_unit_24048.cif
_audit_creation_date              2013-03-05T15:45:57-0500
_audit_creation_method            fapswitch 2.2
_symmetry_space_group_name_H-M    P1
_symmetry_Int_Tables_number       1
_space_group_crystal_system       triclinic
_cell_length_a                    17.168277
_cell_length_b                    17.217252
_cell_length_c                    17.491707
_cell_angle_alpha                 88.477488
_cell_angle_beta                  90.770763
_cell_angle_gamma                 89.662167
_cell_volume                      5167.98917293

loop_
_atom_site_label
_atom_site_type_symbol
_atom_site_description
_atom_site_fract_x
_atom_site_fract_y
_atom_site_fract_z
_atom_type_partial_charge
C1    C     C_R   0.831970 0.078619 0.354286 -0.027112
C2    C     C_R   0.169103 0.922611 0.644709 -0.029572
C3    C     C_R   0.890498 0.803310 0.399317 -0.077641
C4    C     C_R   0.104973 0.196559 0.602928 -0.057550
C5    C     C_R   0.172653 0.920411 0.359453 -0.037364
C6    C     C_R   0.824743 0.082861 0.638798 -0.027451
C7    C     C_R   0.108014 0.196838 0.395027 -0.060054
C8    C     C_R   0.895039 0.800494 0.594277 -0.052089
C9    C     C_R   0.802529 0.889834 0.599501 -0.091093
C10   C     C_R   0.198229 0.104852 0.399492 -0.083981
C11   C     C_R   0.919061 0.173539 0.639056 0.016342
C12   C     C_R   0.082624 0.825605 0.361470 0.017386
C13   C     C_R   0.196678 0.104614 0.606185 -0.027004
C14   C     C_R   0.800660 0.895570 0.404369 -0.052701
C15   C     C_R   0.077474 0.831297 0.645676 -0.037749
C16   C     C_R   0.923418 0.170124 0.355341 -0.034156
C17   C     C_R   0.302079 0.605725 0.896084 -0.087249
C18   C     C_R   0.697166 0.392218 0.105514 -0.039411
C19   C     C_R   0.417241 0.327774 0.859433 -0.021015
C20   C     C_R   0.582315 0.672640 0.139395 -0.006623
C21   C     C_R   0.695798 0.395388 0.893567 -0.051234
C22   C     C_R   0.304839 0.603649 0.109118 -0.035937
C23   C     C_R   0.585149 0.678976 0.862055 -0.027932
C24   C     C_R   0.422862 0.328930 0.144012 -0.040794
C25   C     C_R   0.331092 0.420963 0.143992 -0.030342
C26   C     C_R   0.670736 0.580410 0.858616 -0.005518
C27   C     C_R   0.396537 0.695174 0.107378 -0.049196
C28   C     C_R   0.603194 0.304850 0.891875 -0.061019
C29   C     C_R   0.680359 0.586088 0.135931 -0.019611
C30   C     C_R   0.327023 0.422789 0.858417 -0.022079
C31   C     C_R   0.606384 0.301650 0.102918 -0.064087
C32   C     C_R   0.392724 0.696648 0.892940 -0.044941
H1    H     H_    0.784591 0.041412 0.338024 0.163537
H2    H     H_    0.217046 0.959320 0.658853 0.149253
H3    H     H_    0.918804 0.747164 0.398543 0.150522
H4    H     H_    0.075950 0.252485 0.602928 0.149051
H5    H     H_    0.223538 0.954471 0.345748 0.158473
H6    H     H_    0.772434 0.050602 0.651559 0.130366
H7    H     H_    0.078621 0.252124 0.394487 0.169493
H8    H     H_    0.924194 0.747628 0.579355 0.160884
H9    H     H_    0.746136 0.917948 0.599568 0.151563
H10   H     H_    0.251862 0.074361 0.411203 0.171992
H11   H     H_    0.952638 0.224606 0.651678 0.145395
H12   H     H_    0.051192 0.772753 0.350403 0.143894
H13   H     H_    0.252622 0.075617 0.609872 0.162696
H14   H     H_    0.746939 0.924497 0.417649 0.164954
H15   H     H_    0.040006 0.783716 0.661703 0.162657
H16   H     H_    0.961037 0.217764 0.341325 0.157558
H17   H     H_    0.248619 0.574846 0.902561 0.168722
H18   H     H_    0.751795 0.422452 0.106185 0.158370
H19   H     H_    0.448714 0.275380 0.846472 0.125759
H20   H     H_    0.542774 0.717528 0.156208 0.151441
H21   H     H_    0.752367 0.422687 0.892636 0.164203
H22   H     H_    0.248371 0.576253 0.111024 0.146101
H23   H     H_    0.553444 0.732379 0.850478 0.155846
H24   H     H_    0.459775 0.279759 0.157570 0.152882
H25   H     H_    0.282445 0.457056 0.157881 0.150377
H26   H     H_    0.714130 0.539638 0.840977 0.150545
H27   H     H_    0.424180 0.751454 0.107340 0.158607
H28   H     H_    0.573743 0.249767 0.888531 0.151203
H29   H     H_    0.734003 0.554422 0.146718 0.155127
H30   H     H_    0.276098 0.457731 0.844413 0.146233
H31   H     H_    0.575891 0.248072 0.097023 0.161874
H32   H     H_    0.423203 0.750915 0.891619 0.161495
N1    N     N_R   0.868470 0.074730 0.422590 -0.062762
N2    N     N_R   0.131530 0.925270 0.577410 -0.059523
N3    N     N_R   0.925270 0.868470 0.422590 -0.064524
N4    N     N_R   0.074730 0.131530 0.577410 -0.064857
N5    N     N_R   0.131530 0.925270 0.422590 -0.058901
N6    N     N_R   0.868470 0.074730 0.577410 -0.061638
N7    N     N_R   0.074730 0.131530 0.422590 -0.072285
N8    N     N_R   0.925270 0.868470 0.577410 -0.066342
N9    N     N_R   0.868470 0.925270 0.577410 -0.060140
N10   N     N_R   0.131530 0.074730 0.422590 -0.072245
N11   N     N_R   0.925270 0.131530 0.577410 -0.065576
N12   N     N_R   0.074730 0.868470 0.422590 -0.067652
N13   N     N_R   0.131530 0.074730 0.577410 -0.071575
N14   N     N_R   0.868470 0.925270 0.422590 -0.068489
N15   N     N_R   0.074730 0.868470 0.577410 -0.062013
N16   N     N_R   0.925270 0.131530 0.422590 -0.061122
N17   N     N_R   0.368470 0.574730 0.922590 -0.071326
N18   N     N_R   0.631530 0.425270 0.077410 -0.067337
N19   N     N_R   0.425270 0.368470 0.922590 -0.061969
N20   N     N_R   0.574730 0.631530 0.077410 -0.067233
N21   N     N_R   0.631530 0.425270 0.922590 -0.070254
N22   N     N_R   0.368470 0.574730 0.077410 -0.070636
N23   N     N_R   0.574730 0.631530 0.922590 -0.068154
N24   N     N_R   0.425270 0.368470 0.077410 -0.061827
N25   N     N_R   0.368470 0.425270 0.077410 -0.060071
N26   N     N_R   0.631530 0.574730 0.922590 -0.067235
N27   N     N_R   0.425270 0.631530 0.077410 -0.071165
N28   N     N_R   0.574730 0.368470 0.922590 -0.066784
N29   N     N_R   0.631530 0.574730 0.077410 -0.068359
N30   N     N_R   0.368470 0.425270 0.922590 -0.060803
N31   N     N_R   0.574730 0.368470 0.077410 -0.069672
N32   N     N_R   0.425270 0.631530 0.922590 -0.068509
C33   C     C_R   0.226632 0.228041 0.669906 -0.283537
C34   C     C_R   0.750657 0.769222 0.357489 -0.171875
C35   C     C_R   0.813703 0.189587 0.729714 -0.298633
C36   C     C_R   0.188679 0.814149 0.270091 -0.299611
C37   C     C_R   0.766953 0.748282 0.636437 -0.166623
C38   C     C_R   0.248388 0.239170 0.356582 -0.221899
C39   C     C_R   0.158019 0.843667 0.770099 -0.180166
C40   C     C_R   0.845825 0.160497 0.229418 -0.188292
C41   C     C_R   0.685783 0.687787 0.238742 -0.255173
C42   C     C_R   0.310333 0.321108 0.764622 -0.304756
C43   C     C_R   0.276550 0.726357 0.175495 -0.280547
C44   C     C_R   0.724972 0.275499 0.824986 -0.291427
C45   C     C_R   0.342033 0.335675 0.266877 -0.192595
C46   C     C_R   0.685234 0.681628 0.755823 -0.254664
C47   C     C_R   0.744895 0.251759 0.139715 -0.213720
C48   C     C_R   0.252296 0.743198 0.856736 -0.191762
Ni1   Ni    Ni4+2 0.869670 0.000000 0.500000 0.274980
Ni2   Ni    Ni4+2 0.130330 0.000000 0.500000 0.282279
Ni3   Ni    Ni4+2 0.000000 0.869670 0.500000 0.271233
Ni4   Ni    Ni4+2 0.000000 0.130330 0.500000 0.283510
Ni5   Ni    Ni4+2 0.369670 0.500000 0.000000 0.286506
Ni6   Ni    Ni4+2 0.630330 0.500000 0.000000 0.283050
Ni7   Ni    Ni4+2 0.500000 0.369670 0.000000 0.275179
Ni8   Ni    Ni4+2 0.500000 0.630330 0.000000 0.284647
C49   C     C_R   0.867770 0.136127 0.308924 0.131377
C50   C     C_R   0.134190 0.866626 0.691012 0.133740
C51   C     C_R   0.811299 0.819125 0.388420 0.154437
C52   C     C_R   0.180736 0.180471 0.622273 0.183722
C53   C     C_R   0.143551 0.857629 0.321152 0.158866
C54   C     C_R   0.855866 0.144706 0.677491 0.188576
C55   C     C_R   0.187000 0.182600 0.380752 0.166520
C56   C     C_R   0.817939 0.810456 0.608930 0.143462
C57   C     C_R   0.313480 0.683771 0.878065 0.174015
C58   C     C_R   0.684718 0.312761 0.119527 0.151824
C59   C     C_R   0.355929 0.361501 0.818692 0.187966
C60   C     C_R   0.650166 0.647846 0.175725 0.169993
C61   C     C_R   0.678357 0.321195 0.872899 0.180127
C62   C     C_R   0.322593 0.677863 0.129564 0.215983
C63   C     C_R   0.645782 0.647533 0.820975 0.172423
C64   C     C_R   0.366291 0.362864 0.189527 0.136428
C65   C     C_R   0.238258 0.292105 0.789235 0.238528
C66   C     C_R   0.726546 0.646463 0.297586 0.241812
C67   C     C_R   0.750730 0.201579 0.850125 0.256959
C68   C     C_R   0.308171 0.746660 0.246611 0.246771
C69   C     C_R   0.765689 0.666891 0.748939 0.210849
C70   C     C_R   0.276855 0.368009 0.302806 0.217414
C71   C     C_R   0.272229 0.823111 0.850731 0.229808
C72   C     C_R   0.725753 0.172998 0.158673 0.251336
C73   C     C_R   0.201472 0.749788 0.150999 0.249402
C74   C     C_R   0.742194 0.306690 0.752375 0.254758
C75   C     C_R   0.672746 0.768422 0.243246 0.215586
C76   C     C_R   0.340694 0.305374 0.692522 0.227328
C77   C     C_R   0.824694 0.272689 0.144886 0.228152
C78   C     C_R   0.173233 0.723033 0.840203 0.249399
C79   C     C_R   0.373756 0.266385 0.297546 0.213905
C80   C     C_R   0.643843 0.723986 0.698039 0.242756
C81   C     C_R   0.693840 0.804901 0.309215 0.246764
C82   C     C_R   0.297897 0.258178 0.644138 0.265167
C83   C     C_R   0.157830 0.796360 0.198154 0.235153
C84   C     C_R   0.786122 0.263023 0.703931 0.230459
C85   C     C_R   0.324155 0.214139 0.334867 0.248745
C86   C     C_R   0.685929 0.760974 0.639421 0.204838
C87   C     C_R   0.874365 0.229420 0.195029 0.222660
C88   C     C_R   0.123448 0.778774 0.805022 0.190846
C89   C     C_R   0.797039 0.158227 0.802369 0.243672
C90   C     C_R   0.262954 0.788705 0.295252 0.243771
C91   C     C_R   0.195742 0.245998 0.741401 0.245887
C92   C     C_R   0.762612 0.688270 0.355783 0.208405
C93   C     C_R   0.226534 0.872872 0.803356 0.205362
C94   C     C_R   0.782595 0.124589 0.193951 0.203769
C95   C     C_R   0.801714 0.688702 0.682255 0.253032
C96   C     C_R   0.231411 0.320005 0.350912 0.246707
N33   N     N_R   0.211891 0.302737 0.865863 0.260320
O1    O     O_R   0.244685 0.264137 0.922701 -0.324331
O2    O     O_R   0.157025 0.352848 0.879113 -0.277238
N34   N     N_R   0.728088 0.563122 0.300124 0.260150
O3    O     O_R   0.663496 0.524847 0.308312 -0.300350
O4    O     O_R   0.791589 0.525765 0.283926 -0.296657
N35   N     N_R   0.729870 0.170898 0.923697 0.262304
O5    O     O_R   0.782663 0.163789 0.977482 -0.293908
O6    O     O_R   0.664670 0.133528 0.930483 -0.297264
N36   N     N_R   0.383845 0.719589 0.271907 0.254807
O7    O     O_R   0.397539 0.645625 0.281948 -0.294625
O8    O     O_R   0.440380 0.768668 0.280639 -0.290029
N37   N     N_R   0.812922 0.636980 0.811787 0.258216
O9    O     O_R   0.815966 0.674117 0.875582 -0.289410
O10   O     O_R   0.853770 0.573611 0.805231 -0.257243
N38   N     N_R   0.263196 0.450349 0.297915 0.254536
O11   O     O_R   0.321101 0.497726 0.307080 -0.287423
O12   O     O_R   0.196137 0.478071 0.274467 -0.308305
N39   N     N_R   0.331394 0.855204 0.899170 0.254656
O13   O     O_R   0.329467 0.842404 0.972761 -0.333647
O14   O     O_R   0.389732 0.893169 0.870143 -0.282802
N40   N     N_R   0.649512 0.142209 0.147209 0.245585
O15   O     O_R   0.611077 0.116539 0.206139 -0.249251
O16   O     O_R   0.628355 0.120376 0.079508 -0.258342
N41   N     N_R   0.169489 0.726206 0.079112 0.266146
O17   O     O_R   0.210537 0.732321 0.017521 -0.368094
O18   O     O_R   0.098187 0.701370 0.074457 -0.244560
N42   N     N_R   0.709467 0.379642 0.725504 0.258033
O19   O     O_R   0.634298 0.388401 0.719258 -0.302387
O20   O     O_R   0.754572 0.438429 0.710699 -0.288433
N43   N     N_R   0.644232 0.814832 0.179019 0.258686
O21   O     O_R   0.680981 0.814257 0.114449 -0.290099
O22   O     O_R   0.582058 0.857828 0.184737 -0.251401
N44   N     N_R   0.415376 0.335056 0.669805 0.273143
O23   O     O_R   0.433602 0.407069 0.681539 -0.290244
O24   O     O_R   0.465926 0.289842 0.638166 -0.258903
N45   N     N_R   0.856481 0.329654 0.092646 0.255977
O25   O     O_R   0.838616 0.327576 0.020189 -0.349132
O26   O     O_R   0.899238 0.386200 0.117041 -0.267898
N46   N     N_R   0.143350 0.647097 0.855870 0.247976
O27   O     O_R   0.126913 0.602043 0.799398 -0.307566
O28   O     O_R   0.118917 0.628776 0.924064 -0.247079
N47   N     N_R   0.456094 0.250981 0.293026 0.255448
O29   O     O_R   0.482452 0.181851 0.279315 -0.248555
O30   O     O_R   0.505409 0.307468 0.300753 -0.306279
N48   N     N_R   0.560298 0.726620 0.697314 0.260020
O31   O     O_R   0.521069 0.662624 0.691141 -0.309360
O32   O     O_R   0.523840 0.790280 0.714007 -0.304642
N49   N     N_R   0.659674 0.878861 0.324634 0.253949
O33   O     O_R   0.605820 0.883452 0.375925 -0.228153
O34   O     O_R   0.676326 0.939988 0.282968 -0.297906
N50   N     N_R   0.324063 0.245197 0.567870 0.267359
O35   O     O_R   0.341656 0.175386 0.547152 -0.344889
O36   O     O_R   0.340869 0.303941 0.522865 -0.283794
N51   N     N_R   0.085118 0.829365 0.171119 0.275860
O37   O     O_R   0.020377 0.811768 0.205030 -0.333418
O38   O     O_R   0.082605 0.870405 0.107582 -0.245141
N52   N     N_R   0.796858 0.290199 0.626430 0.258119
O39   O     O_R   0.841354 0.349504 0.611845 -0.266609
O40   O     O_R   0.764077 0.254072 0.570202 -0.326361
N53   N     N_R   0.351097 0.136151 0.347273 0.247684
O41   O     O_R   0.396605 0.119092 0.405453 -0.234442
O42   O     O_R   0.342716 0.086339 0.293139 -0.323604
N54   N     N_R   0.646907 0.806297 0.580206 0.263599
O43   O     O_R   0.595727 0.858990 0.596793 -0.270494
O44   O     O_R   0.667277 0.799207 0.509433 -0.337826
N55   N     N_R   0.954971 0.249503 0.203551 0.258158
O45   O     O_R   0.974503 0.316526 0.230342 -0.286536
O46   O     O_R   0.008462 0.196510 0.195916 -0.323642
N56   N     N_R   0.039380 0.773545 0.808719 0.274246
O47   O     O_R   0.996820 0.834854 0.792728 -0.314309
O48   O     O_R   0.005911 0.714853 0.842817 -0.185023
N57   N     N_R   0.826411 0.082959 0.826920 0.267141
O49   O     O_R   0.780635 0.032307 0.859293 -0.256754
O50   O     O_R   0.899130 0.064637 0.816796 -0.278429
N58   N     N_R   0.290043 0.800409 0.372176 0.258841
O51   O     O_R   0.349242 0.845231 0.385107 -0.256800
O52   O     O_R   0.254000 0.767973 0.429544 -0.333141
N59   N     N_R   0.122117 0.215730 0.766591 0.258255
O53   O     O_R   0.065692 0.262914 0.783077 -0.299431
O54   O     O_R   0.110079 0.141246 0.769997 -0.285598
N60   N     N_R   0.805533 0.648835 0.416323 0.262705
O55   O     O_R   0.858592 0.597379 0.401496 -0.263311
O56   O     O_R   0.795278 0.668491 0.486688 -0.338972
N61   N     N_R   0.243173 0.954337 0.797494 0.256283
O57   O     O_R   0.309617 0.978589 0.771473 -0.313139
O58   O     O_R   0.188170 0.004579 0.809480 -0.274983
N62   N     N_R   0.780419 0.040853 0.188550 0.278507
O59   O     O_R   0.841244 0.999500 0.209250 -0.324961
O60   O     O_R   0.727646 0.007777 0.146666 -0.181072
N63   N     N_R   0.875513 0.654360 0.665194 0.252567
O61   O     O_R   0.879543 0.602443 0.612726 -0.233822
O62   O     O_R   0.936920 0.668525 0.706736 -0.306533
N64   N     N_R   0.174595 0.354241 0.399454 0.255316
O63   O     O_R   0.115725 0.393278 0.370381 -0.268163
O64   O     O_R   0.177808 0.340332 0.472916 -0.358748

loop_
_geom_bond_atom_site_label_1
_geom_bond_atom_site_label_2
_geom_bond_distance
_ccdc_geom_bond_type
C95   N63   1.433418 S    
C70   N38   1.435682 S    
C4    H4    1.081573 S    
N40   O15   1.300302 A    
C15   C50   1.399575 A    
N15   Ni3   1.852388 S    
C10   H10   1.071868 S    
N55   O46   1.301365 A    
N33   O1    1.300951 A    
C83   N51   1.437471 S    
N51   O37   1.300465 A    
C27   H27   1.081462 S    
C15   H15   1.078122 S    
C16   H16   1.072311 S    
N50   O36   1.301214 A    
N36   O7    1.300495 A    
C76   N44   1.440013 S    
C22   H22   1.081141 S    
N21   Ni6   1.892698 S    
C7    C55   1.403482 A    
N45   O25   1.301431 A    
N58   O51   1.300757 A    
N2    N15   1.385116 A    
N3    N14   1.376973 A    
N8    Ni3   1.877617 S    
N44   O24   1.301267 A    
C22   C62   1.370909 A    
C79   C85   1.397598 A    
C25   N25   1.337812 A    
C45   C79   1.399315 A    
N28   Ni7   1.878243 S    
C43   C62   1.418584 S    
C46   C80   1.412028 A    
N22   N27   1.385116 A    
C68   C90   1.376391 A    
C30   H30   1.080062 S    
C7    N7    1.345175 A    
N61   O57   1.300865 A    
C43   C73   1.406261 A    
N30   Ni5   1.892467 S    
N48   O32   1.300845 A    
C39   C88   1.398227 A    
C29   C60   1.387950 A    
C5    H5    1.081088 S    
C39   C50   1.480260 S    
N60   O56   1.299090 A    
C30   C59   1.372818 A    
C41   C75   1.409363 A    
N17   Ni5   1.842728 S    
N12   Ni3   1.878243 S    
N9    Ni1   1.843304 S    
N38   O11   1.300619 A    
C4    C52   1.364564 A    
N5    N12   1.385116 A    
N57   O49   1.301028 A    
N19   Ni7   1.853362 S    
C43   C68   1.404093 A    
C37   C95   1.409590 A    
C25   C64   1.392027 A    
N3    Ni3   1.853362 S    
N50   O35   1.299651 A    
C5    N5    1.322980 A    
C26   C63   1.377943 A    
N7    N10   1.376973 A    
C41   C66   1.411102 A    
C35   C89   1.401279 A    
C91   N59   1.440134 S    
C8    C56   1.362353 A    
C15   N15   1.339853 A    
N35   O5    1.300448 A    
N34   O4    1.300855 A    
N46   O27   1.301094 A    
C33   C91   1.406121 A    
N62   O60   1.300891 A    
C94   N62   1.447964 S    
N55   O45   1.301048 A    
C6    H6    1.081436 S    
C27   N27   1.322850 A    
C45   C70   1.409688 A    
N57   O50   1.301452 A    
C48   C57   1.498650 S    
C41   C60   1.445312 S    
C66   C92   1.401789 A    
C89   N57   1.440479 S    
N63   O61   1.300251 A    
C24   C64   1.399033 A    
N59   O54   1.300093 A    
C34   C81   1.408925 A    
N43   O21   1.301344 A    
N1    N16   1.385116 A    
C23   N23   1.334674 A    
C35   C84   1.408221 A    
C45   C64   1.485583 S    
N33   O2    1.300881 A    
C46   C63   1.446381 S    
C34   C51   1.461149 S    
C17   H17   1.069222 S    
N1    Ni1   1.842728 S    
C20   C60   1.379432 A    
C19   N19   1.329856 A    
C47   C77   1.420981 A    
C38   C85   1.427388 A    
C21   C61   1.370492 A    
C32   C57   1.401747 A    
C29   N29   1.333530 A    
N21   N28   1.385116 A    
C3    C51   1.394692 A    
C35   C54   1.415705 S    
C44   C74   1.401667 A    
C2    C50   1.386627 A    
N6    Ni1   1.892696 S    
C19   C59   1.379736 A    
C42   C59   1.418601 S    
N56   O48   1.300429 A    
N5    Ni2   1.892698 S    
C69   C95   1.372202 A    
C9    C56   1.395565 A    
C8    N8    1.311136 A    
N44   O23   1.301417 A    
C66   N34   1.434493 S    
C36   C53   1.416211 S    
C25   H25   1.072418 S    
C31   H31   1.070021 S    
C67   C89   1.389602 A    
C11   C54   1.372504 A    
C6    C54   1.382993 A    
N35   O6    1.299660 A    
C38   C55   1.496788 S    
N37   O10   1.301970 A    
C86   N54   1.436246 S    
C26   H26   1.074493 S    
C4    N4    1.322700 A    
C13   C52   1.370130 A    
N48   O31   1.300935 A    
N42   O19   1.301208 A    
C42   C65   1.405712 A    
N64   O64   1.301217 A    
C40   C49   1.484963 S    
C69   N37   1.439535 S    
N31   Ni7   1.852388 S    
N60   O55   1.300379 A    
C85   N53   1.427749 S    
N19   N30   1.376973 A    
C77   N45   1.437630 S    
C21   N21   1.327445 A    
C28   C61   1.365799 A    
C72   C94   1.405226 A    
C14   H14   1.076618 S    
C71   C93   1.404640 A    
N37   O9    1.301342 A    
C46   C69   1.410238 A    
C92   N60   1.435352 S    
C16   C49   1.387631 A    
N53   O41   1.300911 A    
C14   N14   1.313047 A    
C14   C51   1.364381 A    
C70   C96   1.410022 A    
C24   N24   1.334854 A    
C81   N49   1.432489 S    
C47   C58   1.500944 S    
C1    N1    1.341528 A    
N47   O29   1.300248 A    
C3    H3    1.079887 S    
C26   N26   1.315316 A    
N20   Ni8   1.853359 S    
C68   N36   1.437823 S    
N62   O59   1.302256 A    
N41   O18   1.301277 A    
C75   N43   1.439835 S    
C42   C76   1.403479 A    
C73   N41   1.434805 S    
C28   N28   1.326387 A    
C33   C82   1.406848 A    
N24   Ni7   1.877617 S    
C11   H11   1.080266 S    
C77   C87   1.410384 A    
C32   H32   1.073423 S    
C28   H28   1.079963 S    
C79   N47   1.440328 S    
C47   C72   1.428680 A    
N4    Ni4   1.853359 S    
C80   C86   1.403419 A    
C48   C71   1.421275 A    
C36   C83   1.400755 A    
N42   O20   1.300721 A    
C32   N32   1.338689 A    
N25   Ni5   1.843304 S    
C37   C86   1.408701 A    
C39   C93   1.406781 A    
N52   O40   1.301043 A    
C31   C58   1.387477 A    
C20   N20   1.315887 A    
C13   N13   1.332101 A    
N53   O42   1.301455 A    
C48   C78   1.430722 A    
C18   C58   1.401541 A    
N14   Ni1   1.892467 S    
C24   H24   1.074020 S    
N29   Ni6   1.892464 S    
N18   Ni6   1.842728 S    
C40   C87   1.409580 A    
C74   N42   1.437850 S    
C10   C55   1.381454 A    
N26   Ni6   1.843305 S    
N32   Ni8   1.852391 S    
N34   O3    1.300926 A    
C18   H18   1.075413 S    
N40   O16   1.299727 A    
N61   O58   1.299718 A    
C78   C88   1.405382 A    
C84   N52   1.436888 S    
N4    N13   1.376973 A    
C6    N6    1.328391 A    
N58   O52   1.301055 A    
C88   N56   1.448827 S    
N56   O47   1.302339 A    
C38   C96   1.420862 A    
N18   N31   1.385116 A    
N2    Ni2   1.842728 S    
N47   O30   1.301764 A    
C67   N35   1.428968 S    
C27   C62   1.364783 A    
C71   N39   1.436414 S    
C65   N33   1.436438 S    
C9    N9    1.345564 A    
C3    N3    1.344003 A    
N52   O39   1.300711 A    
N8    N9    1.376973 A    
N63   O62   1.300291 A    
N54   O44   1.299553 A    
C44   C67   1.402513 A    
N36   O8    1.300764 A    
N59   O53   1.300851 A    
N51   O38   1.301132 A    
C2    N2    1.334283 A    
N64   O63   1.300702 A    
C12   C53   1.378956 A    
C23   H23   1.078853 S    
C33   C52   1.418483 S    
C9    H9    1.079913 S    
C37   C56   1.462415 S    
C23   C63   1.388227 A    
C90   N58   1.437369 S    
C87   N55   1.435160 S    
C34   C92   1.408776 A    
C12   N12   1.323114 A    
N49   O33   1.300481 A    
C78   N46   1.428388 S    
C44   C61   1.416857 S    
C30   N30   1.322710 A    
N46   O28   1.301280 A    
C11   N11   1.319409 A    
C65   C91   1.374326 A    
C13   H13   1.080211 S    
C10   N10   1.323551 A    
C2    H2    1.071033 S    
C80   N48   1.434645 S    
C76   C82   1.394018 A    
C31   N31   1.332971 A    
C21   H21   1.081573 S    
N54   O43   1.300292 A    
C18   N18   1.340885 A    
N38   O12   1.300718 A    
N7    Ni4   1.877618 S    
N22   Ni5   1.892696 S    
C17   N17   1.328295 A    
N20   N29   1.376973 A    
C22   N22   1.331730 A    
N49   O34   1.299581 A    
C75   C81   1.373723 A    
C1    C49   1.402221 A    
N39   O14   1.300749 A    
C29   H29   1.079330 S    
C1    H1    1.078202 S    
C40   C94   1.398454 A    
C73   C83   1.389010 A    
C19   H19   1.079605 S    
N39   O13   1.301069 A    
C74   C84   1.377114 A    
N24   N25   1.376973 A    
C72   N40   1.428731 S    
C20   H20   1.075105 S    
N41   O17   1.297553 A    
N17   N32   1.385116 A    
N23   N26   1.376973 A    
C5    C53   1.379394 A    
N6    N11   1.385116 A    
N43   O22   1.301871 A    
C7    H7    1.074487 S    
N27   Ni8   1.878243 S    
C12   H12   1.081226 S    
C82   N50   1.436041 S    
C36   C90   1.407040 A    
N11   Ni4   1.878243 S    
C8    H8    1.076069 S    
N16   Ni4   1.852391 S    
C16   N16   1.335457 A    
N45   O26   1.300335 A    
C96   N64   1.435952 S    
C17   C57   1.387643 A    
N23   Ni8   1.877618 S    
N13   Ni2   1.892464 S    
C93   N61   1.434326 S    
N10   Ni2   1.843305 S    
