data_mof_unit_54314.cif
_audit_creation_date              2012-12-11T16:58:23-0500
_audit_creation_method            fapswitch 2.2
_symmetry_space_group_name_H-M    P1
_symmetry_Int_Tables_number       1
_space_group_crystal_system       triclinic
_cell_length_a                    16.910624
_cell_length_b                    7.250408
_cell_length_c                    16.902185
_cell_angle_alpha                 89.963207
_cell_angle_beta                  100.446758
_cell_angle_gamma                 90.081153
_cell_volume                      2038.004727

loop_
_atom_site_label
_atom_site_type_symbol
_atom_type_description
_atom_site_fract_x
_atom_site_fract_y
_atom_site_fract_z
_atom_type_partial_charge
O1    O     O_R   0.413450 0.494370 0.415710 -0.533589
O2    O     O_R   0.586550 0.994370 0.584290 -0.533916
O3    O     O_R   0.578420 0.819350 0.429360 -0.540320
O4    O     O_R   0.421580 0.319350 0.570640 -0.538863
C1    C     C_R   0.604935 0.654503 0.414169 0.700433
C2    C     C_R   0.395156 0.154226 0.585877 0.702363
O5    O     O_R   0.413570 0.823780 0.406240 -0.543807
O6    O     O_R   0.586430 0.323780 0.593760 -0.544003
O7    O     O_R   0.420530 0.998740 0.561000 -0.536724
O8    O     O_R   0.579470 0.498740 0.439000 -0.537423
C3    C     C_R   0.385850 0.655307 0.383867 0.687985
C4    C     C_R   0.613685 0.155331 0.616267 0.688577
O9    O     O_3   0.502480 0.662320 0.550800 -0.377050
O10   O     O_3   0.497520 0.162320 0.449200 -0.378957
V1    V     V_3+5 0.499540 0.935370 0.490580 1.395057
V2    V     V_3+5 0.500460 0.435370 0.509420 1.397937
C5    C     C_R   0.729537 0.989400 0.701449 0.119112
C6    C     C_R   0.265018 0.490601 0.305308 0.126510
C7    C     C_R   0.681134 0.145504 0.685520 -0.110481
C8    C     C_R   0.314635 0.647014 0.317765 -0.115309
C9    C     C_R   0.700742 0.293894 0.740120 -0.187940
C10   C     C_R   0.291316 0.800116 0.267482 -0.189269
H1    H     H_    0.664990 0.418455 0.733154 0.130828
H2    H     H_    0.326296 0.925749 0.275284 0.144899
C11   C     C_R   0.766857 0.282195 0.805173 -0.176683
C12   C     C_R   0.225481 0.789012 0.203113 -0.178154
H3    H     H_    0.779211 0.398439 0.845684 0.128430
H4    H     H_    0.212142 0.907199 0.163906 0.138377
C13   C     C_R   0.815727 0.121918 0.817738 -0.107628
C14   C     C_R   0.180810 0.624126 0.186687 -0.111292
C15   C     C_R   0.792943 0.978189 0.763774 0.103504
C16   C     C_R   0.200122 0.479374 0.241681 0.151144
C17   C     C_3   0.818322 0.794042 0.738655 -0.405303
C18   C     C_3   0.215030 0.280352 0.228038 -0.427826
C19   C     C_3   0.746610 0.806684 0.668089 -0.405682
C20   C     C_3   0.285862 0.292531 0.297594 -0.415910
H5    H     H_    0.811606 0.684926 0.783046 0.175363
H6    H     H_    0.233243 0.254693 0.169007 0.162813
H7    H     H_    0.877735 0.799047 0.719371 0.175800
H8    H     H_    0.165496 0.191358 0.241383 0.193241
H9    H     H_    0.698217 0.704824 0.671352 0.175605
H10   H     H_    0.345063 0.273748 0.278833 0.171437
H11   H     H_    0.764966 0.819019 0.608394 0.171506
H12   H     H_    0.277066 0.210514 0.350929 0.178820
C21   C     C_R   0.331294 0.134841 0.635109 -0.059859
C22   C     C_R   0.669169 0.636030 0.365268 -0.060817
C23   C     C_R   0.163195 0.133433 0.858201 -0.131375
C24   C     C_R   0.836351 0.631651 0.141333 -0.124173
C25   C     C_R   0.274141 0.313059 0.822911 -0.147100
C26   C     C_R   0.725200 0.810980 0.176066 -0.190834
C27   C     C_R   0.219285 0.278491 0.873442 -0.123434
C28   C     C_R   0.778605 0.772622 0.124382 -0.169408
C29   C     C_R   0.163499 0.018686 0.790068 -0.076214
C30   C     C_R   0.839640 0.526181 0.212813 -0.070256
C31   C     C_R   0.218812 0.056751 0.737311 0.120296
C32   C     C_R   0.783620 0.562959 0.264781 0.128978
C33   C     C_R   0.274348 0.205056 0.754565 0.134691
C34   C     C_R   0.726871 0.707998 0.246263 0.138347
C35   C     C_R   0.329716 0.243696 0.703347 -0.217478
C36   C     C_R   0.671171 0.745742 0.297220 -0.228397
C37   C     C_R   0.274713 0.992170 0.616878 -0.171123
C38   C     C_R   0.725080 0.492081 0.383023 -0.177076
C39   C     C_R   0.218919 0.954890 0.666299 -0.143713
C40   C     C_R   0.781380 0.456223 0.334061 -0.145317
H13   H     H_    0.373214 0.354071 0.718040 0.117331
H14   H     H_    0.627259 0.854859 0.282043 0.116607
H15   H     H_    0.273885 0.907548 0.563904 0.129197
H16   H     H_    0.724576 0.404356 0.434865 0.128885
H17   H     H_    0.316124 0.426494 0.837023 0.119495
H18   H     H_    0.682087 0.921595 0.160756 0.117544
H19   H     H_    0.176222 0.845443 0.647724 0.167814
H20   H     H_    0.821421 0.340690 0.350155 0.161171
H21   H     H_    0.220718 0.367075 0.925290 0.127872
H22   H     H_    0.775345 0.856196 0.070712 0.126224
O11   O     O_R   0.920630 0.775410 0.061150 -0.531440
O12   O     O_R   0.079370 0.275410 0.938850 -0.525897
O13   O     O_R   0.086500 0.441450 0.093690 -0.538956
O14   O     O_R   0.913500 0.941450 0.906310 -0.542556
C41   C     C_R   0.113996 0.610360 0.116275 0.694046
C42   C     C_R   0.885820 0.110121 0.884262 0.677328
O15   O     O_R   0.921670 0.445960 0.070740 -0.553379
O16   O     O_R   0.078330 0.945960 0.929260 -0.539936
O17   O     O_R   0.913380 0.271130 0.915780 -0.536713
O18   O     O_R   0.086620 0.771130 0.084220 -0.537415
C43   C     C_R   0.897085 0.615010 0.087527 0.683950
C44   C     C_R   0.102873 0.115404 0.912445 0.671773
O19   O     O_3   0.997500 0.603030 0.949220 -0.368964
O20   O     O_3   0.002500 0.103030 0.050780 -0.379808
V3    V     V_3+5 0.000470 0.329940 0.009420 1.413057
V4    V     V_3+5 0.999530 0.829940 0.990580 1.422519
C45   C     C_2   0.104055 0.866333 0.773211 0.372857
H23   H     H_    0.041341 0.891386 0.775952 0.042532
O21   O     O_2   0.125226 0.710207 0.759876 -0.530717
C46   C     C_2   0.903744 0.386084 0.234832 0.329366
H24   H     H_    0.911143 0.276207 0.193368 0.081887
O22   O     O_2   0.949734 0.394581 0.299360 -0.525021

loop_
_geom_bond_atom_site_label_1
_geom_bond_atom_site_label_2
_ccdc_geom_bond_type
C2    C21   S    
C29   C31   A    
C20   H10   S    
O1    C3    A    
O2    C4    A    
C2    O7    A    
O14   V4    S    
C24   C30   A    
O13   V3    S    
C17   H7    S    
C22   C38   A    
C18   H8    S    
C7    C9    A    
C28   H22   S    
C41   O18   A    
O14   C42   A    
C33   C35   A    
C34   C36   A    
C25   C33   A    
C37   C39   A    
C38   C40   A    
O11   V4    S    
C17   C19   S    
O11   C43   A    
C25   C27   A    
C31   C39   A    
C29   C45   S    
C26   C28   A    
C32   C40   A    
C19   H11   S    
C18   C20   S    
O12   V3    S    
C23   C29   A    
O15   V3    S    
O5    V1    S    
C36   H14   S    
O6    V2    S    
C25   H17   S    
O18   V4    S    
C42   O17   A    
O13   C41   A    
C11   C13   A    
O17   V3    S    
C30   C32   A    
C3    C8    S    
C26   C34   A    
C23   C44   S    
O4    C2    A    
C45   H23   S    
C23   C27   A    
O16   C44   A    
C17   H5    S    
C16   C18   S    
O4    V2    S    
O5    C3    A    
C45   O21   D    
C37   H15   S    
O6    C4    A    
C15   C17   S    
O1    V2    S    
C46   O22   D    
O2    V1    S    
C14   C41   S    
C39   H19   S    
C12   C14   A    
C31   C33   A    
C5    C15   A    
C10   H2    S    
C20   H12   S    
C6    C16   A    
O12   C44   A    
O3    V1    S    
C9    C11   A    
C21   C35   A    
C22   C36   A    
C18   H6    S    
C24   C43   S    
C27   H21   S    
C8    C10   A    
O3    C1    A    
O9    V2    S    
C11   H3    S    
C1    C22   S    
C12   H4    S    
O16   V4    S    
C38   H16   S    
C9    H1    S    
C26   H18   S    
C1    O8    A    
C13   C15   A    
O8    V2    S    
C35   H13   S    
C14   C16   A    
C13   C42   S    
C4    C7    S    
C21   C37   A    
C5    C7    A    
C32   C34   A    
C6    C8    A    
C40   H20   S    
O7    V1    S    
C46   H24   S    
C19   H9    S    
C30   C46   S    
C24   C28   A    
O20   V3    S    
C10   C12   A    
O19   V4    S    
O10   V1    S    
C5    C19   S    
C6    C20   S    
O15   C43   A    
