data_mof_unit_41043.cif
_audit_creation_date              2012-12-11T16:14:57-0500
_audit_creation_method            fapswitch 2.2
_symmetry_space_group_name_H-M    P1
_symmetry_Int_Tables_number       1
_space_group_crystal_system       triclinic
_cell_length_a                    13.497535
_cell_length_b                    13.56807
_cell_length_c                    28.453244
_cell_angle_alpha                 90.414485
_cell_angle_beta                  90.211064
_cell_angle_gamma                 60.121876
_cell_volume                      4518.0979442

loop_
_atom_site_label
_atom_site_type_symbol
_atom_type_description
_atom_site_fract_x
_atom_site_fract_y
_atom_site_fract_z
_atom_type_partial_charge
C1    C     C_R   0.278939 0.620934 0.566306 0.543047
C2    C     C_1   0.639828 0.634372 0.612065 -0.023323
C3    C     C_3   0.714706 0.736908 0.758414 0.016804
C4    C     C_3   0.669950 0.685221 0.794686 0.067989
C5    C     C_3   0.770732 0.624373 0.730135 -0.073938
C6    C     C_3   0.658092 0.668897 0.702711 0.029653
C7    C     C_3   0.724396 0.573758 0.766616 0.023584
C8    C     C_3   0.612619 0.616304 0.738568 -0.094780
C9    C     C_1   0.681554 0.693817 0.845255 -0.057491
C10   C     C_1   0.650048 0.654066 0.652401 -0.074006
C11   C     C_1   0.634651 0.227562 0.611021 -0.019505
C12   C     C_R   0.622073 0.601095 0.566641 0.544323
C13   C     C_R   0.753820 0.171959 0.725030 -0.135492
C14   C     C_R   0.761562 0.159750 0.773600 -0.135794
C15   C     C_R   0.589925 0.142409 0.774303 0.032261
C16   C     C_R   0.582244 0.154556 0.724686 0.037857
C17   C     C_R   0.665071 0.169833 0.700438 0.040196
C18   C     C_R   0.680254 0.145956 0.798440 0.038450
C19   C     C_1   0.695843 0.126499 0.848260 -0.064799
C20   C     C_1   0.653254 0.196246 0.651144 -0.061462
C21   C     C_1   0.707481 0.100994 0.889118 -0.021893
C22   C     C_1   0.228965 0.638545 0.611875 -0.008434
C23   C     C_R   0.601057 0.278732 0.565791 0.544111
C24   C     C_R   0.152140 0.587963 0.724480 -0.116076
C25   C     C_R   0.139164 0.590825 0.773254 0.001363
C26   C     C_R   0.184978 0.744630 0.778129 -0.001492
C27   C     C_R   0.194122 0.742866 0.728514 0.015225
C28   C     C_R   0.178927 0.662885 0.702162 0.002164
C29   C     C_R   0.156458 0.668894 0.800261 0.053899
C30   C     C_1   0.134326 0.679968 0.850109 -0.058514
C31   C     C_1   0.200182 0.650676 0.652380 -0.055121
C32   C     C_1   0.106442 0.697455 0.890712 -0.021886
C33   C     C_1   0.636018 0.632173 0.388167 -0.011907
C34   C     C_R   0.276521 0.621095 0.434455 0.544862
C35   C     C_R   0.728878 0.692173 0.279726 -0.122108
C36   C     C_R   0.737055 0.700110 0.231190 -0.122537
C37   C     C_R   0.580453 0.662969 0.219379 -0.114375
C38   C     C_R   0.572386 0.654746 0.267978 -0.114297
C39   C     C_R   0.646804 0.669040 0.298150 0.027113
C40   C     C_R   0.663159 0.685253 0.200971 0.030568
C41   C     C_1   0.674097 0.693363 0.151246 -0.070224
C42   C     C_1   0.642860 0.652207 0.347618 -0.064210
C43   C     C_1   0.691705 0.702553 0.110574 -0.021192
C44   C     C_1   0.642515 0.211608 0.392128 -0.006983
C45   C     C_R   0.620484 0.600214 0.434047 0.545306
C46   C     C_R   0.641054 0.071676 0.288523 -0.105284
C47   C     C_R   0.647789 0.048021 0.240503 -0.000373
C48   C     C_R   0.783362 0.117485 0.231664 -0.015344
C49   C     C_R   0.773795 0.143306 0.280197 -0.008274
C50   C     C_R   0.701366 0.120674 0.308057 0.001115
C51   C     C_R   0.718267 0.071966 0.212015 0.030020
C52   C     C_1   0.724038 0.048843 0.162576 -0.055666
C53   C     C_1   0.672524 0.165170 0.354777 -0.054696
C54   C     C_1   0.728911 0.028433 0.121422 -0.010771
C55   C     C_1   0.224951 0.638566 0.389582 -0.011953
C56   C     C_R   0.600875 0.276622 0.434004 0.548964
C57   C     C_R   0.211949 0.717748 0.273278 -0.100704
C58   C     C_R   0.204061 0.718189 0.224365 0.002238
C59   C     C_R   0.125421 0.589811 0.229589 0.004104
C60   C     C_R   0.134504 0.590846 0.278533 -0.098568
C61   C     C_R   0.176161 0.655533 0.300053 0.008733
C62   C     C_R   0.159517 0.654894 0.202431 0.068303
C63   C     C_1   0.135584 0.669389 0.153178 -0.058495
C64   C     C_1   0.195921 0.648235 0.349369 -0.065312
C65   C     C_1   0.105072 0.691105 0.113250 -0.019258
C66   C     C_R   0.720641 0.055269 0.935242 0.555543
C67   C     C_3   0.602630 0.782101 0.730097 -0.098071
C68   C     C_R   0.730528 0.717910 0.932146 0.547123
C69   C     C_R   0.057656 0.729223 0.936509 0.545139
C70   C     C_R   0.737151 0.000582 0.072956 0.562731
C71   C     C_R   0.725218 0.717397 0.064821 0.536424
C72   C     C_R   0.053823 0.727573 0.068544 0.538131
C73   C     C_3   0.557733 0.729543 0.766925 -0.121597
C74   C     C_1   0.698997 0.702805 0.885983 -0.018527
Cr1   Cr    Cr6+3 0.413560 0.417690 0.499580 1.025823
Cr2   Cr    Cr6+3 0.418030 0.668340 0.500400 1.027707
Cr3   Cr    Cr6+3 0.668390 0.413960 0.499990 1.031937
Cr4   Cr    Cr6+3 0.919710 0.916540 0.003080 1.029182
Cr5   Cr    Cr6+3 0.665300 0.919470 0.999630 1.021168
Cr6   Cr    Cr6+3 0.916060 0.665490 0.000390 1.018216
H1    H     H_    0.470619 0.772132 0.782348 0.108478
H2    H     H_    0.141329 0.526583 0.703716 0.113490
H3    H     H_    0.787358 0.702365 0.302722 0.112226
H4    H     H_    0.800868 0.718105 0.217160 0.113273
H5    H     H_    0.523217 0.651116 0.196289 0.107934
H6    H     H_    0.509229 0.635777 0.282001 0.114734
H7    H     H_    0.583991 0.057293 0.310484 0.117826
H8    H     H_    0.553330 0.867837 0.714379 0.101173
H9    H     H_    0.247137 0.764977 0.290627 0.110965
H10   H     H_    0.110043 0.540410 0.299821 0.111009
H11   H     H_    0.571198 0.565367 0.729862 0.110611
H12   H     H_    0.857922 0.581778 0.714758 0.100882
H13   H     H_    0.816499 0.184968 0.706601 0.108150
H14   H     H_    0.831505 0.161001 0.791904 0.110158
O1    O     O_R   0.503010 0.303330 0.550820 -0.511409
O2    O     O_R   0.522480 0.657560 0.452870 -0.495148
O3    O     O_R   0.693670 0.502790 0.448900 -0.504671
O4    O     O_R   0.656970 0.319650 0.452000 -0.492399
O5    O     O_3   0.499990 0.499990 0.499990 -0.249005
O6    O     O_R   0.035380 0.825870 0.952240 -0.507992
O7    O     O_R   0.818010 0.012400 0.954990 -0.488943
O8    O     O_R   0.644810 0.033340 0.949080 -0.505905
O9    O     O_R   0.674910 0.816000 0.950960 -0.494972
O10   O     O_R   0.827060 0.642880 0.947470 -0.506715
O11   O     O_R   0.013800 0.673690 0.954100 -0.493879
O12   O     O_R   0.320040 0.522690 0.547470 -0.498003
O13   O     O_R   0.031250 0.825430 0.055080 -0.513024
O14   O     O_R   0.814180 0.011990 0.050320 -0.488381
O15   O     O_R   0.640680 0.032900 0.051920 -0.506732
O16   O     O_R   0.671090 0.815590 0.046300 -0.512246
O17   O     O_R   0.822940 0.642440 0.050310 -0.507605
O18   O     O_R   0.009970 0.673280 0.049430 -0.499462
O19   O     O_3   0.833690 0.833830 0.001040 -0.271430
O20   O     O_R   0.303930 0.694040 0.551750 -0.502768
O21   O     O_R   0.523510 0.657900 0.548240 -0.498377
O22   O     O_R   0.694770 0.503160 0.551780 -0.507231
O23   O     O_R   0.657990 0.319990 0.547370 -0.495265
O24   O     O_R   0.501900 0.302960 0.447930 -0.509731
O25   O     O_R   0.319020 0.522350 0.452090 -0.495070
O26   O     O_R   0.302820 0.693680 0.448870 -0.509573
C75   C     C_3   0.484823 0.152900 0.698542 -0.397842
H15   H     H_    0.489449 0.159058 0.659905 0.141225
H16   H     H_    0.485621 0.072216 0.705534 0.116663
H17   H     H_    0.402023 0.225437 0.710323 0.127918
C76   C     C_3   0.106523 0.509412 0.794602 -0.406851
H18   H     H_    0.099988 0.515334 0.833439 0.147199
H19   H     H_    0.022490 0.527094 0.780432 0.124082
H20   H     H_    0.171700 0.420812 0.785231 0.123532
C77   C     C_3   0.205852 0.825570 0.808091 -0.402473
H21   H     H_    0.271755 0.776718 0.835038 0.135203
H22   H     H_    0.237371 0.873976 0.787957 0.131902
H23   H     H_    0.125339 0.887397 0.825967 0.139790
C78   C     C_R   0.215014 0.826861 0.703902 0.032214
C79   C     C_R   0.321198 0.793320 0.682876 -0.083414
C80   C     C_R   0.340138 0.873430 0.660077 -0.101144
C81   C     C_R   0.253570 0.987147 0.658239 -0.106445
C82   C     C_R   0.147555 0.020946 0.678955 -0.115786
C83   C     C_R   0.128075 0.941122 0.701651 -0.099672
H24   H     H_    0.388879 0.705483 0.684158 0.109900
H25   H     H_    0.421839 0.847594 0.643828 0.117956
H26   H     H_    0.268598 0.049021 0.640697 0.106730
H27   H     H_    0.080476 0.108990 0.677439 0.103827
H28   H     H_    0.045639 0.968196 0.717635 0.109648
C84   C     C_3   0.575897 0.001907 0.219796 -0.392625
H29   H     H_    0.530684 0.981810 0.247360 0.130848
H30   H     H_    0.511181 0.065671 0.195705 0.138625
H31   H     H_    0.630742 0.923051 0.199593 0.144913
C85   C     C_R   0.860220 0.139305 0.201635 0.034723
C86   C     C_R   0.814599 0.222855 0.166606 -0.091521
C87   C     C_R   0.886734 0.246101 0.139568 -0.101561
C88   C     C_R   0.004620 0.186470 0.147397 -0.096100
C89   C     C_R   0.050583 0.103377 0.182234 -0.112868
C90   C     C_R   0.978802 0.079547 0.209242 -0.084872
H32   H     H_    0.723237 0.270692 0.160667 0.109176
H33   H     H_    0.851179 0.310791 0.112724 0.116006
H34   H     H_    0.060318 0.204854 0.126554 0.110713
H35   H     H_    0.141845 0.057596 0.188370 0.103094
H36   H     H_    0.015343 0.015173 0.236232 0.112440
C91   C     C_R   0.834121 0.199466 0.301325 0.035749
C92   C     C_R   0.809343 0.307919 0.286352 -0.076974
C93   C     C_R   0.867642 0.359456 0.305799 -0.102352
C94   C     C_R   0.949752 0.304010 0.340693 -0.095446
C95   C     C_R   0.974128 0.196598 0.356058 -0.105589
C96   C     C_R   0.916726 0.144276 0.336435 -0.094803
H37   H     H_    0.745238 0.352253 0.259599 0.112996
H38   H     H_    0.849400 0.442244 0.293764 0.121158
H39   H     H_    0.994582 0.344216 0.355774 0.108354
H40   H     H_    0.037831 0.153678 0.383058 0.109790
H41   H     H_    0.936971 0.060638 0.348346 0.108854
C97   C     C_3   0.242776 0.786507 0.196104 -0.411569
H42   H     H_    0.275414 0.830874 0.218920 0.116569
H43   H     H_    0.312314 0.729273 0.171820 0.134538
H44   H     H_    0.170258 0.851362 0.175206 0.148672
C98   C     C_3   0.079453 0.518454 0.208250 -0.405695
H45   H     H_    0.074575 0.522739 0.169368 0.146363
H46   H     H_    0.135747 0.428147 0.218104 0.131533
H47   H     H_    0.992462 0.547080 0.222063 0.126850
C99   C     C_3   0.792634 0.455329 0.787285 -0.408905
H48   H     H_    0.820439 0.390877 0.758702 0.125926
H49   H     H_    0.868953 0.446977 0.805788 0.131340
H50   H     H_    0.738751 0.440874 0.812538 0.141324
C100  C     C_3   0.772978 0.805517 0.769942 -0.401090
H51   H     H_    0.793352 0.834817 0.736942 0.140101
H52   H     H_    0.715465 0.880413 0.791798 0.144275
H53   H     H_    0.853190 0.751850 0.789627 0.142107
C101  C     C_3   0.501680 0.125749 0.800570 -0.399949
H54   H     H_    0.514392 0.119173 0.839127 0.147336
H55   H     H_    0.415003 0.198927 0.794122 0.127479
H56   H     H_    0.504790 0.046356 0.788370 0.124292

loop_
_geom_bond_atom_site_label_1
_geom_bond_atom_site_label_2
_ccdc_geom_bond_type
C58   C62   A    
C15   C18   A    
C82   H27   S    
C63   C65   T    
C21   C66   S    
C33   C45   S    
C14   C18   A    
C35   C36   A    
C68   O9    A    
C56   O4    A    
C99   H50   S    
C86   H32   S    
C59   C98   S    
C2    C12   S    
C17   C20   S    
C72   O18   A    
C99   H48   S    
C46   H7    S    
Cr1   O1    S    
C7    C8    S    
Cr2   O5    S    
C67   H8    S    
C37   C38   A    
C57   H9    S    
C66   O8    A    
Cr6   O10   S    
C6    C8    S    
C33   C42   T    
C37   H5    S    
C58   C97   S    
C77   H21   S    
C37   C40   A    
Cr3   O23   S    
C83   H28   S    
C84   H31   S    
C5    C6    S    
C97   H42   S    
C68   C74   S    
C15   C16   A    
C71   O16   A    
Cr2   O21   S    
Cr4   O14   S    
C18   C19   S    
C46   C47   A    
C90   H36   S    
C25   C76   S    
C98   H45   S    
C75   H17   S    
C24   H2    S    
C4    C73   S    
C100  H51   S    
C44   C53   T    
C48   C51   A    
C95   C96   A    
C16   C17   A    
C71   O17   A    
C76   H20   S    
Cr2   O20   S    
C88   C89   A    
Cr5   O8    S    
Cr3   O3    S    
C67   C73   S    
Cr3   O22   S    
C93   H38   S    
C1    O12   A    
C12   O21   A    
C78   C83   A    
C1    C22   S    
C13   C14   A    
Cr4   O7    S    
C34   O26   A    
C41   C43   T    
C66   O7    A    
Cr5   O9    S    
C96   H41   S    
Cr1   O24   S    
C4    C7    S    
C85   C90   A    
C73   H1    S    
C3    C100  S    
C52   C54   T    
C93   C94   A    
C39   C42   S    
C98   H46   S    
C25   C29   A    
C80   H25   S    
C15   C101  S    
C11   C20   T    
C50   C53   S    
C22   C31   T    
Cr5   O15   S    
C51   C52   S    
C27   C78   S    
C47   C84   S    
C68   O10   A    
C80   C81   A    
Cr1   O25   S    
C24   C25   A    
C84   H30   S    
C79   H24   S    
C5    C7    S    
C69   O11   A    
C84   H29   S    
C47   C51   A    
Cr6   O19   S    
C92   H37   S    
Cr6   O11   S    
C7    C99   S    
C13   H13   S    
Cr4   O13   S    
C100  H53   S    
C38   C39   A    
C61   C64   S    
C35   C39   A    
C16   C75   S    
C23   O23   A    
C62   C63   S    
C70   O15   A    
C44   C56   S    
C91   C92   A    
C54   C70   S    
C72   O13   A    
C36   C40   A    
C55   C64   T    
Cr6   O18   S    
Cr1   O5    S    
C26   C27   A    
C34   C55   S    
Cr3   O4    S    
C8    H11   S    
Cr2   O26   S    
C88   H34   S    
C85   C86   A    
C98   H47   S    
C75   H15   S    
C79   C80   A    
C26   C77   S    
C26   C29   A    
C40   C41   S    
C38   H6    S    
C87   H33   S    
Cr5   O19   S    
Cr4   O6    S    
C76   H18   S    
Cr4   O19   S    
C1    O20   A    
C101  H55   S    
C3    C4    S    
C2    C10   T    
C94   C95   A    
C34   O25   A    
C89   H35   S    
C6    C67   S    
C59   C62   A    
C35   H3    S    
Cr5   O16   S    
C19   C21   T    
C91   C96   A    
C56   O24   A    
C28   C31   S    
C3    C67   S    
C24   C28   A    
C81   C82   A    
C3    C5    S    
C6    C10   S    
C99   H49   S    
C57   C61   A    
C32   C69   S    
C60   H10   S    
C65   C72   S    
C82   C83   A    
C46   C50   A    
C13   C17   A    
C92   C93   A    
C77   H23   S    
C101  H56   S    
C95   H40   S    
C101  H54   S    
C70   O14   A    
C86   C87   A    
Cr2   O2    S    
C30   C32   T    
C57   C58   A    
C78   C79   A    
C97   H43   S    
C36   H4    S    
C48   C49   A    
C48   C85   S    
Cr6   O17   S    
C11   C23   S    
C8    C73   S    
C81   H26   S    
C23   O1    A    
Cr3   O5    S    
C43   C71   S    
C100  H52   S    
C75   H16   S    
C5    H12   S    
C29   C30   S    
C94   H39   S    
C69   O6    A    
C59   C60   A    
C89   C90   A    
Cr1   O12   S    
C49   C50   A    
C9    C74   T    
C27   C28   A    
C76   H19   S    
C87   C88   A    
C60   C61   A    
C45   O3    A    
C12   O22   A    
C4    C9    S    
C45   O2    A    
C49   C91   S    
C14   H14   S    
C77   H22   S    
C97   H44   S    
