data_mof_unit_23129.cif
_audit_creation_date              2013-03-05T16:25:43-0500
_audit_creation_method            fapswitch 2.2
_symmetry_space_group_name_H-M    P1
_symmetry_Int_Tables_number       1
_space_group_crystal_system       triclinic
_cell_length_a                    18.413988
_cell_length_b                    18.396067
_cell_length_c                    18.421799
_cell_angle_alpha                 120.257145
_cell_angle_beta                  119.927695
_cell_angle_gamma                 89.831467
_cell_volume                      4406.66030501

loop_
_atom_site_label
_atom_site_type_symbol
_atom_site_description
_atom_site_fract_x
_atom_site_fract_y
_atom_site_fract_z
_atom_type_partial_charge
Zn1   Zn    Zn3+2 0.543850 0.957090 0.414170 1.078364
Zn2   Zn    Zn3+2 0.542910 0.129670 0.585830 1.069530
Zn3   Zn    Zn3+2 0.542910 0.956180 0.585840 1.053011
Zn4   Zn    Zn3+2 0.370330 0.957070 0.414150 1.053366
O1    O     O_3   0.500000 0.000000 0.500000 -0.547237
O2    O     O_R   0.323800 0.055370 0.439900 -0.629013
O3    O     O_R   0.616140 0.884540 0.439940 -0.589169
O4    O     O_R   0.615480 0.176200 0.560080 -0.608858
O5    O     O_R   0.444590 0.883880 0.560080 -0.623307
O6    O     O_R   0.614550 0.175310 0.729160 -0.602833
O7    O     O_R   0.324730 0.885400 0.270830 -0.611521
O8    O     O_R   0.614550 0.053870 0.729160 -0.608888
O9    O     O_R   0.446170 0.885420 0.270850 -0.617248
O10   O     O_R   0.616140 0.055410 0.439930 -0.637034
O11   O     O_R   0.323800 0.884510 0.439910 -0.599209
O12   O     O_R   0.444590 0.176180 0.560060 -0.589211
O13   O     O_R   0.615480 0.883900 0.560100 -0.626768
C1    C     C_R   0.360546 0.140405 0.500879 0.867658
C2    C     C_R   0.639540 0.859491 0.499335 0.874455
C3    C     C_R   0.640285 0.140062 0.500504 0.855784
C4    C     C_R   0.360336 0.858247 0.498544 0.899739
C5    C     C_R   0.637748 0.139034 0.777636 0.823223
C6    C     C_R   0.362176 0.861511 0.223157 0.929841
C7    C     C_2   0.272656 0.679907 0.945843 0.089131
C8    C     C_2   0.187157 0.674687 0.887843 0.005030
C9    C     C_2   0.319375 0.726439 0.058582 0.321776
C10   C     C_2   0.310179 0.805435 0.112303 -0.376749
H1    H     H_    0.270038 0.834620 0.074585 0.121167
C11   C     C_R   0.743164 0.796497 0.457796 -0.055442
C12   C     C_R   0.692027 0.800271 0.494957 -0.029296
C13   C     C_R   0.692415 0.745808 0.527709 -0.139907
H2    H     H_    0.650903 0.744388 0.553115 0.202265
C14   C     C_R   0.748508 0.694346 0.530479 -0.149162
H3    H     H_    0.747874 0.653051 0.556311 0.209293
C15   C     C_R   0.805865 0.697628 0.501943 -0.038190
C16   C     C_R   0.800904 0.747987 0.463558 -0.012142
C17   C     C_3   0.871498 0.818574 0.491621 0.490104
C18   C     C_3   0.804605 0.870208 0.480540 0.378622
C19   C     C_R   0.215742 0.790535 0.452838 -0.079070
C20   C     C_R   0.306408 0.803190 0.501263 -0.202321
C21   C     C_R   0.345072 0.766984 0.558539 0.205480
C22   C     C_R   0.292336 0.722756 0.568853 0.354896
C23   C     C_R   0.198433 0.699111 0.505878 -0.119515
C24   C     C_R   0.162838 0.734907 0.449722 -0.160569
C25   C     C_3   0.085151 0.698884 0.342210 0.089747
C26   C     C_3   0.143921 0.761604 0.345671 0.438338
H4    H     H_    0.026386 0.716498 0.339336 0.188670
C27   C     C_R   0.216996 0.164572 0.423908 -0.027662
C28   C     C_R   0.307382 0.198510 0.501021 -0.240611
C29   C     C_R   0.345166 0.292388 0.578208 0.165297
C30   C     C_R   0.292367 0.347208 0.570761 0.424968
C31   C     C_R   0.198549 0.307863 0.497001 -0.232179
C32   C     C_R   0.165152 0.216787 0.423864 -0.138124
C33   C     C_3   0.081953 0.140341 0.330281 0.282148
C34   C     C_3   0.141295 0.080110 0.330184 0.278723
H5    H     H_    0.036740 0.127858 0.349100 0.116465
H6    H     H_    0.130077 0.033310 0.347887 0.126196
C35   C     C_R   0.740290 0.283432 0.948254 -0.160975
C36   C     C_R   0.689376 0.194886 0.889656 -0.215156
C37   C     C_R   0.689769 0.161190 0.944146 0.365460
C38   C     C_R   0.750749 0.212212 0.053004 0.343093
C39   C     C_R   0.801668 0.302900 0.109582 -0.171673
C40   C     C_R   0.791756 0.335269 0.052612 -0.153391
C41   C     C_3   0.827801 0.415371 0.063097 0.037985
C42   C     C_3   0.768216 0.357108 0.943469 0.651397
H7    H     H_    0.900500 0.433342 0.100271 0.158913
C43   C     C_R   0.731028 0.287334 0.569984 -0.045141
C44   C     C_R   0.694133 0.195252 0.498689 -0.084324
C45   C     C_R   0.708712 0.156778 0.421062 -0.242281
H8    H     H_    0.679744 0.085569 0.362001 0.201247
C46   C     C_R   0.757543 0.210428 0.415806 0.503049
C47   C     C_R   0.800296 0.303363 0.495074 -0.158309
C48   C     C_R   0.782711 0.338544 0.568966 -0.086436
C49   C     C_3   0.801414 0.423005 0.663484 0.414924
C50   C     C_3   0.741425 0.364431 0.664243 0.029374
H9    H     H_    0.775494 0.359095 0.730129 0.168412
Zn5   Zn    Zn3+2 0.956190 0.542870 0.585830 1.076085
Zn6   Zn    Zn3+2 0.957140 0.543780 0.414160 1.038533
Zn7   Zn    Zn3+2 0.957140 0.370280 0.414170 1.005379
Zn8   Zn    Zn3+2 0.129710 0.542890 0.585850 0.999636
O14   O     O_3   0.000040 0.499960 0.500000 -0.535243
O15   O     O_R   0.176240 0.615450 0.560090 -0.639003
O16   O     O_R   0.883910 0.444550 0.560070 -0.595722
O17   O     O_R   0.884570 0.616050 0.439900 -0.609192
O18   O     O_R   0.055460 0.323770 0.439940 -0.637315
O19   O     O_R   0.885490 0.446080 0.270840 -0.591104
O20   O     O_R   0.175320 0.614550 0.729170 -0.628371
O21   O     O_R   0.885490 0.324650 0.270840 -0.633540
O22   O     O_R   0.053870 0.614540 0.729150 -0.564074
O23   O     O_R   0.883910 0.615420 0.560060 -0.626177
O24   O     O_R   0.176240 0.444580 0.560100 -0.601967
O25   O     O_R   0.055460 0.616070 0.439920 -0.627658
O26   O     O_R   0.884570 0.323750 0.439920 -0.607641
C51   C     C_R   0.140447 0.640145 0.500564 0.871278
C52   C     C_R   0.858748 0.359794 0.498583 0.863484
C53   C     C_R   0.861651 0.641629 0.501735 0.788714
C54   C     C_R   0.140274 0.360512 0.498662 0.867254
C55   C     C_R   0.860788 0.360572 0.222068 0.856780
C56   C     C_R   0.138093 0.635429 0.777495 0.823317
N1    N     N_R   0.319806 0.640289 0.901070 0.238133
O27   O     O_R   0.402820 0.683021 0.949351 -0.344655
O28   O     O_R   0.287846 0.555286 0.828285 -0.284242
N2    N     N_R   0.769275 0.875210 0.392285 0.223918
O29   O     O_R   0.688169 0.827754 0.310832 -0.305326
O30   O     O_R   0.818046 0.930333 0.396616 -0.270531
N3    N     N_R   0.433716 0.763689 0.594232 0.241122
O31   O     O_R   0.453532 0.722243 0.528393 -0.345015
O32   O     O_R   0.491759 0.793215 0.689570 -0.407750
O33   O     O_3   0.332478 0.692750 0.630059 -0.615616
C57   C     C_3   0.360152 0.760778 0.731167 0.074250
H10   H     H_    0.301929 0.764423 0.735250 0.146965
H11   H     H_    0.394265 0.827227 0.756838 0.152821
C58   C     C_3   0.424927 0.739956 0.805342 -0.261170
H12   H     H_    0.388778 0.680489 0.790408 0.258748
H13   H     H_    0.477730 0.724771 0.792760 0.253759
C59   C     C_3   0.468447 0.818669 0.917029 -0.851885
H14   H     H_    0.507348 0.878000 0.934251 0.244657
H15   H     H_    0.514518 0.801390 0.969007 0.311491
H16   H     H_    0.417156 0.835143 0.932028 0.257201
N4    N     N_R   0.062257 0.604275 0.263919 0.249034
O34   O     O_R   0.008356 0.573094 0.167369 -0.303977
O35   O     O_R   0.097808 0.551896 0.288106 -0.395267
N5    N     N_R   0.168543 0.717253 0.272795 0.238472
O36   O     O_R   0.154125 0.738929 0.210772 -0.318591
O37   O     O_R   0.210301 0.660141 0.273896 -0.307582
N6    N     N_R   0.109233 0.832714 0.342810 0.196443
O38   O     O_R   0.156298 0.916314 0.417423 -0.393991
O39   O     O_R   0.031095 0.812361 0.263821 -0.339377
N7    N     N_R   0.434172 0.332960 0.669134 0.253137
O40   O     O_R   0.500904 0.349284 0.666141 -0.278607
O41   O     O_R   0.446532 0.371803 0.757980 -0.243564
O42   O     O_3   0.333850 0.438892 0.640121 -0.545041
C60   C     C_3   0.343256 0.474559 0.591323 0.112285
H17   H     H_    0.339105 0.542698 0.627411 0.221042
H18   H     H_    0.288986 0.436879 0.507539 0.100612
C61   C     C_3   0.433427 0.480968 0.606968 -0.365760
H19   H     H_    0.487057 0.513157 0.689504 0.299160
H20   H     H_    0.434158 0.412830 0.560758 0.257285
C62   C     C_3   0.451231 0.534934 0.572742 -0.749211
H21   H     H_    0.397986 0.504422 0.490557 0.261126
H22   H     H_    0.515800 0.536019 0.582269 0.300869
H23   H     H_    0.454463 0.604675 0.620176 0.297310
N8    N     N_R   0.136016 0.698310 0.930527 0.211091
O43   O     O_R   0.085709 0.745608 0.913550 -0.398267
O44   O     O_R   0.132489 0.664806 0.976782 -0.289062
O45   O     O_3   0.034576 0.141623 0.241652 -0.654362
C63   C     C_3   0.086282 0.179550 0.224495 0.188581
H24   H     H_    0.071159 0.127479 0.147890 0.159781
H25   H     H_    0.159328 0.201927 0.280264 0.159502
C64   C     C_3   0.058836 0.257324 0.222013 -0.411070
H26   H     H_    0.986663 0.233241 0.161184 0.212410
H27   H     H_    0.071199 0.309424 0.296925 0.223631
C65   C     C_3   0.110335 0.298809 0.200407 -0.911888
H28   H     H_    0.182605 0.326074 0.262089 0.269321
H29   H     H_    0.087863 0.354095 0.197896 0.295260
H30   H     H_    0.098415 0.248207 0.125146 0.263835
O46   O     O_3   0.149638 0.042360 0.247368 -0.618484
C66   C     C_3   0.075328 0.964853 0.158946 0.044206
H31   H     H_    0.059226 0.962002 0.090672 0.172679
H32   H     H_    0.014293 0.965428 0.157963 0.150565
C67   C     C_3   0.097077 0.881035 0.147669 -0.323000
H33   H     H_    0.148712 0.873627 0.132175 0.255226
H34   H     H_    0.123698 0.887349 0.220269 0.277910
C68   C     C_3   0.014239 0.798160 0.059874 -0.613387
H35   H     H_    0.964090 0.802148 0.077338 0.260271
H36   H     H_    0.031853 0.737563 0.049553 0.332147
H37   H     H_    0.984624 0.792010 0.986897 0.266644
O47   O     O_3   0.630053 0.079176 0.892799 -0.603833
C69   C     C_3   0.547806 0.090762 0.873364 0.135776
H38   H     H_    0.521826 0.116746 0.825347 0.129047
H39   H     H_    0.555119 0.138356 0.946837 0.148600
C70   C     C_3   0.479966 0.000962 0.815028 -0.328464
H40   H     H_    0.472097 0.954011 0.741474 0.263680
H41   H     H_    0.504380 0.973309 0.861076 0.230707
C71   C     C_3   0.389742 0.009807 0.792015 -0.977619
H42   H     H_    0.395340 0.054291 0.864761 0.283590
H43   H     H_    0.341096 0.943287 0.747177 0.250167
H44   H     H_    0.364470 0.037403 0.745921 0.283579
O48   O     O_3   0.753635 0.175179 0.103258 -0.641845
C72   C     C_3   0.799298 0.112719 0.089305 0.125026
H45   H     H_    0.871714 0.148547 0.148683 0.191994
H46   H     H_    0.787250 0.075135 0.012066 0.155597
C73   C     C_3   0.769290 0.045126 0.102057 -0.323871
H47   H     H_    0.787049 0.080078 0.181313 0.263637
H48   H     H_    0.695974 0.012729 0.046717 0.237571
C74   C     C_3   0.813262 0.973503 0.083376 -0.865776
H49   H     H_    0.797373 0.937355 0.004735 0.272033
H50   H     H_    0.788611 0.924823 0.091408 0.289152
H51   H     H_    0.886266 0.004360 0.140765 0.270831
N9    N     N_R   0.800851 0.491065 0.110595 0.270822
O49   O     O_R   0.831374 0.566346 0.128970 -0.230943
O50   O     O_R   0.745868 0.484150 0.133379 -0.284347
N10   N     N_R   0.695195 0.388402 0.900970 0.264368
O51   O     O_R   0.710802 0.455852 0.898664 -0.221571
O52   O     O_R   0.615215 0.351270 0.867665 -0.295749
O53   O     O_3   0.816246 0.344573 0.898912 -0.625487
C75   C     C_3   0.863837 0.284573 0.903014 0.011702
H52   H     H_    0.816842 0.215341 0.850303 0.145312
H53   H     H_    0.907324 0.302588 0.982507 0.139359
C76   C     C_3   0.921945 0.287806 0.867123 -0.243054
H54   H     H_    0.879251 0.269333 0.787410 0.242419
H55   H     H_    0.968930 0.356791 0.918057 0.280976
C77   C     C_3   0.974587 0.223797 0.869062 -0.827631
H56   H     H_    0.019233 0.242188 0.948503 0.249934
H57   H     H_    0.015635 0.227316 0.842002 0.292729
H58   H     H_    0.928772 0.154242 0.817620 0.295174
N11   N     N_R   0.370249 0.684760 0.106764 0.254181
O54   O     O_R   0.391105 0.618015 0.057907 -0.246349
O55   O     O_R   0.382720 0.702479 0.190856 -0.348191
O56   O     O_3   0.759148 0.171769 0.330332 -0.623277
C78   C     C_3   0.685955 0.176184 0.254442 0.072789
H59   H     H_    0.707928 0.187182 0.213760 0.230611
H60   H     H_    0.663447 0.233717 0.286314 0.125358
C79   C     C_3   0.607848 0.088506 0.177016 -0.367642
H61   H     H_    0.631884 0.031069 0.151912 0.245537
H62   H     H_    0.577339 0.082745 0.213616 0.221338
C80   C     C_3   0.536792 0.084330 0.083040 -0.947352
H63   H     H_    0.512564 0.141875 0.106200 0.279159
H64   H     H_    0.479804 0.021696 0.029837 0.266858
H65   H     H_    0.564746 0.085312 0.042340 0.275911
N12   N     N_R   0.895466 0.461404 0.750033 0.204049
O57   O     O_R   0.941083 0.543136 0.796411 -0.249865
O58   O     O_R   0.935983 0.412272 0.776813 -0.396574
N13   N     N_R   0.765888 0.488376 0.645374 0.240614
O59   O     O_R   0.725959 0.473096 0.555100 -0.387634
O60   O     O_R   0.771831 0.561652 0.719620 -0.295504
N14   N     N_R   0.658486 0.383339 0.643716 0.269773
O61   O     O_R   0.584195 0.334088 0.552470 -0.359976
O62   O     O_R   0.659271 0.451493 0.717785 -0.248198
O63   O     O_3   0.947626 0.865291 0.595219 -0.616690
C81   C     C_3   0.018282 0.830648 0.606918 0.117116
H66   H     H_    0.064999 0.868648 0.606797 0.193427
H67   H     H_    0.996385 0.759093 0.545106 0.146370
C82   C     C_3   0.067232 0.843011 0.710129 -0.330652
H68   H     H_    0.093300 0.915196 0.773157 0.252951
H69   H     H_    0.020202 0.807784 0.712317 0.236774
C83   C     C_3   0.144217 0.806461 0.727481 -0.980936
H70   H     H_    0.118688 0.733365 0.668506 0.247061
H71   H     H_    0.180367 0.819352 0.804532 0.267052
H72   H     H_    0.191134 0.839473 0.723426 0.248256
N15   N     N_R   0.891558 0.788463 0.414835 0.179952
O64   O     O_R   0.857614 0.705246 0.336670 -0.295968
O65   O     O_R   0.946057 0.844795 0.426512 -0.320878
N16   N     N_R   0.832906 0.957195 0.576005 0.207444
O66   O     O_R   0.825820 0.027627 0.576038 -0.360554
O67   O     O_R   0.858280 0.963524 0.659422 -0.397826

loop_
_geom_bond_atom_site_label_1
_geom_bond_atom_site_label_2
_geom_bond_distance
_ccdc_geom_bond_type
C27   C34   1.498695 S    
O11   C4    1.285170 A    
C77   H56   1.110944 S    
N16   O67   1.302626 A    
N9    O49   1.300252 A    
O15   C51   1.273713 A    
O8    C5    1.283670 A    
C21   C22   1.409116 A    
C15   C16   1.400657 A    
C63   H24   1.110757 S    
C23   C24   1.393140 A    
N13   O59   1.302031 A    
N7    O40   1.299837 A    
C67   H33   1.111265 S    
N5    O36   1.300311 A    
C71   H43   1.109804 S    
C32   C33   1.493626 S    
O6    C5    1.282010 A    
C80   H65   1.107369 S    
C77   H57   1.110307 S    
C11   C16   1.383944 A    
Zn5   O22   1.926579 S    
C9    C10   1.355127 D    
O4    C3    1.272095 A    
O22   C56   1.275336 A    
Zn1   O1    1.946140 S    
C10   H1    1.085594 S    
C16   C17   1.518578 S    
C63   H25   1.110109 S    
C22   O33   1.384050 S    
C7    C9    1.488646 S    
Zn7   O26   1.947263 S    
Zn8   O20   1.923627 S    
C45   H8    1.083047 S    
C73   H48   1.111858 S    
O56   C78   1.418185 S    
O17   C53   1.278844 A    
C12   C13   1.404542 A    
Zn8   O14   1.952078 S    
C62   H23   1.109900 S    
C79   H62   1.109848 S    
N5    O37   1.302542 A    
N3    O31   1.301366 A    
Zn5   O16   1.946028 S    
N8    O43   1.301316 A    
C49   N13   1.472166 S    
C31   C54   1.444743 S    
C23   C51   1.456667 S    
N16   O66   1.301571 A    
O9    C6    1.271303 A    
C45   C46   1.407257 A    
N15   O64   1.301448 A    
C48   C49   1.497647 S    
O7    C6    1.285825 A    
C75   H53   1.112632 S    
C57   H10   1.111095 S    
Zn3   O8    1.922920 S    
N2    O29   1.302150 A    
C66   C67   1.528929 S    
O13   C2    1.279877 A    
C39   C55   1.464589 S    
C47   C52   1.452547 S    
C8    C56   1.470353 S    
O46   C66   1.416170 S    
Zn8   O24   1.939521 S    
N14   O61   1.302239 A    
C72   H46   1.116398 S    
C76   H54   1.112046 S    
N10   O52   1.301544 A    
C64   C65   1.525486 S    
C11   C18   1.502579 S    
C60   C61   1.530797 S    
N6    O39   1.301084 A    
C13   C14   1.398590 A    
Zn3   O13   1.940355 S    
C43   C48   1.354408 A    
C6    C10   1.443273 S    
C65   H29   1.110670 S    
C11   C12   1.398235 A    
Zn2   O12   1.943662 S    
O20   C56   1.293343 A    
C72   C73   1.527931 S    
C33   O45   1.429963 S    
C42   O53   1.428825 S    
Zn6   O19   1.922966 S    
C36   C37   1.418345 A    
O26   C52   1.273717 A    
C7    N1    1.438866 S    
C83   H70   1.109658 S    
C66   H32   1.115077 S    
C69   H39   1.114125 S    
C68   H35   1.110795 S    
C8    N8    1.444321 S    
C82   H69   1.111773 S    
C61   C62   1.526298 S    
O25   C51   1.286177 A    
Zn7   O21   1.927156 S    
C67   H34   1.109997 S    
N4    O35   1.301326 A    
C29   C30   1.407713 A    
C71   H44   1.110875 S    
C42   N10   1.466824 S    
C17   O63   1.425003 S    
C25   H4    1.112111 S    
C27   C32   1.352281 A    
O2    C1    1.282069 A    
C77   H58   1.110691 S    
C33   H5    1.111480 S    
Zn5   O23   1.943108 S    
C17   N15   1.474683 S    
C49   C50   1.555356 S    
N11   O54   1.301370 A    
C69   H38   1.114580 S    
O10   C3    1.275056 A    
C63   C64   1.530728 S    
C7    C8    1.359597 D    
C47   C48   1.388302 A    
Zn8   O15   1.947264 S    
C21   N3    1.438423 S    
C73   C74   1.524762 S    
C5    C36   1.459252 S    
Zn7   O14   1.943880 S    
C79   H61   1.111413 S    
C44   C45   1.407111 A    
Zn6   O25   1.947408 S    
C35   C36   1.387342 A    
C15   C53   1.452648 S    
C79   C80   1.523576 S    
O63   C81   1.413903 S    
C26   N6    1.467301 S    
C43   C44   1.389374 A    
C58   H13   1.111384 S    
C37   C38   1.423300 A    
C65   H30   1.110801 S    
C82   C83   1.524042 S    
C41   H7    1.109077 S    
C17   C18   1.548802 S    
C75   C76   1.526933 S    
C50   H9    1.111883 S    
C78   H59   1.105491 S    
C18   N2    1.473101 S    
Zn3   O5    1.947513 S    
C29   N7    1.434217 S    
Zn6   O17   1.940254 S    
N12   O57   1.301130 A    
C35   C42   1.509599 S    
C75   H52   1.111540 S    
C49   N12   1.468818 S    
Zn5   O14   1.946138 S    
C62   H21   1.110947 S    
C46   O56   1.379770 S    
O16   C52   1.276523 A    
C39   C40   1.388281 A    
N1    O28   1.301731 A    
C14   H3    1.083338 S    
C73   H47   1.109430 S    
N2    O30   1.301352 A    
C37   O47   1.383423 S    
C31   C32   1.380211 A    
O24   C54   1.267067 A    
Zn4   O7    1.923672 S    
O23   C53   1.279215 A    
C57   C58   1.528080 S    
C58   H12   1.110765 S    
C74   H49   1.110808 S    
C19   C26   1.506615 S    
C25   N4    1.467972 S    
Zn4   O2    1.939374 S    
C20   C21   1.421143 A    
C78   H60   1.118332 S    
N10   O51   1.300536 A    
O3    C2    1.277380 A    
C83   H71   1.110425 S    
C66   H31   1.110879 S    
C69   C70   1.525755 S    
C64   H27   1.108934 S    
C26   N5    1.474752 S    
Zn2   O1    1.943727 S    
C43   C50   1.500468 S    
C82   H68   1.111637 S    
C74   H50   1.110348 S    
C70   H40   1.108339 S    
Zn2   O6    1.927110 S    
Zn7   O18   1.943661 S    
C67   C68   1.527750 S    
C72   H45   1.110061 S    
C61   H20   1.109975 S    
C60   H18   1.117247 S    
O45   C63   1.421137 S    
C35   C40   1.357665 A    
N8    O44   1.301879 A    
C33   C34   1.553897 S    
O47   C69   1.414664 S    
N9    O50   1.302306 A    
N14   O62   1.300135 A    
Zn1   O3    1.943213 S    
C3    C44   1.445082 S    
C13   H2    1.083255 S    
Zn2   O4    1.947263 S    
C24   C25   1.504661 S    
C70   H41   1.110621 S    
O53   C75   1.415724 S    
Zn3   O1    1.951636 S    
C9    N11   1.450940 S    
N13   O60   1.301254 A    
C41   N9    1.467031 S    
C30   O42   1.386611 S    
C70   C71   1.526929 S    
C38   O48   1.382146 S    
C19   C24   1.374904 A    
O48   C72   1.416221 S    
C80   H64   1.110051 S    
C18   N16   1.476298 S    
C64   H26   1.111476 S    
C59   H16   1.111099 S    
C76   C77   1.525971 S    
C41   C42   1.556615 S    
C58   C59   1.526884 S    
Zn4   O11   1.947259 S    
C34   H6    1.114198 S    
C80   H63   1.110719 S    
C30   C31   1.424296 A    
N12   O58   1.301941 A    
C71   H42   1.110725 S    
O33   C57   1.415165 S    
C62   H22   1.110508 S    
Zn6   O14   1.951636 S    
O5    C4    1.274810 A    
C60   H17   1.108778 S    
C4    C20   1.456409 S    
N3    O32   1.300380 A    
C74   H51   1.108447 S    
N6    O38   1.301716 A    
C27   C28   1.389630 A    
Zn4   O1    1.952080 S    
C68   H36   1.108976 S    
N1    O27   1.300588 A    
C14   C15   1.407773 A    
C59   H15   1.110045 S    
C59   H14   1.110813 S    
O42   C60   1.420933 S    
C81   C82   1.527933 S    
C68   H37   1.110443 S    
C38   C39   1.424932 A    
O19   C55   1.288658 A    
C57   H11   1.112671 S    
O18   C54   1.284434 A    
C81   H67   1.107416 S    
C40   C41   1.496753 S    
C19   C20   1.394346 A    
C25   C26   1.539761 S    
Zn1   O9    1.926579 S    
C34   O46   1.413822 S    
C78   C79   1.533884 S    
C46   C47   1.421241 A    
O12   C1    1.271273 A    
C28   C29   1.426057 A    
C22   C23   1.421000 A    
C83   H72   1.110830 S    
C81   H66   1.111633 S    
N11   O55   1.302080 A    
N4    O34   1.300519 A    
C61   H19   1.111549 S    
Zn1   O10   1.946131 S    
N15   O65   1.301292 A    
C65   H28   1.111040 S    
C2    C12   1.452755 S    
C50   N14   1.466141 S    
C76   H55   1.111698 S    
O21   C55   1.280481 A    
C1    C28   1.447233 S    
N7    O41   1.300719 A    
