data_mof_unit_39805.cif
_audit_creation_date              2012-12-11T14:45:51-0500
_audit_creation_method            fapswitch 2.2
_symmetry_space_group_name_H-M    P1
_symmetry_Int_Tables_number       1
_space_group_crystal_system       triclinic
_cell_length_a                    10.919506
_cell_length_b                    10.959287
_cell_length_c                    18.798545
_cell_angle_alpha                 89.806938
_cell_angle_beta                  90.148361
_cell_angle_gamma                 119.641049
_cell_volume                      1955.22602067

loop_
_atom_site_label
_atom_site_type_symbol
_atom_type_description
_atom_site_fract_x
_atom_site_fract_y
_atom_site_fract_z
_atom_type_partial_charge
Br1   Br    Br    0.097555 0.456035 0.134101 -0.424741
Br2   Br    Br    0.188109 0.815100 0.848340 -0.479748
Br3   Br    Br    0.089187 0.110878 0.174608 -0.318135
Br4   Br    Br    0.053376 0.091800 0.349020 -0.385633
Br5   Br    Br    0.125611 0.807163 0.149962 -0.387608
Br6   Br    Br    0.497464 0.541195 0.651009 -0.529015
Br7   Br    Br    0.126777 0.326198 0.913504 -0.403186
Br8   Br    Br    0.072101 0.078106 0.586751 -0.458369
C1    C     C_R   0.867976 0.634933 0.605023 0.573540
C2    C     C_R   0.958959 0.161640 0.709724 -0.027157
C3    C     C_R   0.962234 0.185160 0.784689 -0.030285
C4    C     C_R   0.270535 0.632322 0.603621 0.566234
C5    C     C_R   0.713796 0.106843 0.705375 -0.006659
C6    C     C_R   0.720147 0.142485 0.777442 -0.006242
C7    C     C_R   0.584426 0.052663 0.668377 -0.067333
C8    C     C_R   0.471083 0.058601 0.698191 -0.100208
C9    C     C_R   0.484798 0.116631 0.765234 -0.096727
C10   C     C_R   0.607881 0.159301 0.804311 -0.070665
C11   C     C_R   0.839423 0.141996 0.669490 -0.019024
C12   C     C_R   0.433037 0.637876 0.777724 -0.134078
C13   C     C_R   0.794486 0.528123 0.723535 -0.096799
C14   C     C_R   0.780383 0.541598 0.796055 -0.114749
C15   C     C_R   0.804660 0.670193 0.822259 0.056300
C16   C     C_R   0.860633 0.220314 0.601244 0.555747
C17   C     C_R   0.835078 0.782682 0.776185 -0.104002
C18   C     C_R   0.848635 0.769234 0.704147 -0.096580
C19   C     C_R   0.831565 0.643374 0.677836 0.065608
C20   C     C_R   0.207585 0.561272 0.273363 -0.089950
C21   C     C_R   0.233626 0.581268 0.200985 0.173475
C22   C     C_R   0.356257 0.698621 0.177484 0.069682
C23   C     C_R   0.410402 0.625597 0.705380 0.134358
C24   C     C_R   0.448730 0.800419 0.225791 -0.139574
C25   C     C_R   0.421492 0.781502 0.298297 -0.139049
C26   C     C_R   0.303423 0.659524 0.321871 0.004292
C27   C     C_R   0.758006 0.211179 0.280376 -0.181520
C28   C     C_R   0.870064 0.636554 0.395554 0.559860
C29   C     C_R   0.757822 0.198985 0.208277 -0.161134
C30   C     C_R   0.843972 0.154882 0.175869 0.029493
C31   C     C_R   0.941464 0.134405 0.217146 0.183768
C32   C     C_R   0.938140 0.142345 0.291424 0.149049
C33   C     C_R   0.846876 0.182940 0.322777 -0.012166
C34   C     C_R   0.321751 0.670215 0.675521 0.005226
C35   C     C_R   0.967147 0.710260 0.276919 -0.072690
C36   C     C_R   0.953855 0.711776 0.204090 0.185616
C37   C     C_R   0.818124 0.649721 0.173947 0.037002
C38   C     C_R   0.698564 0.573644 0.217160 -0.169137
C39   C     C_R   0.713440 0.570579 0.290379 -0.153653
C40   C     C_R   0.270134 0.633327 0.396273 0.533624
C41   C     C_R   0.847536 0.644594 0.320418 0.003626
C42   C     C_R   0.806131 0.103812 0.894115 0.574648
C43   C     C_R   0.398676 0.702321 0.895807 0.615950
C44   C     C_R   0.796280 0.692878 0.896884 0.555011
C45   C     C_R   0.837345 0.160702 0.819686 -0.015936
C46   C     C_R   0.807656 0.105018 0.103122 0.593197
C47   C     C_R   0.400433 0.707197 0.104698 0.610440
C48   C     C_R   0.798727 0.692440 0.103617 0.570521
C49   C     C_R   0.861850 0.228619 0.396009 0.568576
C50   C     C_R   0.259229 0.729414 0.718655 -0.146623
C51   C     C_R   0.281925 0.741287 0.791472 0.135479
C52   C     C_R   0.366657 0.692106 0.821079 0.031061
C53   C     C_R   0.092752 0.239359 0.821302 0.171521
C54   C     C_R   0.210266 0.249774 0.786752 -0.101082
C55   C     C_R   0.200599 0.205234 0.716918 -0.088827
C56   C     C_R   0.076774 0.160310 0.678083 0.170077
Cr1   Cr    Cr6+3 0.791660 0.390250 0.499930 1.060768
Cr2   Cr    Cr6+3 0.098520 0.708290 0.500540 1.077912
Cr3   Cr    Cr6+3 0.109770 0.401430 0.499480 1.139550
Cr4   Cr    Cr6+3 0.874790 0.925890 0.000070 1.159006
Cr5   Cr    Cr6+3 0.574120 0.948670 0.999300 1.090753
Cr6   Cr    Cr6+3 0.551420 0.625320 0.000920 1.081409
H1    H     H_    0.374461 0.022650 0.668295 0.138725
H2    H     H_    0.593104 0.524597 0.195106 0.166058
H3    H     H_    0.620902 0.514165 0.323503 0.155115
H4    H     H_    0.502319 0.603451 0.800317 0.157937
H5    H     H_    0.291133 0.207423 0.692322 0.164585
H6    H     H_    0.615011 0.209650 0.854653 0.148320
H7    H     H_    0.187031 0.760453 0.696439 0.165849
H8    H     H_    0.782407 0.430122 0.703565 0.143961
H9    H     H_    0.756339 0.455091 0.831753 0.115661
H10   H     H_    0.872403 0.856247 0.669143 0.166542
H11   H     H_    0.685624 0.220093 0.178045 0.175856
H12   H     H_    0.573665 0.012275 0.614817 0.139010
H13   H     H_    0.310124 0.292367 0.814403 0.147093
H14   H     H_    0.399359 0.126983 0.787613 0.140992
H15   H     H_    0.849113 0.881333 0.796258 0.127476
H16   H     H_    0.112030 0.470268 0.291874 0.142704
H17   H     H_    0.544696 0.891129 0.207530 0.129071
H18   H     H_    0.493770 0.858775 0.335684 0.133842
H19   H     H_    0.690106 0.247509 0.302421 0.173235
H20   H     H_    0.072282 0.759730 0.299465 0.176633
O1    O     O_R   0.766500 0.250040 0.579790 -0.524115
O2    O     O_R   0.413330 0.603360 0.920440 -0.483672
O3    O     O_R   0.676110 0.626250 0.926750 -0.525008
O4    O     O_R   0.798570 0.516780 0.574780 -0.480526
O5    O     O_R   0.895350 0.809870 0.080950 -0.432054
O6    O     O_R   0.872490 0.049760 0.073800 -0.440084
O7    O     O_R   0.691680 0.088070 0.079070 -0.527612
O8    O     O_R   0.451720 0.825250 0.074050 -0.481925
O9    O     O_R   0.413580 0.606370 0.080960 -0.465991
O10   O     O_R   0.676340 0.629040 0.075550 -0.522502
O11   O     O_3   0.666780 0.833290 0.000090 -0.315338
O12   O     O_R   0.218690 0.701900 0.425960 -0.504093
O13   O     O_R   0.984000 0.732950 0.581090 -0.488110
O14   O     O_R   0.218600 0.700890 0.574760 -0.527418
O15   O     O_R   0.249390 0.515350 0.579940 -0.443508
O16   O     O_R   0.982790 0.280900 0.573700 -0.452392
O17   O     O_R   0.766600 0.251130 0.419260 -0.530577
O18   O     O_R   0.798660 0.517790 0.425980 -0.502817
O19   O     O_R   0.984100 0.734040 0.420570 -0.473538
O20   O     O_R   0.249490 0.516440 0.419420 -0.484402
O21   O     O_R   0.982880 0.281910 0.424890 -0.450202
O22   O     O_3   0.999980 0.499990 0.499980 -0.295242
O23   O     O_R   0.895110 0.806860 0.920430 -0.462401
O24   O     O_R   0.872260 0.046970 0.925000 -0.465381
O25   O     O_R   0.691430 0.085060 0.918550 -0.526421
O26   O     O_R   0.451490 0.822460 0.925250 -0.467435

loop_
_geom_bond_atom_site_label_1
_geom_bond_atom_site_label_2
_ccdc_geom_bond_type
C48   O5    A    
C40   O20   A    
C54   H13   S    
Cr5   O26   S    
C32   C33   A    
C23   C34   A    
C28   O18   A    
C6    C10   A    
C34   C50   A    
Cr6   O11   S    
C39   C41   A    
C49   O21   A    
C37   C38   A    
C36   C37   A    
C18   C19   A    
C21   C22   A    
C20   C21   A    
C27   C29   A    
C25   H18   S    
C14   H9    S    
C4    O14   A    
C30   C31   A    
C35   H20   S    
C7    C8    A    
C42   O25   A    
Cr2   O12   S    
Br7   C53   S    
C4    C34   S    
C50   H7    S    
Br4   C32   S    
C37   C48   S    
C8    C9    A    
C13   H8    S    
C46   O7    A    
C12   C52   A    
Cr1   O18   S    
C46   O6    A    
C3    C45   A    
Cr4   O23   S    
Cr5   O8    S    
Br6   C23   S    
C13   C19   A    
C20   C26   A    
C51   C52   A    
C13   C14   A    
C29   H11   S    
C8    H1    S    
Br1   C21   S    
Cr6   O10   S    
C9    C10   A    
C7    H12   S    
Cr6   O2    S    
Cr4   O5    S    
C5    C11   A    
C42   C45   S    
Cr2   O14   S    
Cr6   O3    S    
Cr4   O11   S    
C39   H3    S    
C31   C32   A    
Br2   C51   S    
C35   C41   A    
C50   C51   A    
C44   O23   A    
C24   H17   S    
C18   H10   S    
C42   O24   A    
C35   C36   A    
Cr1   O22   S    
C29   C30   A    
C43   O2    A    
Cr3   O20   S    
C30   C46   S    
C2    C11   A    
C1    O13   A    
C40   O12   A    
C54   C55   A    
C17   H15   S    
C25   C26   A    
C12   H4    S    
C44   O3    A    
Cr4   O6    S    
Br8   C56   S    
C27   H19   S    
Cr3   O21   S    
Cr1   O4    S    
C49   O17   A    
Br5   C36   S    
C5    C7    A    
C20   H16   S    
C16   O16   A    
C48   O10   A    
C16   O1    A    
Cr6   O9    S    
C1    C19   S    
Cr1   O1    S    
C38   C39   A    
Cr5   O25   S    
C10   H6    S    
C38   H2    S    
Cr2   O13   S    
C2    C56   A    
C3    C53   A    
Cr3   O16   S    
Cr5   O11   S    
C22   C47   S    
C43   O26   A    
C9    H14   S    
C24   C25   A    
C11   C16   S    
C17   C18   A    
C33   C49   S    
C22   C24   A    
C15   C44   S    
C4    O15   A    
C55   H5    S    
C47   O8    A    
C15   C17   A    
Cr2   O19   S    
C53   C54   A    
C27   C33   A    
C2    C3    A    
Br3   C31   S    
C55   C56   A    
Cr3   O22   S    
C6    C45   A    
C26   C40   S    
Cr3   O15   S    
C47   O9    A    
C28   O19   A    
C14   C15   A    
C43   C52   S    
Cr2   O22   S    
C5    C6    A    
C1    O4    A    
Cr1   O17   S    
C28   C41   S    
Cr4   O24   S    
C12   C23   A    
Cr5   O7    S    
