data_mof_unit_51495.cif
_audit_creation_date              2013-03-05T15:42:08-0500
_audit_creation_method            fapswitch 2.2
_symmetry_space_group_name_H-M    P1
_symmetry_Int_Tables_number       1
_space_group_crystal_system       triclinic
_cell_length_a                    21.940524
_cell_length_b                    7.206469
_cell_length_c                    14.921771
_cell_angle_alpha                 90.108561
_cell_angle_beta                  107.235909
_cell_angle_gamma                 90.034505
_cell_volume                      2253.37970653

loop_
_atom_site_label
_atom_site_type_symbol
_atom_site_description
_atom_site_fract_x
_atom_site_fract_y
_atom_site_fract_z
_atom_type_partial_charge
O1    O     O_R   0.584770 0.505770 0.002090 -0.558100
O2    O     O_R   0.415230 0.005770 0.997910 -0.547833
O3    O     O_R   0.467060 0.173340 0.861950 -0.543421
O4    O     O_R   0.532940 0.673340 0.138050 -0.550906
C1    C     C_R   0.455351 0.343875 0.825800 0.817125
C2    C     C_R   0.544694 0.844733 0.174141 0.813818
O5    O     O_R   0.587510 0.175890 0.993210 -0.553954
O6    O     O_R   0.412490 0.675890 0.006790 -0.562021
O7    O     O_R   0.536540 0.008150 0.130100 -0.541321
O8    O     O_R   0.463460 0.508150 0.869900 -0.553329
C3    C     C_R   0.612978 0.344954 0.997490 0.844529
C4    C     C_R   0.387025 0.844904 0.002508 0.837669
O9    O     O_3   0.483140 0.340040 0.044760 -0.275297
O10   O     O_3   0.516860 0.840040 0.955240 -0.278032
V1    V     V_3+5 0.503130 0.064190 0.991700 1.213061
V2    V     V_3+5 0.496870 0.564190 0.008300 1.198158
C5    C     C_2   0.213948 0.727550 0.003273 -0.072681
C6    C     C_2   0.786033 0.227309 0.996959 -0.061808
C7    C     C_2   0.180313 0.886731 0.996129 -0.186774
C8    C     C_2   0.819690 0.386554 0.003869 -0.195799
H1    H     H_    0.190820 0.596766 0.009108 0.109415
H2    H     H_    0.809145 0.096420 0.991357 0.107054
H3    H     H_    0.201885 0.018949 0.989131 0.092124
H4    H     H_    0.798129 0.518861 0.010668 0.080808
C9    C     C_2   0.281831 0.714496 0.002994 -0.066277
C10   C     C_2   0.718142 0.214425 0.997235 -0.023616
C11   C     C_2   0.319924 0.861379 0.003436 -0.152194
C12   C     C_2   0.680073 0.361389 0.996507 -0.161883
H5    H     H_    0.300962 0.575496 0.003168 0.116395
H6    H     H_    0.698996 0.075458 0.997374 0.118745
H7    H     H_    0.302068 0.001224 0.004168 0.097911
H8    H     H_    0.697936 0.501197 0.995489 0.076660
C13   C     C_R   0.925516 0.888977 0.723793 -0.071872
C14   C     C_R   0.074570 0.385050 0.276064 -0.071173
C15   C     C_R   0.571683 0.857218 0.275955 -0.080851
C16   C     C_R   0.428500 0.346913 0.723737 -0.082863
C17   C     C_R   0.934656 0.925131 0.567625 -0.062824
C18   C     C_R   0.064764 0.358190 0.432236 -0.062407
C19   C     C_R   0.963247 0.909738 0.663904 -0.094318
C20   C     C_R   0.036561 0.379153 0.336129 -0.095294
C21   C     C_R   0.858976 0.882482 0.687323 -0.091622
C22   C     C_R   0.140999 0.372715 0.312162 -0.089729
C23   C     C_R   0.828483 0.904329 0.589908 0.065011
C24   C     C_R   0.170991 0.348963 0.409556 0.064918
C25   C     C_R   0.867862 0.924459 0.530354 0.021059
C26   C     C_R   0.131342 0.341999 0.469237 0.020974
C27   C     C_R   0.760597 0.909375 0.549946 -0.051673
C28   C     C_R   0.238613 0.331210 0.449468 -0.051334
C29   C     C_R   0.733510 0.919066 0.450429 0.003765
C30   C     C_R   0.265500 0.320159 0.549002 0.003242
C31   C     C_R   0.774738 0.960752 0.395072 0.260678
C32   C     C_R   0.223417 0.289855 0.604335 0.260608
C33   C     C_R   0.840616 0.955420 0.434791 -0.088230
C34   C     C_R   0.157836 0.308796 0.564735 -0.086579
C35   C     C_R   0.719040 0.912821 0.606453 -0.117539
C36   C     C_R   0.279950 0.317693 0.392901 -0.118129
C37   C     C_R   0.652780 0.918102 0.567971 0.343746
C38   C     C_R   0.345924 0.300186 0.431281 0.342192
C39   C     C_R   0.625678 0.909351 0.469923 -0.037895
C40   C     C_R   0.373194 0.305692 0.529311 -0.036454
C41   C     C_R   0.666145 0.896509 0.411247 0.029829
C42   C     C_R   0.333267 0.329604 0.588151 0.028796
C43   C     C_R   0.558883 0.914867 0.428658 0.007901
C44   C     C_R   0.439585 0.284833 0.570392 0.006084
C45   C     C_R   0.532342 0.893285 0.332122 -0.057473
C46   C     C_R   0.466552 0.299799 0.667105 -0.061316
C47   C     C_R   0.637782 0.852373 0.315803 -0.039299
C48   C     C_R   0.362845 0.369499 0.683845 -0.041964
H9    H     H_    0.871028 0.985480 0.391041 0.112041
H10   H     H_    0.126826 0.288185 0.608555 0.111804
H11   H     H_    0.666350 0.810435 0.271559 0.117923
H12   H     H_    0.335577 0.418496 0.728565 0.120624
H13   H     H_    0.481073 0.902341 0.301384 0.115870
H14   H     H_    0.517250 0.276323 0.697758 0.122990
H15   H     H_    0.964824 0.942903 0.522366 0.070710
H16   H     H_    0.034354 0.351351 0.477666 0.070692
H17   H     H_    0.014745 0.917183 0.691905 0.072580
H18   H     H_    0.985085 0.387847 0.308425 0.070297
H19   H     H_    0.832750 0.862973 0.737275 0.050402
H20   H     H_    0.167483 0.382841 0.262037 0.049638
H21   H     H_    0.736602 0.916085 0.681852 0.113519
H22   H     H_    0.262382 0.316056 0.317511 0.114203
H23   H     H_    0.526660 0.939137 0.470012 0.136352
H24   H     H_    0.470979 0.251768 0.528808 0.136371
O11   O     O_R   0.036450 0.233070 0.130130 -0.555948
O12   O     O_R   0.963550 0.733070 0.869870 -0.556920
O13   O     O_R   0.912470 0.560570 0.006790 -0.559063
O14   O     O_R   0.087530 0.060570 0.993210 -0.557575
C49   C     C_R   0.886989 0.391854 0.002618 0.825800
C50   C     C_R   0.113012 0.891937 0.997392 0.824497
O15   O     O_R   0.032920 0.562940 0.138050 -0.558368
O16   O     O_R   0.967080 0.062940 0.861950 -0.557234
O17   O     O_R   0.084790 0.730500 0.002090 -0.558713
O18   O     O_R   0.915210 0.230500 0.997910 -0.558200
C51   C     C_R   0.045271 0.394540 0.174551 0.809688
C52   C     C_R   0.954748 0.894447 0.825439 0.809789
O19   O     O_3   0.016820 0.396170 0.955260 -0.282824
O20   O     O_3   0.983180 0.896170 0.044740 -0.283100
V3    V     V_3+5 0.996880 0.672090 0.008300 1.147805
V4    V     V_3+5 0.003120 0.172090 0.991700 1.149890
Br1   Br    Br    0.747831 0.076094 0.272870 -0.642585
Br2   Br    Br    0.247442 0.173249 0.726248 -0.640470
N1    N     N_R   0.613921 0.922496 0.630460 0.072392
O21   O     O_R   0.570812 0.795150 0.624649 -0.367128
O22   O     O_R   0.629378 0.031390 0.703423 -0.381792
N2    N     N_R   0.384581 0.286355 0.368773 0.073204
O23   O     O_R   0.430644 0.404347 0.375360 -0.367100
O24   O     O_R   0.366707 0.179090 0.295342 -0.378248

loop_
_geom_bond_atom_site_label_1
_geom_bond_atom_site_label_2
_geom_bond_distance
_ccdc_geom_bond_type
C43   C45   1.392920 A    
C22   H20   1.077094 S    
C14   C22   1.399070 A    
O2    C4    1.325217 A    
C2    O7    1.335766 A    
C27   C29   1.428516 A    
C18   H16   1.084085 S    
O5    C3    1.333584 A    
C32   Br2   1.931678 S    
C13   C19   1.394656 A    
C14   C20   1.394122 A    
C19   H17   1.083602 S    
C16   C46   1.394193 A    
C37   C39   1.407885 A    
N2    O23   1.301490 A    
C15   C45   1.393975 A    
C38   C40   1.407266 A    
C46   H14   1.083559 S    
C1    C16   1.461298 S    
O16   C52   1.324439 A    
C45   H13   1.083709 S    
C2    C15   1.460522 S    
C40   C42   1.422455 A    
C49   O18   1.329183 A    
C44   H24   1.081302 S    
C8    H4    1.082500 S    
C24   C26   1.418287 A    
C29   C31   1.426284 A    
C6    C10   1.493632 S    
C30   C32   1.426240 A    
C15   C47   1.395393 A    
C35   H21   1.076027 S    
O17   V3    2.002771 S    
C47   H11   1.079250 S    
C48   H12   1.078828 S    
C28   C30   1.428827 A    
C17   H15   1.084314 S    
C33   H9    1.084830 S    
O6    V2    2.013228 S    
C21   C23   1.417763 A    
C22   C24   1.417297 A    
C32   C34   1.390988 A    
O13   V3    2.012388 S    
C9    H5    1.086024 S    
C37   N1    1.438181 S    
C39   C41   1.422647 A    
C29   C41   1.428298 A    
C4    C11   1.481224 S    
C11   H7    1.082680 S    
C12   H8    1.082614 S    
C14   C51   1.461441 S    
O4    C2    1.340484 A    
O15   C51   1.325997 A    
C5    H1    1.085944 S    
C43   H23   1.081427 S    
C38   N2    1.437997 S    
C44   C46   1.391999 A    
O4    V2    2.019646 S    
C7    H3    1.082551 S    
O2    V1    2.002575 S    
C41   C47   1.410514 A    
C34   H10   1.084638 S    
O18   V4    2.003186 S    
O6    C4    1.334061 A    
C26   C34   1.391518 A    
N1    O22   1.301473 A    
O1    V2    2.002986 S    
O12   V3    2.025668 S    
C23   C25   1.418648 A    
O14   V4    2.013310 S    
O12   C52   1.325388 A    
O14   C50   1.331819 A    
C10   H6    1.086007 S    
O13   C49   1.331533 A    
C30   C42   1.428838 A    
C20   H18   1.083476 S    
C9    C11   1.347086 D    
C17   C25   1.404982 A    
C13   C52   1.461734 S    
O19   V4    1.758772 S    
O3    V1    2.022871 S    
O16   V4    2.019574 S    
C50   O17   1.329280 A    
C27   C35   1.413654 A    
C28   C36   1.413505 A    
C6    H2    1.085929 S    
C10   C12   1.347285 D    
O3    C1    1.337192 A    
C21   H19   1.077452 S    
C16   C48   1.395842 A    
C36   H22   1.075728 S    
C31   Br1   1.932057 S    
C8    C49   1.482684 S    
C39   C43   1.412040 A    
C42   C48   1.411324 A    
C40   C44   1.411250 A    
C13   C21   1.399534 A    
C35   C37   1.396477 A    
O7    V1    2.017863 S    
C5    C9    1.493660 S    
C1    O8    1.339250 A    
C17   C19   1.391552 A    
C7    C50   1.482798 S    
O8    V2    2.016118 S    
C18   C20   1.391896 A    
O11   C51   1.323489 A    
N2    O24   1.301426 A    
C3    C12   1.481179 S    
O5    V1    2.012298 S    
C5    C7    1.351570 D    
C36   C38   1.395842 A    
C6    C8    1.351416 D    
C18   C26   1.405275 A    
C25   C33   1.391669 A    
O20   V3    1.757212 S    
O9    V2    1.759516 S    
N1    O21   1.301685 A    
O11   V4    2.023780 S    
O10   V1    1.757955 S    
O1    C3    1.325360 A    
C31   C33   1.390826 A    
O15   V3    2.022802 S    
C23   C27   1.431497 A    
C24   C28   1.431507 A    
