data_mof_unit_34327.cif
_audit_creation_date              2012-12-10T16:37:34-0500
_audit_creation_method            fapswitch 2.2
_symmetry_space_group_name_H-M    P1
_symmetry_Int_Tables_number       1
_space_group_crystal_system       triclinic
_cell_length_a                    10.889397
_cell_length_b                    10.819754
_cell_length_c                    15.532342
_cell_angle_alpha                 96.610555
_cell_angle_beta                  75.175718
_cell_angle_gamma                 98.523367
_cell_volume                      1743.86502309

loop_
_atom_site_label
_atom_site_type_symbol
_atom_type_description
_atom_site_fract_x
_atom_site_fract_y
_atom_site_fract_z
_atom_type_partial_charge
C1    C     C_R   0.159158 0.479278 0.519005 0.828539
C2    C     C_R   0.538423 0.499970 0.115373 -0.265191
C3    C     C_R   0.604274 0.298629 0.124692 -0.196607
C4    C     C_R   0.841815 0.520612 0.480555 0.877437
C5    C     C_R   0.424998 0.577399 0.839834 -0.097150
C6    C     C_2   0.978071 0.528712 0.475899 -0.402760
C7    C     C_2   0.023778 0.465975 0.528860 -0.133445
C8    C     C_2   0.541875 0.967635 0.473923 -0.356927
C9    C     C_2   0.455508 0.035053 0.527438 -0.302160
C10   C     C_R   0.468287 0.167536 0.520380 0.852437
C11   C     C_R   0.529796 0.833577 0.480563 0.883599
C12   C     C_R   0.381724 0.730970 0.968206 0.063788
C13   C     C_R   0.555695 0.443333 0.259098 0.789257
C14   C     C_R   0.443704 0.551559 0.742116 0.786460
C15   C     C_R   0.595661 0.262373 0.037628 -0.192695
C16   C     C_R   0.574617 0.416762 0.163488 0.010979
C17   C     C_R   0.380821 0.690866 0.879546 -0.244694
C18   C     C_R   0.946757 0.373522 0.591217 0.156173
C19   C     C_R   0.903355 0.252952 0.558281 -0.097529
C20   C     C_R   0.828261 0.167127 0.617181 -0.119966
C21   C     C_R   0.797280 0.200678 0.709108 -0.108259
C22   C     C_R   0.841576 0.320006 0.742327 -0.127543
C23   C     C_R   0.432803 0.658299 0.016307 -0.243806
C24   C     C_R   0.916462 0.406236 0.683642 -0.141333
C25   C     C_R   0.329919 0.849346 0.010875 0.130439
C26   C     C_R   0.346761 0.955060 0.961919 -0.178610
C27   C     C_R   0.294318 0.064184 0.001971 -0.133475
C28   C     C_R   0.227040 0.070433 0.091507 -0.091476
C29   C     C_R   0.210243 0.966805 0.141004 -0.127936
C30   C     C_R   0.260491 0.856658 0.101007 -0.158779
C31   C     C_R   0.473401 0.540665 0.979881 0.067845
C32   C     C_R   0.461210 0.496773 0.892311 0.087133
C33   C     C_R   0.522357 0.463389 0.028488 0.089297
C34   C     C_R   0.552234 0.342226 0.990098 0.167167
C35   C     C_R   0.531503 0.298433 0.906786 -0.291843
C36   C     C_R   0.482826 0.372505 0.860060 -0.192817
H1    H     H_    0.629847 0.233083 0.162964 0.134763
H2    H     H_    0.043725 0.589596 0.428824 0.140286
H3    H     H_    0.926431 0.226327 0.487143 0.115757
H4    H     H_    0.793866 0.074736 0.591555 0.126011
H5    H     H_    0.739193 0.134115 0.754576 0.115670
H6    H     H_    0.817668 0.345773 0.813525 0.142721
H7    H     H_    0.949685 0.498692 0.709973 0.132463
H8    H     H_    0.400905 0.953911 0.892938 0.117725
H9    H     H_    0.305423 0.144011 0.963518 0.142796
H10   H     H_    0.187289 0.155345 0.122372 0.129329
H11   H     H_    0.157149 0.971352 0.210260 0.133292
H12   H     H_    0.621711 0.011837 0.425038 0.143795
H13   H     H_    0.243150 0.776629 0.140303 0.124084
H14   H     H_    0.374173 0.993188 0.576209 0.158743
H15   H     H_    0.548530 0.204181 0.878864 0.144706
H16   H     H_    0.617002 0.169499 0.008946 0.142130
H17   H     H_    0.516465 0.589059 0.150028 0.127952
H18   H     H_    0.346381 0.748986 0.840748 0.164591
H19   H     H_    0.438124 0.695932 0.082529 0.129829
H20   H     H_    0.457941 0.328108 0.799939 0.176885
O1    O     O_3   0.500000 0.500000 0.500000 -0.487395
O2    O     O_R   0.463530 0.379110 0.309170 -0.638169
O3    O     O_R   0.388210 0.611730 0.699360 -0.647210
O4    O     O_R   0.624720 0.532760 0.292120 -0.640595
O5    O     O_R   0.523540 0.476390 0.699360 -0.642756
O6    O     O_R   0.537910 0.240570 0.564270 -0.638279
O7    O     O_R   0.438950 0.782540 0.540270 -0.641807
O8    O     O_R   0.222350 0.398740 0.468260 -0.643180
O9    O     O_R   0.800790 0.578160 0.427210 -0.646708
O10   O     O_R   0.212140 0.566330 0.564260 -0.644105
O11   O     O_R   0.764730 0.456770 0.540270 -0.622366
O12   O     O_R   0.412790 0.208310 0.468260 -0.636721
O13   O     O_R   0.610350 0.768590 0.427210 -0.645672
Zn1   Zn    Zn3+2 0.580150 0.419820 0.574680 0.965233
Zn2   Zn    Zn3+2 0.401380 0.373730 0.437510 0.962526
Zn3   Zn    Zn3+2 0.631680 0.593260 0.413140 0.962143
Zn4   Zn    Zn3+2 0.386790 0.613180 0.574670 0.955985

loop_
_geom_bond_atom_site_label_1
_geom_bond_atom_site_label_2
_ccdc_geom_bond_type
O5    Zn1   S    
C35   C36   A    
C26   H8    S    
C13   O4    A    
C14   O3    A    
C12   C23   A    
C28   H10   S    
C26   C27   A    
C29   H11   S    
C18   C24   A    
C32   C36   A    
C28   C29   A    
C18   C19   A    
C11   O7    A    
O12   Zn2   S    
C4    O9    A    
C20   H4    S    
O2    Zn2   S    
C5    C17   A    
O4    Zn3   S    
O6    Zn1   S    
C34   C35   A    
O8    Zn2   S    
O1    Zn4   S    
C19   C20   A    
C8    C9    D    
C12   C17   A    
C31   C33   A    
O1    Zn1   S    
C2    C16   A    
C9    C10   S    
O3    Zn4   S    
C15   C34   A    
C5    C32   A    
C27   H9    S    
C21   C22   A    
C10   O6    A    
C33   C34   A    
C4    C6    S    
C13   O2    A    
O7    Zn4   S    
C25   C26   A    
O10   Zn4   S    
C23   C31   A    
O13   Zn3   S    
C8    H12   S    
C29   C30   A    
C36   H20   S    
C31   C32   A    
C7    C18   S    
C6    H2    S    
C1    O10   A    
C15   H16   S    
O1    Zn2   S    
C5    C14   S    
C19   H3    S    
C21   H5    S    
C2    C33   A    
C30   H13   S    
C35   H15   S    
C22   C24   A    
C1    O8    A    
C3    C15   A    
C25   C30   A    
C1    C7    S    
C9    H14   S    
C2    H17   S    
C4    O11   A    
C11   O13   A    
C23   H19   S    
C6    C7    D    
C10   O12   A    
O9    Zn3   S    
C12   C25   S    
O11   Zn1   S    
C14   O5    A    
C22   H6    S    
C8    C11   S    
O1    Zn3   S    
C20   C21   A    
C3    H1    S    
C13   C16   S    
C27   C28   A    
C24   H7    S    
C17   H18   S    
C3    C16   A    
