data_mof_unit_25601.cif
_audit_creation_date              2012-10-26T19:50:02-0400
_audit_creation_method            fapswitch 2.2
_symmetry_space_group_name_H-M    P1
_symmetry_Int_Tables_number       1
_space_group_crystal_system       triclinic
_cell_length_a                    15.119383
_cell_length_b                    13.941775
_cell_length_c                    10.881062
_cell_angle_alpha                 89.840998
_cell_angle_beta                  91.562688
_cell_angle_gamma                 90.706207
_cell_volume                      2292.59631426

loop_
_atom_site_label
_atom_site_type_symbol
_atom_type_description
_atom_site_fract_x
_atom_site_fract_y
_atom_site_fract_z
_atom_type_partial_charge
C1    C     C_R   0.330184 0.499668 0.499562 0.548820
C2    C     C_R   0.952197 0.502185 0.500610 0.034583
C3    C     C_R   0.562738 0.105695 0.567347 -0.130017
C4    C     C_R   0.440676 0.104854 0.425245 -0.127747
C5    C     C_R   0.560897 0.207054 0.571176 0.149257
C6    C     C_R   0.439075 0.206316 0.428498 0.145318
C7    C     C_R   0.502296 0.052957 0.494987 -0.005212
C8    C     C_R   0.421725 0.891481 0.488631 -0.140505
C9    C     C_R   0.580382 0.892499 0.505216 -0.151076
C10   C     C_R   0.422399 0.790549 0.490679 0.049917
C11   C     C_R   0.578226 0.791661 0.506908 0.016869
C12   C     C_R   0.670170 0.500415 0.500427 0.514520
C13   C     C_R   0.501472 0.944586 0.495914 0.025276
C14   C     C_R   0.506011 0.500497 0.262620 0.543155
C15   C     C_R   0.505558 0.500043 0.737698 0.540377
C16   C     C_R   0.614239 0.650834 0.127272 0.021439
C17   C     C_R   0.620668 0.643347 0.876346 0.022441
C18   C     C_R   0.632371 0.736644 0.063044 0.033965
C19   C     C_R   0.637701 0.732208 0.934193 0.035311
C20   C     C_R   0.567625 0.573305 0.936068 0.009320
C21   C     C_R   0.565900 0.575588 0.066374 0.008484
C22   C     C_R   0.519220 0.501034 0.129313 -0.000634
C23   C     C_R   0.234003 0.499805 0.499937 0.021162
C24   C     C_R   0.519670 0.499526 0.871566 -0.006646
C25   C     C_R   0.479925 0.425367 0.062886 -0.159316
C26   C     C_R   0.479630 0.424945 0.936240 -0.162038
C27   C     C_R   0.098638 0.567154 0.572974 -0.122438
C28   C     C_R   0.906259 0.589004 0.500154 -0.122042
C29   C     C_R   0.190595 0.566346 0.572460 -0.131847
C30   C     C_R   0.814284 0.588589 0.500564 -0.144261
C31   C     C_3   0.670809 0.631218 0.240049 -0.354525
C32   C     C_3   0.677264 0.617558 0.769963 -0.355229
C33   C     C_3   0.656921 0.827593 0.132247 -0.400262
C34   C     C_R   0.767034 0.501319 0.500826 0.008974
C35   C     C_3   0.669980 0.816473 0.858459 -0.406192
C36   C     C_3   0.627366 0.251148 0.660862 -0.341962
C37   C     C_3   0.361928 0.251289 0.361129 -0.343116
C38   C     C_R   0.185031 0.435652 0.425697 -0.134628
C39   C     C_R   0.813096 0.414601 0.501137 -0.133964
C40   C     C_R   0.093131 0.436837 0.425386 -0.119212
C41   C     C_R   0.904950 0.415034 0.501545 -0.123265
C42   C     C_R   0.049271 0.502173 0.499638 0.032082
Cu1   Cu    Cu3+1 0.500000 0.596430 0.500000 0.913741
Cu2   Cu    Cu3+1 0.500000 0.403570 0.500000 0.917675
H1    H     H_    0.444983 0.367930 0.108995 0.123466
H2    H     H_    0.780370 0.656523 0.499936 0.104044
H3    H     H_    0.217570 0.386742 0.365295 0.097741
H4    H     H_    0.778356 0.346286 0.500959 0.124779
H5    H     H_    0.056345 0.387714 0.365741 0.103576
H6    H     H_    0.939077 0.347177 0.503612 0.101818
H7    H     H_    0.610232 0.067784 0.625308 0.093933
H8    H     H_    0.392306 0.065992 0.368768 0.096142
H9    H     H_    0.740357 0.653566 0.224001 0.110225
H10   H     H_    0.646851 0.673236 0.317739 0.171941
H11   H     H_    0.673046 0.553633 0.261653 0.137228
H12   H     H_    0.444203 0.367566 0.888343 0.137682
H13   H     H_    0.748013 0.630665 0.795383 0.107978
H14   H     H_    0.672135 0.540518 0.746221 0.125993
H15   H     H_    0.660083 0.663562 0.690537 0.165418
H16   H     H_    0.727205 0.847071 0.116977 0.123183
H17   H     H_    0.613478 0.886799 0.100422 0.132793
H18   H     H_    0.647455 0.820751 0.232520 0.127449
H19   H     H_    0.624440 0.826717 0.777849 0.137765
H20   H     H_    0.672312 0.885179 0.909118 0.125474
H21   H     H_    0.737467 0.802706 0.825548 0.116539
H22   H     H_    0.623512 0.328332 0.674289 0.193864
H23   H     H_    0.358729 0.927496 0.483197 0.086320
H24   H     H_    0.618518 0.218629 0.753128 0.091303
H25   H     H_    0.695227 0.234907 0.631223 0.087136
H26   H     H_    0.379623 0.316952 0.311249 0.172540
H27   H     H_    0.332598 0.202285 0.290268 0.067115
H28   H     H_    0.309527 0.264806 0.427888 0.135103
H29   H     H_    0.643868 0.929255 0.509383 0.084616
H30   H     H_    0.359867 0.752550 0.484550 0.126975
H31   H     H_    0.640297 0.754668 0.512912 0.096828
H32   H     H_    0.066195 0.617560 0.631834 0.102699
H33   H     H_    0.941400 0.657114 0.497827 0.100324
H34   H     H_    0.227886 0.616637 0.629944 0.115676
N1    N     N_R   0.500000 0.258690 0.500000 -0.196055
N2    N     N_R   0.500000 0.741330 0.500000 -0.218754
O1    O     O_R   0.371460 0.581430 0.500010 -0.510921
O2    O     O_R   0.628540 0.581430 0.499990 -0.546995
O3    O     O_R   0.371470 0.418560 0.500010 -0.507780
O4    O     O_R   0.628530 0.418560 0.499990 -0.514204
O5    O     O_R   0.500000 0.581450 0.319650 -0.488715
O6    O     O_R   0.500000 0.581450 0.680350 -0.484437
O7    O     O_R   0.500010 0.418580 0.319650 -0.514972
O8    O     O_R   0.499990 0.418580 0.680350 -0.519384

loop_
_geom_bond_atom_site_label_1
_geom_bond_atom_site_label_2
_ccdc_geom_bond_type
C16   C21   A    
C27   C29   A    
C32   H14   S    
Cu2   O3    S    
C39   C41   A    
C16   C31   S    
C8    C13   A    
C4    H8    S    
C23   C29   A    
C21   C22   A    
C24   C26   A    
C14   O7    A    
C3    C7    A    
C36   H22   S    
C35   H21   S    
C2    C41   A    
C1    O1    A    
C40   H5    S    
C5    C36   S    
C17   C20   A    
C12   O4    A    
C18   C19   A    
C19   C35   S    
C9    C13   A    
C29   H34   S    
C20   C24   A    
C33   H18   S    
C22   C25   A    
C35   H20   S    
C5    N1    A    
Cu2   O7    S    
C40   C42   A    
C37   H26   S    
C9    H29   S    
C32   H13   S    
C4    C7    A    
C30   C34   A    
C34   C39   A    
Cu1   O5    S    
C4    C6    A    
C10   N2    A    
C3    C5    A    
Cu1   N2    S    
Cu1   Cu2   S    
C6    C37   S    
C12   O2    A    
C31   H9    S    
C28   H33   S    
C9    C11   A    
C38   H3    S    
C15   O6    A    
C8    C10   A    
C15   C24   S    
C1    C23   S    
C33   H16   S    
C37   H27   S    
Cu1   O1    S    
C12   C34   S    
C27   H32   S    
C25   H1    S    
C41   H6    S    
C36   H25   S    
C17   C32   S    
C3    H7    S    
Cu1   O6    S    
C30   H2    S    
Cu2   N1    S    
C14   O5    A    
Cu2   O4    S    
C26   H12   S    
C35   H19   S    
C36   H24   S    
C1    O3    A    
C23   C38   A    
C14   C22   S    
C28   C30   A    
C25   C26   A    
C11   H31   S    
C38   C40   A    
C10   H30   S    
C27   C42   A    
C6    N1    A    
C2    C42   S    
C33   H17   S    
C17   C19   A    
C31   H10   S    
C18   C33   S    
C11   N2    A    
C7    C13   S    
C20   C21   A    
C8    H23   S    
C16   C18   A    
C37   H28   S    
Cu1   O2    S    
C39   H4    S    
C2    C28   A    
C32   H15   S    
C31   H11   S    
Cu2   O8    S    
C15   O8    A    
