data_mof_unit_40099.cif
_audit_creation_date              2012-12-10T16:57:50-0500
_audit_creation_method            fapswitch 2.2
_symmetry_space_group_name_H-M    P1
_symmetry_Int_Tables_number       1
_space_group_crystal_system       triclinic
_cell_length_a                    7.747534
_cell_length_b                    8.576313
_cell_length_c                    19.09926
_cell_angle_alpha                 91.022362
_cell_angle_beta                  85.899705
_cell_angle_gamma                 93.181358
_cell_volume                      1263.73393197

loop_
_atom_site_label
_atom_site_type_symbol
_atom_type_description
_atom_site_fract_x
_atom_site_fract_y
_atom_site_fract_z
_atom_type_partial_charge
C1    C     C_R   0.544636 0.794720 0.498272 0.946605
C2    C     C_R   0.645297 0.523796 0.175109 -0.145977
C3    C     C_R   0.521369 0.556983 0.854704 0.026445
C4    C     C_R   0.499191 0.580469 0.147098 0.027866
C5    C     C_R   0.664903 0.499051 0.814917 0.184432
C6    C     C_R   0.351380 0.612081 0.191150 0.182259
C7    C     C_R   0.657923 0.480787 0.742625 -0.205821
C8    C     C_R   0.350695 0.582461 0.262411 -0.202346
C9    C     C_R   0.508984 0.517483 0.710226 -0.074505
C10   C     C_R   0.496303 0.523648 0.290156 -0.073429
C11   C     C_R   0.499672 0.590731 0.071494 0.309940
C12   C     C_R   0.455360 0.205273 0.501732 0.952167
C13   C     C_R   0.515445 0.570545 0.930518 0.307904
C14   C     C_2   0.561450 0.954887 0.485083 -0.083880
C15   C     C_2   0.438527 0.045078 0.514904 -0.085602
C16   C     C_R   0.502499 0.502279 0.634574 0.890599
C17   C     C_R   0.498217 0.502898 0.365438 0.889988
C18   C     C_R   0.367076 0.574567 0.750236 -0.144334
C19   C     C_R   0.644114 0.495663 0.246271 -0.147220
C20   C     C_R   0.373695 0.594609 0.821914 -0.149042
H1    H     H_    0.251395 0.605420 0.726185 0.183442
H2    H     H_    0.758355 0.451302 0.266773 0.180077
H3    H     H_    0.262867 0.639622 0.851991 0.185824
H4    H     H_    0.758834 0.497001 0.141540 0.186748
H5    H     H_    0.767749 0.435553 0.712027 0.181277
H6    H     H_    0.237411 0.608716 0.296204 0.182998
H7    H     H_    0.014117 0.382195 0.447382 0.209909
H8    H     H_    0.985884 0.617801 0.552622 0.209034
I1    I     I_    0.889198 0.423092 0.859295 -0.312726
I2    I     I_    0.129633 0.713794 0.155806 -0.307669
I3    I     I_    0.748110 0.017200 0.399773 -0.296272
I4    I     I_    0.251788 0.982572 0.600179 -0.309035
N1    N     N_R   0.652469 0.633081 0.963550 -0.118347
N2    N     N_R   0.362233 0.530053 0.038308 -0.119321
N3    N     N_R   0.645232 0.641798 0.033158 -0.131681
N4    N     N_R   0.369474 0.521257 0.968849 -0.130667
N5    N     N_2   0.950330 0.457950 0.481240 -0.158371
N6    N     N_2   0.049670 0.542050 0.518760 -0.158643
O1    O     O_R   0.389250 0.738570 0.504600 -0.596684
O2    O     O_R   0.610750 0.261430 0.495400 -0.595118
O3    O     O_R   0.678400 0.711620 0.492580 -0.605020
O4    O     O_R   0.321600 0.288380 0.507420 -0.602865
O5    O     O_R   0.355380 0.513500 0.607880 -0.608500
O6    O     O_R   0.644620 0.486500 0.392120 -0.607230
O7    O     O_R   0.644530 0.486550 0.595850 -0.630637
O8    O     O_R   0.355470 0.513450 0.404150 -0.632538
Zn1   Zn    Zn3+2 0.306930 0.517990 0.508030 0.997235
Zn2   Zn    Zn3+2 0.693070 0.482010 0.491970 0.998733

loop_
_geom_bond_atom_site_label_1
_geom_bond_atom_site_label_2
_ccdc_geom_bond_type
C16   O7    A    
C12   O2    A    
C2    C4    A    
C12   C15   S    
C13   N1    A    
N5    N6    D    
C18   H1    S    
C8    H6    S    
C14   I3    S    
N2    N4    A    
C7    H5    S    
C20   H3    S    
H8    N6    S    
C10   C19   A    
C11   N3    A    
C17   O6    A    
C5    C7    A    
C3    C20   A    
C4    C11   S    
N5    Zn2   S    
C16   O5    A    
N6    Zn1   S    
H7    N5    S    
C1    O3    A    
C6    I2    S    
C9    C16   S    
C18   C20   A    
O4    Zn1   S    
C2    H4    S    
C8    C10   A    
C1    O1    A    
C10   C17   S    
C12   O4    A    
C5    I1    S    
C9    C18   A    
C15   I4    S    
C19   H2    S    
C17   O8    A    
C13   N4    A    
C4    C6    A    
O7    Zn2   S    
C7    C9    A    
O2    Zn2   S    
C14   C15   D    
C6    C8    A    
C1    C14   S    
N1    N3    A    
C2    C19   A    
O8    Zn1   S    
O1    Zn1   S    
O5    Zn1   S    
O3    Zn2   S    
C11   N2    A    
O6    Zn2   S    
C3    C5    A    
C3    C13   S    
