data_mof_unit_28633.cif
_audit_creation_date              2012-12-10T20:31:07-0500
_audit_creation_method            fapswitch 2.2
_symmetry_space_group_name_H-M    P1
_symmetry_Int_Tables_number       1
_space_group_crystal_system       triclinic
_cell_length_a                    14.948231
_cell_length_b                    10.67688
_cell_length_c                    9.89211
_cell_angle_alpha                 89.679909
_cell_angle_beta                  89.501044
_cell_angle_gamma                 90.223489
_cell_volume                      1578.68857792

loop_
_atom_site_label
_atom_site_type_symbol
_atom_type_description
_atom_site_fract_x
_atom_site_fract_y
_atom_site_fract_z
_atom_type_partial_charge
C1    C     C_R   0.502899 0.260091 0.500338 0.926201
C2    C     C_R   0.186280 0.432103 0.404950 -0.220401
C3    C     C_R   0.231294 0.502794 0.501059 -0.209439
C4    C     C_R   0.326922 0.501074 0.500494 0.930126
C5    C     C_R   0.185405 0.575708 0.595505 0.688474
C6    C     C_R   0.512432 0.062916 0.622950 0.006305
C7    C     C_R   0.517751 0.128889 0.501521 -0.196369
C8    C     C_R   0.541268 0.066676 0.381969 -0.230918
C9    C     C_R   0.541926 0.937046 0.380787 0.680692
C10   C     C_R   0.518632 0.871503 0.499885 -0.325446
C11   C     C_R   0.512912 0.935189 0.622061 0.022425
C12   C     C_R   0.906040 0.572417 0.597511 0.030789
C13   C     C_3   0.444245 0.926282 0.732493 0.519624
C14   C     C_3   0.443815 0.068179 0.733608 -0.376406
C15   C     C_R   0.421766 0.509085 0.072347 -0.134902
C16   C     C_R   0.503588 0.739951 0.499541 0.909362
C17   C     C_R   0.578025 0.500414 0.069833 0.730595
C18   C     C_R   0.577847 0.500442 0.926646 -0.137304
C19   C     C_R   0.421683 0.509518 0.929803 0.038075
C20   C     C_3   0.344320 0.420619 0.927603 1.056939
C21   C     C_3   0.344348 0.420935 0.080832 0.365652
C22   C     C_R   0.673084 0.500387 0.499490 0.866141
C23   C     C_R   0.954787 0.365968 0.301715 0.563051
C24   C     C_R   0.813389 0.569644 0.597474 -0.155167
C25   C     C_R   0.768654 0.502005 0.498522 -0.104780
C26   C     C_R   0.814686 0.435787 0.399066 -0.064167
C27   C     C_R   0.907383 0.434858 0.398827 -0.110447
C28   C     C_R   0.953345 0.503845 0.498336 -0.044113
C29   C     C_R   0.047736 0.364603 0.303571 0.582256
C30   C     C_R   0.093741 0.433188 0.401677 -0.103373
C31   C     C_R   0.046532 0.504008 0.498899 -0.087627
C32   C     C_R   0.092550 0.575053 0.596651 -0.055827
C33   C     C_R   0.045032 0.644054 0.693324 -0.176611
C34   C     C_R   0.952128 0.642204 0.694496 0.623253
F1    F     F_    0.558707 0.877572 0.262287 -0.588441
F2    F     F_    0.907451 0.708809 0.790039 -0.619893
F3    F     F_    0.479721 0.875773 0.849458 -0.574183
F4    F     F_    0.657763 0.498439 0.133216 -0.628032
F5    F     F_    0.267995 0.473303 0.874183 -0.624873
F6    F     F_    0.365323 0.306069 0.871300 -0.638287
F7    F     F_    0.367789 0.306336 0.136248 -0.596038
F8    F     F_    0.911209 0.299446 0.205677 -0.584021
F9    F     F_    0.092696 0.296864 0.209215 -0.583013
F10   F     F_    0.231150 0.649707 0.682842 -0.633583
H1    H     H_    0.223738 0.375383 0.333905 0.240688
H2    H     H_    0.553295 0.117188 0.288216 0.222912
H3    H     H_    0.775678 0.621303 0.672808 0.210146
H4    H     H_    0.380103 0.882615 0.700989 0.109116
H5    H     H_    0.379397 0.108847 0.699491 0.202447
H6    H     H_    0.471366 0.108883 0.827776 0.281830
H7    H     H_    0.640805 0.498935 0.872168 0.186495
H8    H     H_    0.283915 0.463700 0.127209 0.105491
H9    H     H_    0.777964 0.383171 0.324071 0.229716
H10   H     H_    0.079565 0.698677 0.768847 0.238243
N1    N     N_R   0.499390 0.499140 0.142800 -0.119660
N2    N     N_R   0.499390 0.499180 0.857150 -0.133185
O1    O     O_R   0.500010 0.316790 0.614690 -0.593769
O2    O     O_R   0.500000 0.316760 0.385350 -0.587762
O3    O     O_R   0.367850 0.499990 0.614680 -0.533499
O4    O     O_R   0.367840 0.499950 0.385340 -0.631479
O5    O     O_R   0.500000 0.683240 0.614650 -0.590100
O6    O     O_R   0.499990 0.683210 0.385310 -0.546371
O7    O     O_R   0.632160 0.500050 0.614660 -0.646225
O8    O     O_R   0.632150 0.500010 0.385320 -0.548181
Zn1   Zn    Zn3+2 0.500010 0.500020 0.653130 1.065769
Zn2   Zn    Zn3+2 0.499990 0.499980 0.346870 1.101078

loop_
_geom_bond_atom_site_label_1
_geom_bond_atom_site_label_2
_ccdc_geom_bond_type
C19   N2    A    
C13   H4    S    
O7    Zn1   S    
C29   C30   A    
C1    O1    A    
C6    C14   S    
C9    C10   A    
C17   N1    A    
C13   F3    S    
C31   C32   A    
C18   N2    A    
C2    C30   A    
C5    C32   A    
C32   C33   A    
C4    O4    A    
C33   C34   A    
C25   C26   A    
O4    Zn2   S    
C7    C8    A    
C10   C16   S    
C1    O2    A    
O3    Zn1   S    
C15   C19   A    
C11   C13   S    
C26   C27   A    
C6    C7    A    
C23   F8    S    
C16   O6    A    
C12   C28   A    
C21   F7    S    
C23   C29   A    
C4    O3    A    
C5    F10   S    
C15   N1    A    
C18   H7    S    
C17   C18   A    
C23   C27   A    
C17   F4    S    
C6    C11   A    
C2    H1    S    
C30   C31   A    
C20   F6    S    
C8    H2    S    
C15   C21   S    
C14   H5    S    
C28   C31   A    
C16   O5    A    
C14   H6    S    
C12   C34   A    
N2    Zn1   S    
C26   H9    S    
O5    Zn1   S    
C27   C28   A    
N1    Zn2   S    
C24   C25   A    
C34   F2    S    
C20   C21   S    
C12   C24   A    
C10   C11   A    
C33   H10   S    
C9    F1    S    
C20   F5    S    
O6    Zn2   S    
C2    C3    A    
C1    C7    S    
C22   O7    A    
C13   C14   S    
C24   H3    S    
C22   O8    A    
O2    Zn2   S    
C21   H8    S    
C29   F9    S    
C3    C4    S    
C19   C20   S    
O1    Zn1   S    
C8    C9    A    
C3    C5    A    
C22   C25   S    
O8    Zn2   S    
