data_mof_unit_45456.cif
_audit_creation_date              2013-03-05T16:23:46-0500
_audit_creation_method            fapswitch 2.2
_symmetry_space_group_name_H-M    P1
_symmetry_Int_Tables_number       1
_space_group_crystal_system       triclinic
_cell_length_a                    22.26791
_cell_length_b                    22.306462
_cell_length_c                    14.946968
_cell_angle_alpha                 90.017042
_cell_angle_beta                  90.423183
_cell_angle_gamma                 90.00255
_cell_volume                      7424.22951462

loop_
_atom_site_label
_atom_site_type_symbol
_atom_site_description
_atom_site_fract_x
_atom_site_fract_y
_atom_site_fract_z
_atom_type_partial_charge
O1    O     O_R   0.438390 0.938390 0.574460 -0.593038
O2    O     O_R   0.561610 0.061610 0.425540 -0.593029
O3    O     O_R   0.561610 0.938390 0.425540 -0.593718
O4    O     O_R   0.438390 0.061610 0.574460 -0.593873
O5    O     O_R   0.938390 0.438390 0.574460 -0.593020
O6    O     O_R   0.061610 0.561610 0.425540 -0.593029
O7    O     O_R   0.061610 0.438390 0.425540 -0.593884
O8    O     O_R   0.938390 0.561610 0.574460 -0.593726
O9    O     O_R   0.438400 0.938390 0.425520 -0.619106
O10   O     O_R   0.561600 0.061610 0.574480 -0.619325
O11   O     O_R   0.561600 0.938390 0.574480 -0.618763
O12   O     O_R   0.438400 0.061610 0.425520 -0.618568
O13   O     O_R   0.938400 0.438390 0.425520 -0.619317
O14   O     O_R   0.061600 0.561610 0.574480 -0.619101
O15   O     O_R   0.061600 0.438390 0.574480 -0.618572
O16   O     O_R   0.938400 0.561610 0.425520 -0.618770
C1    C     C_R   0.418810 0.918819 0.499781 0.895595
C2    C     C_R   0.581144 0.081225 0.500223 0.895074
C3    C     C_R   0.581158 0.918788 0.500206 0.895105
C4    C     C_R   0.418820 0.081191 0.499795 0.895603
C5    C     C_R   0.918854 0.418776 0.499776 0.895069
C6    C     C_R   0.081187 0.581183 0.500220 0.895598
C7    C     C_R   0.081182 0.418811 0.500205 0.895602
C8    C     C_R   0.918843 0.581213 0.499795 0.895111
H1    H     H_    0.604183 0.999437 0.945746 0.146839
H2    H     H_    0.395870 0.000559 0.054260 0.146819
H3    H     H_    0.104127 0.500249 0.945739 0.146815
H4    H     H_    0.895817 0.499754 0.054257 0.146833
Zn1   Zn    Zn3+2 0.500000 0.000000 0.599450 0.996982
Zn2   Zn    Zn3+2 0.500000 0.000000 0.400550 0.997188
Zn3   Zn    Zn3+2 0.000000 0.500000 0.599450 0.997189
Zn4   Zn    Zn3+2 1.000000 0.500000 0.400550 0.996980
C9    C     C_3   0.471323 0.951206 0.969853 0.126894
C10   C     C_3   0.528731 0.048790 0.030158 0.126522
C11   C     C_3   0.528185 0.950882 0.030067 0.126977
C12   C     C_3   0.471869 0.049117 0.969944 0.127352
C13   C     C_3   0.971653 0.450987 0.969854 0.126540
C14   C     C_3   0.028291 0.549018 0.030136 0.126910
C15   C     C_3   0.028513 0.451110 0.030070 0.127337
C16   C     C_3   0.971431 0.548893 0.969920 0.126958
C17   C     C_3   0.697987 0.725833 0.526532 0.010928
C18   C     C_3   0.302760 0.274689 0.477936 0.010947
C19   C     C_3   0.301899 0.726163 0.472449 0.010965
C20   C     C_3   0.698774 0.273532 0.530921 0.010922
C21   C     C_3   0.197279 0.225348 0.522051 0.010947
C22   C     C_3   0.802046 0.774195 0.473498 0.010891
C23   C     C_3   0.801195 0.226494 0.469052 0.010944
C24   C     C_3   0.198058 0.773878 0.527553 0.010973
C25   C     C_3   0.235107 0.206691 0.439624 -0.316012
C26   C     C_3   0.766329 0.794901 0.556943 -0.316017
C27   C     C_3   0.767669 0.203700 0.553296 -0.316134
C28   C     C_3   0.233188 0.795191 0.443914 -0.316108
C29   C     C_3   0.733704 0.705128 0.443088 -0.316074
C30   C     C_3   0.264932 0.293347 0.560364 -0.316000
C31   C     C_3   0.266769 0.704851 0.556088 -0.316121
C32   C     C_3   0.732300 0.296328 0.446677 -0.316092
H5    H     H_    0.223839 0.171396 0.389881 0.174951
H6    H     H_    0.778751 0.831481 0.603943 0.174997
H7    H     H_    0.781228 0.165944 0.597406 0.175004
H8    H     H_    0.220369 0.832014 0.397618 0.174960
H9    H     H_    0.721282 0.668550 0.396085 0.175003
H10   H     H_    0.276199 0.328642 0.610107 0.174934
H11   H     H_    0.279589 0.668029 0.602384 0.174975
H12   H     H_    0.718741 0.334085 0.402569 0.175003
C33   C     C_1   0.374518 0.125471 0.499455 -0.149905
C34   C     C_1   0.625401 0.874448 0.500552 -0.150155
C35   C     C_1   0.625336 0.125613 0.500609 -0.149994
C36   C     C_1   0.374477 0.874571 0.499421 -0.149888
C37   C     C_1   0.874611 0.625562 0.499454 -0.150177
C38   C     C_1   0.125498 0.374545 0.500543 -0.149938
C39   C     C_1   0.125506 0.625446 0.500579 -0.149863
C40   C     C_1   0.874652 0.374398 0.499385 -0.149972
C41   C     C_3   0.254013 0.226532 0.580852 0.366149
C42   C     C_3   0.743838 0.771380 0.418128 0.366719
C43   C     C_3   0.741594 0.230754 0.417336 0.367358
C44   C     C_3   0.256600 0.770923 0.582101 0.366910
C45   C     C_3   0.756194 0.728647 0.581904 0.366848
C46   C     C_3   0.246025 0.273506 0.419136 0.366174
C47   C     C_3   0.243357 0.729119 0.417902 0.366889
C48   C     C_3   0.758376 0.269272 0.582636 0.367264
C49   C     C_3   0.291733 0.208297 0.500150 -0.007283
C50   C     C_3   0.708184 0.791620 0.499870 -0.007445
C51   C     C_3   0.708086 0.208470 0.499905 -0.007538
C52   C     C_3   0.291679 0.791757 0.500159 -0.007396
C53   C     C_3   0.791848 0.708407 0.500161 -0.007425
C54   C     C_3   0.208305 0.291741 0.499838 -0.007273
C55   C     C_3   0.208279 0.708284 0.499843 -0.007406
C56   C     C_3   0.791884 0.291557 0.500068 -0.007554
N1    N     N_1   0.500020 0.000000 0.268010 -0.082366
N2    N     N_1   0.499980 1.000000 0.731990 -0.082436
N3    N     N_1   0.000020 0.500000 0.268010 -0.082434
N4    N     N_1   0.999980 0.500000 0.731990 -0.082364
C57   C     C_3   0.442785 0.000309 0.029662 -0.239334
C58   C     C_3   0.557268 0.999688 0.970344 -0.239560
C59   C     C_3   0.942731 0.499867 0.029655 -0.239546
C60   C     C_3   0.057214 0.500137 0.970339 -0.239330
C61   C     C_3   0.500133 0.999982 0.089553 -0.018445
C62   C     C_3   0.499917 0.000016 0.910453 -0.018027
C63   C     C_3   0.000081 0.499992 0.089548 -0.018030
C64   C     C_3   0.999867 0.500012 0.910447 -0.018449
C65   C     C_1   0.336989 0.162974 0.499638 0.033862
C66   C     C_1   0.662898 0.836911 0.500378 0.033900
C67   C     C_1   0.662798 0.163185 0.500444 0.034034
C68   C     C_1   0.336928 0.837085 0.499625 0.034151
C69   C     C_1   0.837125 0.663108 0.499640 0.033889
C70   C     C_1   0.163040 0.337054 0.500355 0.033873
C71   C     C_1   0.163040 0.662946 0.500376 0.034140
C72   C     C_1   0.837180 0.336835 0.499540 0.034043
C73   C     C_1   0.499986 0.999989 0.189826 0.054210
C74   C     C_1   0.500037 0.000010 0.810176 0.054211
C75   C     C_1   0.999962 0.499994 0.189824 0.054195
C76   C     C_1   0.000014 0.500008 0.810175 0.054196
C77   C     C_3   0.637780 0.700146 0.556645 -0.382574
C78   C     C_3   0.641735 0.632374 0.572381 -0.314581
C79   C     C_3   0.581473 0.607080 0.602260 -0.863488
H13   H     H_    0.567426 0.628321 0.665998 0.271708
H14   H     H_    0.546555 0.615228 0.550236 0.253696
H15   H     H_    0.585601 0.557997 0.612989 0.250178
H16   H     H_    0.655251 0.609520 0.509579 0.217918
H17   H     H_    0.676011 0.622563 0.624738 0.261482
H18   H     H_    0.624066 0.723116 0.619232 0.227678
H19   H     H_    0.603583 0.709612 0.503986 0.201584
C80   C     C_3   0.363793 0.300855 0.452805 -0.382713
C81   C     C_3   0.360487 0.368995 0.440833 -0.314121
C82   C     C_3   0.421557 0.394711 0.415710 -0.863248
H20   H     H_    0.455180 0.384926 0.468969 0.253467
H21   H     H_    0.437005 0.375148 0.351516 0.272157
H22   H     H_    0.417932 0.444063 0.407809 0.249797
H23   H     H_    0.327535 0.380341 0.387300 0.261785
H24   H     H_    0.345544 0.390259 0.504140 0.217819
H25   H     H_    0.396588 0.289859 0.506757 0.201465
H26   H     H_    0.379027 0.279467 0.389772 0.228034
C83   C     C_3   0.362021 0.700950 0.441169 -0.383474
C84   C     C_3   0.358232 0.633308 0.424195 -0.313601
C85   C     C_3   0.418414 0.608556 0.393016 -0.862436
H27   H     H_    0.432083 0.630546 0.329677 0.272073
H28   H     H_    0.453559 0.616243 0.444865 0.253024
H29   H     H_    0.414369 0.559600 0.381047 0.250706
H30   H     H_    0.345183 0.609881 0.486731 0.217749
H31   H     H_    0.323688 0.623785 0.372103 0.262485
H32   H     H_    0.375317 0.724479 0.378862 0.227648
H33   H     H_    0.396460 0.710126 0.493601 0.201619
C86   C     C_3   0.639526 0.298491 0.566071 -0.383137
C87   C     C_3   0.644139 0.365793 0.585529 -0.314097
C88   C     C_3   0.584947 0.390309 0.620965 -0.862943
H34   H     H_    0.548483 0.383610 0.570872 0.253215
H35   H     H_    0.572780 0.367366 0.684249 0.271651
H36   H     H_    0.589553 0.439053 0.634422 0.250829
H37   H     H_    0.679988 0.374213 0.636066 0.261902
H38   H     H_    0.655787 0.390265 0.523254 0.217766
H39   H     H_    0.603919 0.290454 0.514969 0.201587
H40   H     H_    0.627435 0.273925 0.628045 0.227586
C89   C     C_3   0.136246 0.199177 0.547169 -0.382752
C90   C     C_3   0.139571 0.131043 0.559219 -0.314011
C91   C     C_3   0.078484 0.105313 0.584225 -0.863355
H41   H     H_    0.062946 0.124920 0.648339 0.272145
H42   H     H_    0.044922 0.115033 0.530856 0.253465
H43   H     H_    0.082131 0.055969 0.592229 0.249817
H44   H     H_    0.154590 0.109755 0.495970 0.217833
H45   H     H_    0.172471 0.119737 0.612840 0.261838
H46   H     H_    0.120984 0.220589 0.610168 0.227980
H47   H     H_    0.103466 0.210137 0.493181 0.201504
C92   C     C_3   0.862251 0.799863 0.443339 -0.382560
C93   C     C_3   0.858328 0.867645 0.427686 -0.314692
C94   C     C_3   0.918515 0.892875 0.397341 -0.863052
H48   H     H_    0.953616 0.884656 0.449068 0.253645
H49   H     H_    0.932295 0.871648 0.333458 0.271735
H50   H     H_    0.914415 0.941969 0.386694 0.250103
H51   H     H_    0.823879 0.877520 0.375604 0.261455
H52   H     H_    0.845062 0.890487 0.490619 0.217818
H53   H     H_    0.896480 0.790356 0.495934 0.201472
H54   H     H_    0.875907 0.776913 0.380707 0.227807
C95   C     C_3   0.860445 0.201525 0.433928 -0.383149
C96   C     C_3   0.855811 0.134231 0.414415 -0.314017
C97   C     C_3   0.915054 0.109671 0.379243 -0.863213
H55   H     H_    0.927383 0.132626 0.316042 0.271625
H56   H     H_    0.951414 0.116315 0.429520 0.253252
H57   H     H_    0.910427 0.060937 0.365726 0.250863
H58   H     H_    0.844012 0.109750 0.476617 0.217824
H59   H     H_    0.820059 0.125856 0.363708 0.261907
H60   H     H_    0.872572 0.226105 0.371983 0.227506
H61   H     H_    0.896033 0.209532 0.485071 0.201657
C98   C     C_3   0.137934 0.799082 0.558842 -0.383434
C99   C     C_3   0.141700 0.866732 0.575752 -0.313735
C100  C     C_3   0.081533 0.891463 0.607025 -0.862350
H62   H     H_    0.046341 0.883721 0.555265 0.253038
H63   H     H_    0.067942 0.869504 0.670425 0.272084
H64   H     H_    0.085555 0.940430 0.618918 0.250680
H65   H     H_    0.176284 0.876294 0.627770 0.262438
H66   H     H_    0.154682 0.890141 0.513170 0.217742
H67   H     H_    0.103484 0.789873 0.506437 0.201580
H68   H     H_    0.124663 0.775572 0.621176 0.227692
N5    N     N_R   0.737332 0.794384 0.327258 0.198967
O17   O     O_R   0.769995 0.772225 0.263530 -0.408346
O18   O     O_R   0.698668 0.836392 0.308983 -0.408482
N6    N     N_R   0.258085 0.201156 0.670581 0.199076
O19   O     O_R   0.223798 0.221732 0.733576 -0.407344
O20   O     O_R   0.296167 0.158578 0.688615 -0.406617
N7    N     N_R   0.263591 0.793437 0.673177 0.198901
O21   O     O_R   0.231359 0.770843 0.737035 -0.408462
O22   O     O_R   0.302229 0.835474 0.691483 -0.407920
N8    N     N_R   0.732638 0.210087 0.325637 0.198742
O23   O     O_R   0.763673 0.233801 0.261358 -0.409173
O24   O     O_R   0.693445 0.168582 0.307237 -0.409546
N9    N     N_R   0.241951 0.298883 0.329408 0.199076
O25   O     O_R   0.276235 0.278307 0.266409 -0.407385
O26   O     O_R   0.203864 0.341457 0.311375 -0.406739
N10   N     N_R   0.762698 0.705641 0.672773 0.198901
O27   O     O_R   0.730028 0.727792 0.736498 -0.408419
O28   O     O_R   0.801366 0.663637 0.691049 -0.408634
N11   N     N_R   0.767333 0.289938 0.674335 0.198802
O29   O     O_R   0.736301 0.266219 0.738615 -0.409129
O30   O     O_R   0.806525 0.331443 0.692736 -0.409401
N12   N     N_R   0.236367 0.706606 0.326825 0.198906
O31   O     O_R   0.268601 0.729199 0.262969 -0.408439
O32   O     O_R   0.197732 0.664567 0.308518 -0.407810
C101  C     C_3   0.562992 0.897756 0.069279 -0.410428
C102  C     C_3   0.588854 0.857202 0.996373 -0.380647
C103  C     C_3   0.626859 0.807121 0.037145 -0.756359
H69   H     H_    0.665207 0.826216 0.075649 0.286705
H70   H     H_    0.599162 0.779015 0.082244 0.259795
H71   H     H_    0.644843 0.778288 0.983017 0.255901
H72   H     H_    0.551883 0.836643 0.956863 0.227474
H73   H     H_    0.617328 0.883962 0.950496 0.232095
H74   H     H_    0.600319 0.915821 0.111073 0.225541
H75   H     H_    0.533027 0.871583 0.113602 0.199527
C104  C     C_3   0.437071 0.102259 0.930767 -0.411688
C105  C     C_3   0.411200 0.142780 0.003706 -0.377128
C106  C     C_3   0.373230 0.192900 0.962975 -0.762755
H76   H     H_    0.400958 0.221029 0.917950 0.258837
H77   H     H_    0.334895 0.173842 0.924402 0.286018
H78   H     H_    0.355231 0.221700 0.017129 0.257007
H79   H     H_    0.382700 0.116004 0.049527 0.231761
H80   H     H_    0.448163 0.163303 0.043272 0.227713
H81   H     H_    0.467047 0.128450 0.886484 0.198855
H82   H     H_    0.399750 0.084213 0.888942 0.225910
C107  C     C_3   0.435933 0.898479 0.930533 -0.409604
C108  C     C_3   0.409646 0.858156 0.003348 -0.382473
C109  C     C_3   0.371095 0.808512 0.962463 -0.752890
H83   H     H_    0.332934 0.828042 0.924057 0.286878
H84   H     H_    0.398472 0.780162 0.917244 0.260315
H85   H     H_    0.352835 0.779817 0.016522 0.255593
H86   H     H_    0.446398 0.837174 0.042788 0.227527
H87   H     H_    0.381473 0.885188 0.049306 0.232143
H88   H     H_    0.398797 0.916968 0.888795 0.225885
H89   H     H_    0.465606 0.872014 0.886137 0.199705
C110  C     C_3   0.564127 0.101505 0.069511 -0.408586
C111  C     C_3   0.590461 0.141821 0.996729 -0.385163
C112  C     C_3   0.628990 0.191465 0.037665 -0.748286
H90   H     H_    0.601584 0.219828 0.082827 0.261437
H91   H     H_    0.667117 0.171936 0.076146 0.286987
H92   H     H_    0.647299 0.220149 0.983630 0.254527
H93   H     H_    0.618663 0.114783 0.950818 0.232299
H94   H     H_    0.553735 0.162800 0.957230 0.227335
H95   H     H_    0.534450 0.127979 0.113888 0.200370
H96   H     H_    0.601240 0.083001 0.111279 0.225300
C113  C     C_3   0.063728 0.398253 0.069270 -0.411487
C114  C     C_3   0.089899 0.357917 0.996351 -0.377856
C115  C     C_3   0.128265 0.308111 0.037107 -0.761539
H97   H     H_    0.166460 0.327480 0.075635 0.285997
H98   H     H_    0.100768 0.279792 0.082183 0.259086
H99   H     H_    0.146468 0.279427 0.982969 0.256974
H100  H     H_    0.053092 0.337095 0.956815 0.227817
H101  H     H_    0.118179 0.384900 0.950497 0.231721
H102  H     H_    0.100912 0.416600 0.111070 0.225856
H103  H     H_    0.033964 0.371844 0.113584 0.198924
C116  C     C_3   0.936215 0.601739 0.930683 -0.410229
C117  C     C_3   0.910013 0.642084 0.003567 -0.381336
C118  C     C_3   0.871660 0.691884 0.962758 -0.755087
H104  H     H_    0.899169 0.720190 0.917682 0.260055
H105  H     H_    0.833473 0.672507 0.924216 0.286652
H106  H     H_    0.853442 0.720582 0.016868 0.255898
H107  H     H_    0.881716 0.615105 0.049403 0.232038
H108  H     H_    0.946805 0.662911 0.043129 0.227575
H109  H     H_    0.965983 0.628147 0.886375 0.199616
H110  H     H_    0.899044 0.583380 0.888867 0.225456
C119  C     C_3   0.936675 0.397995 0.930522 -0.408765
C120  C     C_3   0.910664 0.357486 0.003326 -0.384477
C121  C     C_3   0.872553 0.307516 0.962414 -0.749711
H111  H     H_    0.834281 0.326722 0.923889 0.287195
H112  H     H_    0.900205 0.279360 0.917301 0.261105
H113  H     H_    0.854463 0.278708 0.016466 0.254526
H114  H     H_    0.947555 0.336822 0.042853 0.227252
H115  H     H_    0.882234 0.384306 0.049207 0.232353
H116  H     H_    0.899416 0.416202 0.888750 0.225389
H117  H     H_    0.966560 0.371751 0.886153 0.200274
C122  C     C_3   0.063263 0.602022 0.069438 -0.409786
C123  C     C_3   0.089266 0.642513 0.996606 -0.381781
C124  C     C_3   0.127395 0.692481 0.037477 -0.754242
H118  H     H_    0.099757 0.720657 0.082580 0.260014
H119  H     H_    0.165667 0.673274 0.076001 0.287042
H120  H     H_    0.145487 0.721270 0.983402 0.255623
H121  H     H_    0.117680 0.615680 0.950719 0.232184
H122  H     H_    0.052371 0.663179 0.957091 0.227449
H123  H     H_    0.033374 0.628275 0.113789 0.199620
H124  H     H_    0.100524 0.583829 0.111220 0.225944

loop_
_geom_bond_atom_site_label_1
_geom_bond_atom_site_label_2
_geom_bond_distance
_ccdc_geom_bond_type
C85   H29   1.110103 S    
O6    Zn4   1.975440 S    
C91   H41   1.110876 S    
C94   H48   1.110641 S    
C62   C74   1.498852 S    
N10   O28   1.300265 A    
C39   C71   1.182492 T    
C80   H26   1.111211 S    
O2    C2    1.272510 A    
C34   C66   1.182528 T    
O13   Zn4   1.979211 S    
C93   H52   1.111561 S    
C114  H100  1.108758 S    
C33   C65   1.182526 T    
O14   Zn3   1.979210 S    
C20   C51   1.537935 S    
C43   C51   1.529995 S    
C98   H68   1.111208 S    
C44   C52   1.529925 S    
C47   C55   1.529923 S    
C78   C79   1.525592 S    
H3    C60   1.110050 S    
C35   C67   1.182480 T    
C85   H27   1.110875 S    
C97   H56   1.110484 S    
C49   C65   1.427545 S    
N9    O25   1.300217 A    
C122  H124  1.111606 S    
C104  H82   1.111611 S    
O11   C3    1.272886 A    
C83   H33   1.111403 S    
C87   H37   1.110924 S    
N8    O24   1.300272 A    
H4    C59   1.110050 S    
C14   C63   1.545286 S    
O3    Zn2   1.975681 S    
C93   C94   1.525688 S    
C14   C16   1.548042 S    
C9    C62   1.545323 S    
C106  H78   1.110437 S    
C17   C45   1.533967 S    
C56   C72   1.427436 S    
C59   C63   1.554168 S    
C100  H63   1.110867 S    
Zn4   N3    1.981074 S    
C91   H42   1.110505 S    
C58   C62   1.554178 S    
C112  H90   1.110960 S    
C19   C47   1.533880 S    
C79   H13   1.110905 S    
O6    C6    1.272459 A    
C108  H87   1.111401 S    
C22   C92   1.528833 S    
C124  H120  1.110428 S    
C25   H5    1.110172 S    
C25   C46   1.541286 S    
C13   C59   1.552600 S    
C3    C34   1.396020 S    
C21   C41   1.533867 S    
C113  C114  1.531664 S    
C121  H113  1.110429 S    
C25   C49   1.546885 S    
C19   C83   1.528534 S    
C104  C105  1.531734 S    
C24   C44   1.533892 S    
C96   C97   1.525449 S    
Zn1   N2    1.981074 S    
C87   H38   1.111549 S    
C15   C113  1.530389 S    
C18   C80   1.528557 S    
C9    C11   1.548077 S    
C116  H109  1.109802 S    
C27   C48   1.541305 S    
C29   H9    1.110230 S    
C12   C57   1.552591 S    
C47   N12   1.458109 S    
C100  H62   1.110601 S    
C77   H19   1.111402 S    
C109  H83   1.111035 S    
N10   O27   1.300237 A    
C79   H14   1.110611 S    
C31   H11   1.110159 S    
C117  H107  1.111382 S    
C107  H89   1.109830 S    
C82   H22   1.110112 S    
C121  H111  1.111026 S    
C32   H12   1.110196 S    
O3    C3    1.272529 A    
C20   C48   1.533926 S    
C123  H122  1.108779 S    
C28   C47   1.541296 S    
C28   H8    1.110158 S    
C12   C62   1.545338 S    
C105  H80   1.108783 S    
C78   H16   1.111537 S    
C40   C72   1.182485 T    
C24   C28   1.554231 S    
C101  H75   1.109821 S    
C22   C53   1.538033 S    
O12   Zn2   1.979140 S    
C110  H96   1.111614 S    
C115  H99   1.110420 S    
H2    C57   1.110089 S    
O15   C7    1.272904 A    
C9    C107  1.530514 S    
C42   N5    1.458288 S    
C45   C53   1.530053 S    
C10   C61   1.545298 S    
O16   C8    1.272891 A    
C32   C43   1.541338 S    
C120  H115  1.111393 S    
C118  H104  1.110943 S    
C91   H43   1.110117 S    
C19   C52   1.537940 S    
C7    C38   1.396011 S    
C14   C122  1.530425 S    
C93   H51   1.110981 S    
C54   C70   1.427547 S    
C18   C49   1.537953 S    
C102  H72   1.108798 S    
C42   C50   1.530041 S    
Zn2   N1    1.981074 S    
C53   C69   1.427510 S    
C105  H79   1.111398 S    
C11   C101  1.530493 S    
C41   C49   1.529943 S    
C105  C106  1.525890 S    
C88   H35   1.110900 S    
C43   N8    1.458248 S    
C8    C37   1.396002 S    
C88   H34   1.110498 S    
C97   H57   1.110290 S    
N9    O26   1.300267 A    
C116  H110  1.111598 S    
C112  H91   1.111029 S    
N8    O23   1.300225 A    
C5    C40   1.395938 S    
O13   C5    1.272853 A    
C26   H6    1.110229 S    
C36   C68   1.182493 T    
C4    C33   1.396008 S    
C80   C81   1.532225 S    
C113  H102  1.111598 S    
C1    C36   1.395945 S    
C94   H49   1.110940 S    
N6    O20   1.300262 A    
C38   C70   1.182529 T    
C45   N10   1.458291 S    
C84   H30   1.111545 S    
C30   C54   1.546893 S    
C37   C69   1.182519 T    
C111  H93   1.111398 S    
N4    C76   1.168616 T    
C100  H64   1.110098 S    
C23   C27   1.554238 S    
C30   H10   1.110172 S    
N5    O18   1.300267 A    
C101  C102  1.531730 S    
C95   C96   1.532415 S    
C119  H116  1.111609 S    
C108  H86   1.108790 S    
N1    C73   1.168614 T    
C89   H46   1.111211 S    
O5    C5    1.272522 A    
C27   C51   1.546925 S    
C98   C99   1.532171 S    
C90   H45   1.110937 S    
C106  H76   1.110957 S    
C103  H70   1.110960 S    
C30   C41   1.541292 S    
C61   C73   1.498799 S    
C20   C32   1.554253 S    
C57   C61   1.554118 S    
C15   C63   1.545290 S    
N11   O29   1.300224 A    
C106  H77   1.111027 S    
C21   C25   1.554254 S    
C116  C117  1.531655 S    
C79   H15   1.110323 S    
C63   C75   1.498849 S    
O12   C4    1.272900 A    
O1    Zn1   1.975443 S    
C124  H118  1.110955 S    
C50   C66   1.427529 S    
C24   C55   1.537940 S    
C81   H24   1.111535 S    
C109  H84   1.110967 S    
C78   H17   1.110957 S    
C124  H119  1.111024 S    
C123  H121  1.111392 S    
C102  H73   1.111399 S    
C92   H54   1.111241 S    
C22   C42   1.533976 S    
C17   C29   1.554295 S    
C90   C91   1.525459 S    
C23   C95   1.528638 S    
C51   C67   1.427419 S    
O9    Zn2   1.979211 S    
C48   N11   1.458244 S    
C31   C44   1.541290 S    
O9    C1    1.272921 A    
C86   H40   1.111216 S    
N11   O30   1.300273 A    
C95   H61   1.111393 S    
C64   C76   1.498802 S    
C12   C104  1.530470 S    
C120  H114  1.108788 S    
C118  H105  1.111012 S    
C122  C123  1.531670 S    
C82   H20   1.110504 S    
C52   C68   1.427486 S    
C99   H66   1.111537 S    
C41   N6    1.458098 S    
C27   H7    1.110195 S    
N2    C74   1.168636 T    
C16   C59   1.552592 S    
C117  H108  1.108776 S    
C115  H97   1.111002 S    
C26   C45   1.541378 S    
C96   H59   1.110914 S    
C6    C39   1.395941 S    
C103  H69   1.111036 S    
C88   H36   1.110298 S    
C92   H53   1.111403 S    
C111  C112  1.525951 S    
C26   C50   1.546989 S    
C18   C46   1.533883 S    
N7    O22   1.300269 A    
C77   C78   1.532451 S    
C107  H88   1.111616 S    
C11   C58   1.552606 S    
C9    C57   1.552601 S    
C85   H28   1.110601 S    
C108  C109  1.525929 S    
C112  H92   1.110434 S    
O7    Zn4   1.975681 S    
C80   H25   1.111397 S    
N12   O31   1.300216 A    
O8    Zn3   1.975681 S    
O1    C1    1.272458 A    
C111  H94   1.108796 S    
C114  H101  1.111380 S    
C113  H103  1.109809 S    
C10   C58   1.552617 S    
C17   C77   1.528827 S    
N6    O19   1.300219 A    
C115  H98   1.110938 S    
C44   N7    1.458112 S    
C98   H67   1.111402 S    
C16   C64   1.545272 S    
O4    Zn1   1.975681 S    
C29   C53   1.546952 S    
C110  C111  1.531687 S    
C55   C71   1.427482 S    
O15   Zn3   1.979142 S    
C84   C85   1.525478 S    
C19   C31   1.554216 S    
C94   H50   1.110340 S    
C77   H18   1.111238 S    
C104  H81   1.109818 S    
C119  H117  1.109811 S    
C22   C26   1.554314 S    
C83   H32   1.111209 S    
C24   C98   1.528536 S    
O2    Zn2   1.975440 S    
C89   H47   1.111398 S    
C87   C88   1.525491 S    
C23   C56   1.537938 S    
O14   C6    1.272918 A    
C28   C52   1.546893 S    
C114  C115  1.525810 S    
C2    C35   1.395927 S    
C46   N9    1.458099 S    
C23   C43   1.533918 S    
C90   H44   1.111534 S    
C48   C56   1.529987 S    
C97   H55   1.110884 S    
C11   C61   1.545315 S    
N5    O17   1.300238 A    
C123  C124  1.525887 S    
C103  H71   1.110441 S    
C84   H31   1.110914 S    
O10   Zn1   1.979210 S    
C46   C54   1.529942 S    
C102  C103  1.525931 S    
C83   C84   1.532178 S    
C101  H74   1.111616 S    
O10   C2    1.272856 A    
C20   C86   1.528645 S    
O7    C7    1.272509 A    
C17   C50   1.538037 S    
C60   C64   1.554107 S    
C86   H39   1.111393 S    
O8    C8    1.272515 A    
C10   C12   1.548080 S    
C122  H123  1.109814 S    
C81   H23   1.110940 S    
C21   C54   1.537950 S    
C109  H85   1.110443 S    
N12   O32   1.300266 A    
C121  H112  1.110953 S    
C31   C55   1.546880 S    
C107  C108  1.531709 S    
C15   C60   1.552568 S    
C92   C93   1.532450 S    
C32   C56   1.546947 S    
N7    O21   1.300216 A    
C95   H60   1.111217 S    
O4    C4    1.272512 A    
C16   C116  1.530416 S    
N3    C75   1.168636 T    
H1    C58   1.110088 S    
C21   C89   1.528554 S    
C117  C118  1.525863 S    
O11   Zn1   1.979142 S    
C13   C15   1.548042 S    
Zn3   N4    1.981074 S    
C118  H106  1.110425 S    
C14   C60   1.552583 S    
C10   C110  1.530541 S    
C82   H21   1.110872 S    
C120  C121  1.525919 S    
O16   Zn4   1.979140 S    
C99   C100  1.525474 S    
C89   C90   1.532229 S    
C119  C120  1.531669 S    
C96   H58   1.111542 S    
C99   H65   1.110912 S    
C13   C64   1.545263 S    
C18   C30   1.554268 S    
C86   C87   1.532410 S    
C13   C119  1.530449 S    
C81   C82   1.525468 S    
O5    Zn3   1.975443 S    
C29   C42   1.541328 S    
C110  H95   1.109814 S    
