data_mof_unit_62598.cif
_audit_creation_date              2012-10-26T19:14:23-0400
_audit_creation_method            fapswitch 2.2
_symmetry_space_group_name_H-M    P1
_symmetry_Int_Tables_number       1
_space_group_crystal_system       triclinic
_cell_length_a                    14.005025
_cell_length_b                    15.115787
_cell_length_c                    17.314403
_cell_angle_alpha                 92.895439
_cell_angle_beta                  85.963692
_cell_angle_gamma                 90.216105
_cell_volume                      3651.64742289

loop_
_atom_site_label
_atom_site_type_symbol
_atom_type_description
_atom_site_fract_x
_atom_site_fract_y
_atom_site_fract_z
_atom_type_partial_charge
Br1   Br    Br    0.716680 0.644436 0.616072 -0.301646
Br2   Br    Br    0.282782 0.357779 0.381808 -0.296665
Br3   Br    Br    0.339121 0.399547 0.098561 -0.382558
Br4   Br    Br    0.655215 0.613707 0.900780 -0.363256
Br5   Br    Br    0.460363 0.756111 0.670504 -0.335043
Br6   Br    Br    0.711358 0.230823 0.515735 -0.320686
C1    C     C_R   0.500053 0.669423 0.500827 0.613934
C2    C     C_R   0.410362 0.185330 0.523872 0.229939
C3    C     C_R   0.515713 0.902094 0.436790 -0.054651
C4    C     C_R   0.409718 0.093065 0.521740 -0.058091
C5    C     C_R   0.494113 0.949579 0.507194 -0.050203
C6    C     C_R   0.494947 0.045870 0.509777 -0.056716
C7    C     C_R   0.896007 0.450678 0.444672 -0.065173
C8    C     C_R   0.104372 0.550315 0.555023 -0.071935
C9    C     C_R   0.795796 0.448114 0.446934 0.390433
C10   C     C_R   0.204546 0.553623 0.551713 0.368182
C11   C     C_R   0.786965 0.561926 0.545486 0.312001
C12   C     C_R   0.499527 0.329695 0.504491 0.576154
C13   C     C_R   0.212849 0.437930 0.454834 0.333149
C14   C     C_R   0.887930 0.570196 0.539814 0.215512
C15   C     C_R   0.111919 0.429551 0.460975 0.221819
C16   C     C_R   0.487150 0.499721 0.650021 0.580872
C17   C     C_R   0.512838 0.500641 0.349947 0.593988
C18   C     C_R   0.945433 0.504176 0.497788 -0.013964
C19   C     C_R   0.054551 0.495688 0.502988 -0.016918
C20   C     C_R   0.479530 0.505039 0.735165 0.008401
C21   C     C_R   0.520133 0.497316 0.264706 0.012153
C22   C     C_R   0.555591 0.543190 0.773647 -0.088779
C23   C     C_R   0.476053 0.905400 0.575664 -0.064992
C24   C     C_R   0.442212 0.463373 0.225930 -0.104498
C25   C     C_R   0.550983 0.553743 0.853895 0.176846
C26   C     C_R   0.445725 0.455345 0.145596 0.172153
C27   C     C_R   0.469831 0.523686 0.897237 -0.007185
C28   C     C_R   0.527621 0.484154 0.102395 -0.006462
C29   C     C_R   0.392970 0.486630 0.859670 -0.065846
C30   C     C_R   0.606220 0.517123 0.140175 -0.064643
C31   C     C_R   0.397203 0.476413 0.779038 0.247197
C32   C     C_R   0.603213 0.524531 0.220886 0.269156
C33   C     C_2   0.465399 0.525314 0.981726 -0.054307
C34   C     C_R   0.582022 0.090173 0.504595 -0.071048
C35   C     C_2   0.532151 0.483828 0.017909 -0.060181
C36   C     C_R   0.479666 0.813336 0.574145 0.150914
C37   C     C_R   0.585109 0.182236 0.508197 0.146797
C38   C     C_R   0.499788 0.765372 0.503156 0.052108
C39   C     C_R   0.498454 0.232016 0.512217 0.018443
C40   C     C_R   0.517934 0.809925 0.434331 0.211344
Cl1   Cl    Cl    0.744449 0.378936 0.376478 -0.421921
Cl2   Cl    Cl    0.256690 0.628376 0.617186 -0.420529
Cl3   Cl    Cl    0.933787 0.676608 0.564674 -0.457597
Cl4   Cl    Cl    0.065822 0.323389 0.435705 -0.418356
Cl5   Cl    Cl    0.703333 0.572783 0.262918 -0.413249
Cl6   Cl    Cl    0.300103 0.422623 0.737021 -0.431826
Cl7   Cl    Cl    0.542709 0.752122 0.344300 -0.487732
Cl8   Cl    Cl    0.298598 0.236705 0.548327 -0.408851
Cu1   Cu    Cu3+1 0.403570 0.500010 0.500000 1.183305
Cu2   Cu    Cu3+1 0.596430 0.499990 0.500000 1.178495
H1    H     H_    0.618686 0.566393 0.741498 0.210056
H2    H     H_    0.648155 0.052606 0.499919 0.189864
H3    H     H_    0.530328 0.936796 0.383978 0.185953
H4    H     H_    0.342477 0.057824 0.529805 0.190274
H5    H     H_    0.378345 0.441468 0.257878 0.204422
H6    H     H_    0.933387 0.414690 0.396821 0.216599
H7    H     H_    0.067580 0.587345 0.602487 0.221593
H8    H     H_    0.594194 0.454293 0.985292 0.174976
H9    H     H_    0.403379 0.555060 0.014173 0.183333
H10   H     H_    0.330760 0.462912 0.893379 0.194038
H11   H     H_    0.669175 0.539558 0.106615 0.192010
H12   H     H_    0.461071 0.942648 0.630272 0.181866
N1    N     N_R   0.741310 0.499980 0.500000 -0.253293
N2    N     N_R   0.258690 0.500020 0.500000 -0.254567
O1    O     O_R   0.418570 0.628550 0.499990 -0.462615
O2    O     O_R   0.581430 0.371450 0.500010 -0.453646
O3    O     O_R   0.581440 0.628540 0.499990 -0.455161
O4    O     O_R   0.418560 0.371460 0.500010 -0.440198
O5    O     O_R   0.409120 0.500020 0.613600 -0.412062
O6    O     O_R   0.590880 0.499980 0.386400 -0.415281
O7    O     O_R   0.571990 0.500010 0.613600 -0.513396
O8    O     O_R   0.428010 0.499990 0.386400 -0.512558

loop_
_geom_bond_atom_site_label_1
_geom_bond_atom_site_label_2
_ccdc_geom_bond_type
Cu1   Cu2   S    
C11   N1    A    
Cu2   O6    S    
C23   C36   A    
C9    Cl1   S    
C17   O6    A    
Br5   C36   S    
C10   Cl2   S    
C30   H11   S    
C1    O3    A    
C22   H1    S    
C27   C33   S    
C13   C15   A    
C1    O1    A    
C21   C32   A    
C11   C14   A    
C2    C39   A    
Cu1   O4    S    
C34   C37   A    
C7    H6    S    
C14   C18   A    
Cu2   O2    S    
C25   C27   A    
C17   C21   S    
Cu1   O5    S    
C3    C40   A    
C8    C19   A    
C21   C24   A    
C33   H9    S    
C28   C35   S    
C36   C38   A    
C16   O5    A    
C15   Cl4   S    
C38   C40   A    
C12   O2    A    
C9    N1    A    
C34   H2    S    
Br4   C25   S    
C10   N2    A    
C18   C19   S    
C33   C35   D    
C2    Cl8   S    
C31   Cl6   S    
C32   Cl5   S    
C29   H10   S    
Cu2   O7    S    
C7    C18   A    
C3    H3    S    
C26   C28   A    
C6    C34   A    
C4    H4    S    
C14   Cl3   S    
C23   H12   S    
C3    C5    A    
C1    C38   S    
C37   C39   A    
C4    C6    A    
C2    C4    A    
Br6   C37   S    
C7    C9    A    
C8    C10   A    
C12   C39   S    
Cu1   O8    S    
C15   C19   A    
Cu2   O3    S    
C29   C31   A    
Br2   C13   S    
C20   C22   A    
C22   C25   A    
C16   O7    A    
C5    C6    S    
C20   C31   A    
Br1   C11   S    
C30   C32   A    
C24   C26   A    
C8    H7    S    
C40   Cl7   S    
C27   C29   A    
C28   C30   A    
C17   O8    A    
Br3   C26   S    
Cu1   N2    S    
C5    C23   A    
C12   O4    A    
Cu2   N1    S    
C16   C20   S    
C24   H5    S    
C13   N2    A    
C35   H8    S    
Cu1   O1    S    
