data_mof_unit_6848.cif
_audit_creation_date              2012-12-11T15:54:08-0500
_audit_creation_method            fapswitch 2.2
_symmetry_space_group_name_H-M    P1
_symmetry_Int_Tables_number       1
_space_group_crystal_system       triclinic
_cell_length_a                    10.738843
_cell_length_b                    10.698642
_cell_length_c                    17.095493
_cell_angle_alpha                 80.511808
_cell_angle_beta                  99.497293
_cell_angle_gamma                 118.906614
_cell_volume                      1687.58512076

loop_
_atom_site_label
_atom_site_type_symbol
_atom_type_description
_atom_site_fract_x
_atom_site_fract_y
_atom_site_fract_z
_atom_type_partial_charge
C1    C     C_R   0.361579 0.230079 0.627604 0.538987
C2    C     C_1   0.320418 0.159463 0.778097 -0.049929
C3    C     C_1   0.337174 0.663218 0.277492 -0.063658
C4    C     C_R   0.415079 0.619429 0.601531 0.588926
C5    C     C_1   0.324382 0.672522 0.206833 -0.063713
C6    C     C_R   0.809153 0.651979 0.152583 0.000612
C7    C     C_R   0.813991 0.540510 0.206980 0.020670
C8    C     C_R   0.804029 0.536139 0.285655 0.030494
C9    C     C_R   0.749628 0.733065 0.258347 -0.174940
C10   C     C_R   0.758500 0.737796 0.176627 -0.067339
C11   C     C_3   0.922413 0.486318 0.226274 -0.258000
C12   C     C_R   0.513399 0.730498 0.730787 0.067385
C13   C     C_3   0.909809 0.482188 0.313453 -0.265253
C14   C     C_R   0.787131 0.640299 0.314045 -0.005510
C15   C     C_R   0.287078 0.095830 0.173372 -0.010548
C16   C     C_R   0.779749 0.620653 0.626470 0.563629
C17   C     C_R   0.206353 0.149868 0.196727 -0.003651
C18   C     C_R   0.222838 0.179737 0.272996 0.010244
C19   C     C_R   0.415399 0.117117 0.305391 0.057447
C20   C     C_R   0.395641 0.083386 0.227028 -0.156046
C21   C     C_3   0.047920 0.087522 0.190149 -0.194551
C22   C     C_3   0.064595 0.119376 0.275231 -0.035324
C23   C     C_R   0.488341 0.746215 0.805741 -0.133490
C24   C     C_R   0.322665 0.159466 0.329224 0.042526
C25   C     C_R   0.944110 0.724028 0.851365 0.543032
C26   C     C_R   0.315814 0.706235 0.898407 0.543315
C27   C     C_R   0.283883 0.113664 0.857579 0.544121
C28   C     C_R   0.349835 0.222743 0.401873 0.573429
C29   C     C_R   0.882493 0.688332 0.081761 0.545770
C30   C     C_R   0.313067 0.700412 0.123776 0.545616
C31   C     C_R   0.252804 0.049089 0.095255 0.551643
C32   C     C_R   0.366030 0.653806 0.360522 0.551632
C33   C     C_R   0.763673 0.618645 0.396817 0.551452
C34   C     C_3   0.106712 0.429159 0.787669 0.179178
C35   C     C_R   0.354918 0.657278 0.836024 -0.016062
C36   C     C_R   0.262119 0.536591 0.796732 0.012116
C37   C     C_R   0.288904 0.513543 0.726266 -0.065324
C38   C     C_1   0.058413 0.424505 0.637273 0.275556
C39   C     C_1   0.727954 0.838467 0.120516 0.210558
C40   C     C_3   0.138262 0.395577 0.710648 -0.074230
C41   C     C_R   0.405366 0.619208 0.686025 0.033046
C42   C     C_1   0.845667 0.668418 0.703089 -0.018677
C43   C     C_1   0.891437 0.702870 0.769613 -0.066410
C44   C     C_1   0.345351 0.187794 0.709856 -0.044824
Cr1   Cr    Cr6+3 0.608440 0.389080 0.519680 1.067961
Cr2   Cr    Cr6+3 0.288640 0.400090 0.490760 1.013646
Cr3   Cr    Cr6+3 0.602940 0.710800 0.489510 1.032342
Cr4   Cr    Cr6+3 0.052530 0.947560 0.964210 1.015640
Cr5   Cr    Cr6+3 0.059970 0.626800 0.992920 1.027585
Cr6   Cr    Cr6+3 0.373320 0.938440 0.995370 1.052174
H1    H     H_    0.880534 0.378298 0.206077 0.172642
H2    H     H_    0.717096 0.803180 0.278135 0.154031
H3    H     H_    0.029943 0.566672 0.208882 0.156959
H4    H     H_    0.728969 0.842315 0.740362 0.230625
H5    H     H_    0.645179 0.934745 0.691500 0.238174
H6    H     H_    0.623175 0.170439 0.335975 0.230568
H7    H     H_    0.507754 0.999250 0.364653 0.251891
H8    H     H_    0.094712 0.328513 0.256239 0.250730
H9    H     H_    0.022892 0.236185 0.341186 0.258812
H10   H     H_    0.931730 0.443373 0.811594 0.286219
H11   H     H_    0.067950 0.601981 0.779262 0.228118
H12   H     H_    0.860758 0.371775 0.344097 0.154785
H13   H     H_    0.154807 0.308632 0.884253 0.263236
H14   H     H_    0.998035 0.214704 0.828242 0.242379
H15   H     H_    0.008850 0.561190 0.345528 0.145858
H16   H     H_    0.461669 0.044036 0.209235 0.150025
H17   H     H_    0.997387 0.971774 0.183625 0.123574
H18   H     H_    0.008057 0.151084 0.145167 0.181939
H19   H     H_    0.016212 0.022042 0.317998 0.145496
H20   H     H_    0.569409 0.837383 0.836048 0.154714
H21   H     H_    0.133588 0.288709 0.715074 0.109521
N1    N     N_3   0.643764 0.835120 0.698463 -0.583569
N2    N     N_3   0.526039 0.105116 0.360282 -0.593298
N3    N     N_3   0.021488 0.227962 0.280972 -0.640957
N4    N     N_3   0.010193 0.492820 0.771868 -0.575934
N5    N     N_3   0.064773 0.312270 0.852274 -0.599309
N6    N     N_1   0.995644 0.446755 0.579669 -0.255681
N7    N     N_1   0.704835 0.919803 0.075355 -0.268644
O1    O     O_R   0.754020 0.497590 0.609930 -0.477648
O2    O     O_R   0.406180 0.826930 0.920660 -0.509229
O3    O     O_R   0.358620 0.062870 0.901950 -0.482405
O4    O     O_R   0.481420 0.271390 0.600630 -0.491865
O5    O     O_R   0.163910 0.085460 0.050210 -0.507612
O6    O     O_R   0.935200 0.815170 0.045770 -0.505235
O7    O     O_R   0.916120 0.596690 0.069430 -0.512571
O8    O     O_R   0.192310 0.631200 0.086170 -0.509022
O9    O     O_R   0.406770 0.819480 0.096420 -0.494995
O10   O     O_R   0.359170 0.055960 0.064880 -0.494553
O11   O     O_3   0.161940 0.837600 0.984160 -0.292662
O12   O     O_R   0.295080 0.533620 0.397890 -0.496649
O13   O     O_R   0.263810 0.254550 0.589590 -0.531387
O14   O     O_R   0.300820 0.531200 0.560890 -0.502437
O15   O     O_R   0.491480 0.744020 0.564270 -0.468578
O16   O     O_R   0.726290 0.693800 0.583010 -0.501221
O17   O     O_R   0.747830 0.500190 0.434090 -0.491186
O18   O     O_R   0.475680 0.273800 0.437630 -0.458598
O19   O     O_R   0.257620 0.257160 0.413750 -0.534571
O20   O     O_R   0.485280 0.746620 0.388440 -0.526069
O21   O     O_R   0.720550 0.696220 0.420010 -0.514177
O22   O     O_3   0.500010 0.499990 0.499980 -0.293229
O23   O     O_R   0.163320 0.092900 0.874450 -0.542011
O24   O     O_R   0.934650 0.822080 0.882840 -0.491079
O25   O     O_R   0.915520 0.604140 0.893670 -0.509540
O26   O     O_R   0.191760 0.638110 0.923230 -0.497628

loop_
_geom_bond_atom_site_label_1
_geom_bond_atom_site_label_2
_ccdc_geom_bond_type
C28   O19   A    
C8    C13   S    
C40   H21   S    
C19   C20   A    
C25   C43   S    
Cr5   O26   S    
Cr3   O21   S    
C7    C8    A    
C13   H15   S    
H11   N4    S    
C7    C11   S    
C12   C23   A    
Cr3   O20   S    
C34   C40   S    
C20   H16   S    
C36   C37   A    
C37   C40   S    
C25   O24   A    
Cr2   O14   S    
C4    C41   S    
C31   O5    A    
H7    N2    S    
Cr6   O11   S    
C26   O26   A    
C32   O12   A    
C13   H12   S    
Cr1   O4    S    
C2    C44   T    
C2    C27   S    
C31   O10   A    
C30   O8    A    
C9    C10   A    
C22   H19   S    
C29   O7    A    
H5    N1    S    
C11   H3    S    
Cr6   O10   S    
C34   N4    S    
C12   N1    S    
C1    O13   A    
C21   C22   S    
C21   H17   S    
C23   H20   S    
C9    H2    S    
C14   C33   S    
C33   O17   A    
H14   N5    S    
C15   C20   A    
C39   N7    T    
Cr5   O7    S    
C19   N2    S    
C29   O6    A    
C25   O25   A    
Cr2   O13   S    
C1    O4    A    
C27   O23   A    
C26   O2    A    
Cr3   O22   S    
Cr4   O6    S    
C10   C39   S    
C33   O21   A    
C35   C36   A    
C9    C14   A    
C6    C10   A    
C12   C41   A    
C1    C44   S    
C27   O3    A    
Cr4   O24   S    
C17   C18   A    
Cr3   O15   S    
Cr1   O1    S    
H9    N3    S    
Cr6   O9    S    
Cr2   O19   S    
C23   C35   A    
Cr4   O11   S    
C21   H18   S    
C18   C24   A    
C42   C43   T    
C22   N3    S    
Cr1   O17   S    
C16   C42   S    
H8    N3    S    
C5    C30   S    
C15   C17   A    
Cr2   O22   S    
C8    C14   A    
H6    N2    S    
C18   C22   S    
Cr5   O8    S    
C24   C28   S    
Cr5   O11   S    
C3    C5    T    
Cr1   O22   S    
Cr6   O2    S    
Cr5   O25   S    
C15   C31   S    
C6    C7    A    
Cr2   O12   S    
C38   N6    T    
H10   N4    S    
C16   O16   A    
Cr4   O5    S    
C28   O18   A    
C16   O1    A    
C19   C24   A    
C38   C40   S    
C11   C13   S    
Cr4   O23   S    
Cr3   O16   S    
C32   O20   A    
C34   C36   S    
C37   C41   A    
C3    C32   S    
C17   C21   S    
C11   H1    S    
C4    O15   A    
C26   C35   S    
C6    C29   S    
H4    N1    S    
H13   N5    S    
C30   O9    A    
Cr1   O18   S    
Cr6   O3    S    
C34   N5    S    
C4    O14   A    
