data_mof_unit_36531.cif
_audit_creation_date              2012-12-11T14:05:38-0500
_audit_creation_method            fapswitch 2.2
_symmetry_space_group_name_H-M    P1
_symmetry_Int_Tables_number       1
_space_group_crystal_system       monoclinic
_cell_length_a                    17.61718
_cell_length_b                    17.617179
_cell_length_c                    17.617177
_cell_angle_alpha                 90.000012
_cell_angle_beta                  90.0
_cell_angle_gamma                 90.0
_cell_volume                      5467.75537806

loop_
_atom_site_label
_atom_site_type_symbol
_atom_type_description
_atom_site_fract_x
_atom_site_fract_y
_atom_site_fract_z
_atom_type_partial_charge
C1    C     C_R   0.684600 0.781639 0.218361 0.109686
C2    C     C_R   0.315400 0.781639 0.218361 0.109686
C3    C     C_R   0.904992 0.816788 0.617292 -0.119604
C4    C     C_R   0.095008 0.382708 0.816788 -0.119604
C5    C     C_R   0.904992 0.617292 0.183211 -0.119604
C6    C     C_R   0.095008 0.816788 0.617292 -0.119604
C7    C     C_R   0.904992 0.183212 0.382708 -0.119604
C8    C     C_R   0.816789 0.904992 0.617292 -0.119604
C9    C     C_R   0.183211 0.095008 0.382708 -0.119604
C10   C     C_R   0.617292 0.904992 0.183211 -0.119604
C11   C     C_R   0.382708 0.095008 0.816788 -0.119604
C12   C     C_R   0.183211 0.904992 0.382708 -0.119604
C13   C     C_R   0.218361 0.315400 0.781639 0.109686
C14   C     C_R   0.816788 0.095008 0.617292 -0.119603
C15   C     C_R   0.382708 0.904992 0.816789 -0.119604
C16   C     C_R   0.617292 0.095008 0.183211 -0.119604
C17   C     C_R   0.183211 0.095008 0.617292 -0.119604
C18   C     C_R   0.816789 0.904992 0.382708 -0.119604
C19   C     C_R   0.382708 0.095008 0.183211 -0.119604
C20   C     C_R   0.617292 0.904992 0.816788 -0.119604
C21   C     C_R   0.816788 0.095008 0.382708 -0.119604
C22   C     C_R   0.183211 0.904992 0.617292 -0.119604
C23   C     C_R   0.617292 0.095008 0.816788 -0.119604
C24   C     C_R   0.781639 0.684600 0.218361 0.109686
C25   C     C_R   0.382708 0.904992 0.183211 -0.119603
C26   C     C_R   0.315400 0.781639 0.781639 0.109686
C27   C     C_R   0.684600 0.218361 0.218361 0.109686
C28   C     C_R   0.781639 0.684600 0.781639 0.109686
C29   C     C_R   0.218361 0.315400 0.218361 0.109686
C30   C     C_R   0.218361 0.218361 0.684600 0.109687
C31   C     C_R   0.781639 0.781639 0.315400 0.109687
C32   C     C_R   0.218361 0.781639 0.315400 0.109686
C33   C     C_R   0.315400 0.218361 0.781639 0.109686
C34   C     C_R   0.781639 0.218361 0.684599 0.109686
C35   C     C_R   0.781639 0.218361 0.315400 0.109686
C36   C     C_R   0.218361 0.781639 0.684600 0.109686
C37   C     C_R   0.781639 0.781639 0.684600 0.109686
C38   C     C_R   0.218361 0.218361 0.315400 0.109687
C39   C     C_R   0.639674 0.831223 0.831222 0.057114
C40   C     C_R   0.360326 0.168777 0.168777 0.057113
C41   C     C_R   0.168777 0.639674 0.831222 0.057113
C42   C     C_R   0.831222 0.360326 0.168777 0.057113
C43   C     C_R   0.360326 0.168777 0.831223 0.057113
C44   C     C_R   0.218361 0.684600 0.218361 0.109686
C45   C     C_R   0.639674 0.831223 0.168777 0.057113
C46   C     C_R   0.831223 0.360326 0.831222 0.057113
C47   C     C_R   0.168777 0.639674 0.168777 0.057113
C48   C     C_R   0.639674 0.168777 0.168777 0.057113
C49   C     C_R   0.360326 0.831223 0.831223 0.057113
C50   C     C_R   0.168777 0.360326 0.168777 0.057113
C51   C     C_R   0.831223 0.639674 0.831223 0.057113
C52   C     C_R   0.360326 0.831223 0.168777 0.057113
C53   C     C_R   0.639674 0.168777 0.831222 0.057113
C54   C     C_R   0.831222 0.639674 0.168777 0.057113
C55   C     C_R   0.781639 0.315400 0.781639 0.109686
C56   C     C_R   0.168777 0.360326 0.831223 0.057114
C57   C     C_R   0.831222 0.168778 0.639674 0.057113
C58   C     C_R   0.168777 0.831223 0.360326 0.057113
C59   C     C_R   0.831223 0.831223 0.360326 0.057113
C60   C     C_R   0.168777 0.168777 0.639674 0.057113
C61   C     C_R   0.168777 0.168777 0.360326 0.057113
C62   C     C_R   0.831223 0.831223 0.639674 0.057113
C63   C     C_R   0.168777 0.831222 0.639674 0.057113
C64   C     C_R   0.831222 0.168777 0.360326 0.057113
C65   C     C_R   0.714688 0.714688 0.188625 -0.209247
C66   C     C_R   0.315400 0.218361 0.218361 0.109686
C67   C     C_R   0.285312 0.285312 0.811375 -0.209247
C68   C     C_R   0.285312 0.714688 0.188625 -0.209247
C69   C     C_R   0.714688 0.285312 0.811375 -0.209247
C70   C     C_R   0.285312 0.285312 0.188625 -0.209247
C71   C     C_R   0.714688 0.714688 0.811375 -0.209246
C72   C     C_R   0.714688 0.285312 0.188625 -0.209246
C73   C     C_R   0.285312 0.714688 0.811375 -0.209246
C74   C     C_R   0.188625 0.714688 0.714688 -0.209247
C75   C     C_R   0.811375 0.285312 0.285312 -0.209247
C76   C     C_R   0.188625 0.285312 0.714688 -0.209247
C77   C     C_R   0.684600 0.781639 0.781639 0.109686
C78   C     C_R   0.811375 0.714688 0.285312 -0.209247
C79   C     C_R   0.188625 0.285312 0.285312 -0.209247
C80   C     C_R   0.811375 0.714688 0.714688 -0.209247
C81   C     C_R   0.188625 0.714688 0.285312 -0.209245
C82   C     C_R   0.811375 0.285312 0.714688 -0.209247
C83   C     C_R   0.714688 0.188625 0.714688 -0.209247
C84   C     C_R   0.285312 0.811374 0.285312 -0.209246
C85   C     C_R   0.714688 0.188625 0.285312 -0.209246
C86   C     C_R   0.285312 0.811375 0.714688 -0.209246
C87   C     C_R   0.285312 0.188625 0.285312 -0.209247
C88   C     C_R   0.781639 0.315400 0.218361 0.109686
C89   C     C_R   0.714688 0.811375 0.714688 -0.209247
C90   C     C_R   0.285312 0.188625 0.714688 -0.209247
C91   C     C_R   0.714688 0.811375 0.285312 -0.209247
C92   C     C_R   0.617292 0.816788 0.904992 -0.119604
C93   C     C_R   0.382708 0.183211 0.095008 -0.119604
C94   C     C_R   0.183211 0.617292 0.904992 -0.119604
C95   C     C_R   0.816788 0.382708 0.095008 -0.119604
C96   C     C_R   0.382708 0.183211 0.904992 -0.119604
C97   C     C_R   0.617292 0.816788 0.095008 -0.119604
C98   C     C_R   0.816788 0.382708 0.904992 -0.119604
C99   C     C_R   0.218361 0.684600 0.781639 0.109686
C100  C     C_R   0.183211 0.617292 0.095008 -0.119604
C101  C     C_R   0.617292 0.183211 0.095008 -0.119604
C102  C     C_R   0.382708 0.816789 0.904992 -0.119604
C103  C     C_R   0.183211 0.382708 0.095008 -0.119604
C104  C     C_R   0.816789 0.617292 0.904992 -0.119603
C105  C     C_R   0.382708 0.816788 0.095008 -0.119603
C106  C     C_R   0.617292 0.183212 0.904992 -0.119604
C107  C     C_R   0.816788 0.617292 0.095008 -0.119604
C108  C     C_R   0.183211 0.382708 0.904992 -0.119604
C109  C     C_R   0.904992 0.617292 0.816789 -0.119603
C110  C     C_R   0.684600 0.218361 0.781639 0.109686
C111  C     C_R   0.095008 0.382708 0.183211 -0.119604
C112  C     C_R   0.904992 0.183211 0.617292 -0.119603
C113  C     C_R   0.095008 0.816789 0.382708 -0.119603
C114  C     C_R   0.904992 0.382708 0.183211 -0.119603
C115  C     C_R   0.095008 0.617292 0.816788 -0.119604
C116  C     C_R   0.904992 0.816789 0.382708 -0.119603
C117  C     C_R   0.095008 0.183211 0.617292 -0.119604
C118  C     C_R   0.095008 0.617292 0.183211 -0.119604
C119  C     C_R   0.904992 0.382708 0.816788 -0.119604
C120  C     C_R   0.095008 0.183212 0.382708 -0.119604
H1    H     H_    0.616594 0.762715 0.933748 0.079570
H2    H     H_    0.383405 0.762715 0.933748 0.079570
H3    H     H_    0.237285 0.383406 0.066252 0.079570
H4    H     H_    0.762715 0.616594 0.933748 0.079570
H5    H     H_    0.383406 0.762715 0.066252 0.079569
H6    H     H_    0.616594 0.237285 0.933748 0.079570
H7    H     H_    0.762715 0.616594 0.066252 0.079570
H8    H     H_    0.237285 0.383406 0.933748 0.079570
H9    H     H_    0.933748 0.616594 0.762715 0.079569
H10   H     H_    0.066252 0.383406 0.237285 0.079570
H11   H     H_    0.933748 0.237285 0.616594 0.079569
H12   H     H_    0.383406 0.237285 0.066252 0.079570
H13   H     H_    0.066252 0.762715 0.383406 0.079570
H14   H     H_    0.933748 0.383406 0.237285 0.079570
H15   H     H_    0.066252 0.616594 0.762715 0.079569
H16   H     H_    0.933748 0.762715 0.383406 0.079570
H17   H     H_    0.066252 0.237285 0.616594 0.079570
H18   H     H_    0.066252 0.616595 0.237285 0.079570
H19   H     H_    0.933748 0.383406 0.762715 0.079570
H20   H     H_    0.066252 0.237285 0.383406 0.079570
H21   H     H_    0.933748 0.762715 0.616594 0.079570
H22   H     H_    0.066252 0.383406 0.762715 0.079570
H23   H     H_    0.237285 0.616594 0.933748 0.079570
H24   H     H_    0.933748 0.616594 0.237285 0.079570
H25   H     H_    0.066252 0.762715 0.616594 0.079570
H26   H     H_    0.933748 0.237285 0.383406 0.079570
H27   H     H_    0.762715 0.933748 0.616594 0.079570
H28   H     H_    0.237285 0.066252 0.383406 0.079570
H29   H     H_    0.616594 0.933748 0.237285 0.079570
H30   H     H_    0.383406 0.066252 0.762715 0.079570
H31   H     H_    0.237285 0.933748 0.383406 0.079570
H32   H     H_    0.762715 0.066252 0.616594 0.079569
H33   H     H_    0.383406 0.933748 0.762715 0.079570
H34   H     H_    0.762715 0.383406 0.066252 0.079570
H35   H     H_    0.616594 0.066252 0.237285 0.079570
H36   H     H_    0.237285 0.066252 0.616594 0.079570
H37   H     H_    0.762715 0.933748 0.383406 0.079570
H38   H     H_    0.383406 0.066252 0.237285 0.079570
H39   H     H_    0.616594 0.933748 0.762715 0.079570
H40   H     H_    0.762715 0.066252 0.383406 0.079569
H41   H     H_    0.237285 0.933748 0.616594 0.079570
H42   H     H_    0.616594 0.066252 0.762715 0.079570
H43   H     H_    0.383406 0.933748 0.237285 0.079570
H44   H     H_    0.692350 0.692350 0.136309 0.098903
H45   H     H_    0.383406 0.237285 0.933748 0.079570
H46   H     H_    0.307649 0.307649 0.863691 0.098903
H47   H     H_    0.307649 0.692351 0.136309 0.098903
H48   H     H_    0.692351 0.307649 0.863691 0.098903
H49   H     H_    0.307649 0.307649 0.136309 0.098903
H50   H     H_    0.692351 0.692351 0.863691 0.098903
H51   H     H_    0.692351 0.307649 0.136309 0.098903
H52   H     H_    0.307649 0.692351 0.863691 0.098902
H53   H     H_    0.136309 0.692350 0.692350 0.098903
H54   H     H_    0.863691 0.307650 0.307650 0.098903
H55   H     H_    0.136309 0.307649 0.692350 0.098903
H56   H     H_    0.616594 0.762715 0.066252 0.079570
H57   H     H_    0.863691 0.692351 0.307649 0.098903
H58   H     H_    0.136309 0.307649 0.307650 0.098903
H59   H     H_    0.863691 0.692351 0.692351 0.098903
H60   H     H_    0.136309 0.692350 0.307649 0.098902
H61   H     H_    0.863691 0.307650 0.692350 0.098903
H62   H     H_    0.692350 0.136309 0.692350 0.098903
H63   H     H_    0.307650 0.863690 0.307650 0.098902
H64   H     H_    0.692350 0.136309 0.307649 0.098902
H65   H     H_    0.307649 0.863691 0.692351 0.098903
H66   H     H_    0.307649 0.136309 0.307649 0.098903
H67   H     H_    0.762715 0.383406 0.933748 0.079570
H68   H     H_    0.692350 0.863691 0.692350 0.098903
H69   H     H_    0.307649 0.136309 0.692351 0.098903
H70   H     H_    0.692351 0.863691 0.307649 0.098903
H71   H     H_    0.237285 0.616594 0.066252 0.079570
H72   H     H_    0.616594 0.237285 0.066252 0.079570
N1    N     N_R   0.584840 0.879720 0.932190 -0.040155
N2    N     N_R   0.415160 0.879720 0.932190 -0.040156
N3    N     N_R   0.120280 0.415160 0.067810 -0.040155
N4    N     N_R   0.879720 0.584840 0.932190 -0.040156
N5    N     N_R   0.415160 0.879720 0.067810 -0.040155
N6    N     N_R   0.584840 0.120280 0.932190 -0.040155
N7    N     N_R   0.879720 0.584840 0.067810 -0.040155
N8    N     N_R   0.120280 0.415160 0.932190 -0.040155
N9    N     N_R   0.932190 0.584840 0.879720 -0.040156
N10   N     N_R   0.067810 0.415160 0.120280 -0.040155
N11   N     N_R   0.932190 0.120280 0.584840 -0.040155
N12   N     N_R   0.415160 0.120280 0.067810 -0.040155
N13   N     N_R   0.067810 0.879720 0.415160 -0.040156
N14   N     N_R   0.932190 0.415160 0.120280 -0.040155
N15   N     N_R   0.067810 0.584840 0.879720 -0.040155
N16   N     N_R   0.932190 0.879720 0.415160 -0.040155
N17   N     N_R   0.067810 0.120280 0.584840 -0.040155
N18   N     N_R   0.067810 0.584840 0.120280 -0.040156
N19   N     N_R   0.932190 0.415160 0.879720 -0.040155
N20   N     N_R   0.067810 0.120280 0.415160 -0.040155
N21   N     N_R   0.932190 0.879720 0.584840 -0.040155
N22   N     N_R   0.067810 0.415160 0.879720 -0.040155
N23   N     N_R   0.120280 0.584840 0.932190 -0.040155
N24   N     N_R   0.932190 0.584840 0.120280 -0.040155
N25   N     N_R   0.067810 0.879720 0.584840 -0.040155
N26   N     N_R   0.932190 0.120280 0.415160 -0.040155
N27   N     N_R   0.879720 0.932190 0.584840 -0.040155
N28   N     N_R   0.120280 0.067810 0.415160 -0.040155
N29   N     N_R   0.584840 0.932190 0.120280 -0.040155
N30   N     N_R   0.415160 0.067810 0.879720 -0.040155
N31   N     N_R   0.120280 0.932190 0.415160 -0.040155
N32   N     N_R   0.879720 0.067810 0.584840 -0.040155
N33   N     N_R   0.415160 0.932190 0.879720 -0.040155
N34   N     N_R   0.879720 0.415160 0.067810 -0.040155
N35   N     N_R   0.584840 0.067810 0.120280 -0.040155
N36   N     N_R   0.120280 0.067810 0.584840 -0.040155
N37   N     N_R   0.879720 0.932190 0.415160 -0.040155
N38   N     N_R   0.415160 0.067810 0.120280 -0.040155
N39   N     N_R   0.584840 0.932190 0.879720 -0.040155
N40   N     N_R   0.879720 0.067810 0.415160 -0.040155
N41   N     N_R   0.120280 0.932190 0.584840 -0.040155
N42   N     N_R   0.584840 0.067810 0.879720 -0.040155
N43   N     N_R   0.415160 0.932190 0.120280 -0.040156
N44   N     N_R   0.415160 0.120280 0.932190 -0.040155
N45   N     N_R   0.584840 0.879720 0.067810 -0.040155
N46   N     N_R   0.879720 0.415160 0.932190 -0.040155
N47   N     N_R   0.120280 0.584840 0.067810 -0.040155
N48   N     N_R   0.584840 0.120280 0.067810 -0.040155
Ni1   Ni    Ni4+2 0.500000 0.880920 0.000000 0.207848
Ni2   Ni    Ni4+2 0.119080 0.000000 0.500000 0.207848
Ni3   Ni    Ni4+2 0.500000 1.000000 0.119080 0.207848
Ni4   Ni    Ni4+2 0.500000 0.000000 0.880920 0.207848
Ni5   Ni    Ni4+2 0.500000 0.119080 0.000000 0.207848
Ni6   Ni    Ni4+2 0.119080 0.500000 0.000000 0.207848
Ni7   Ni    Ni4+2 0.880920 0.500000 0.000000 0.207848
Ni8   Ni    Ni4+2 0.000000 0.500000 0.880920 0.207848
Ni9   Ni    Ni4+2 0.000000 0.500000 0.119080 0.207848
Ni10  Ni    Ni4+2 0.000000 0.119080 0.500000 0.207848
Ni11  Ni    Ni4+2 0.000000 0.880920 0.500000 0.207848
Ni12  Ni    Ni4+2 0.880920 0.000000 0.500000 0.207848

loop_
_geom_bond_atom_site_label_1
_geom_bond_atom_site_label_2
_ccdc_geom_bond_type
C53   C110  S    
C120  N20   A    
C16   N35   A    
C108  N8    A    
N2    Ni1   S    
C115  N15   A    
C78   H57   S    
N26   Ni10  S    
C2    C84   A    
C3    H21   S    
C32   C58   S    
C40   C93   A    
C30   C90   A    
C101  H72   S    
C103  H3    S    
N15   Ni8   S    
C16   C48   A    
C37   C62   S    
N21   N27   A    
N34   Ni7   S    
N3    N10   A    
C22   H41   S    
N33   Ni4   S    
C32   C81   A    
C82   H61   S    
C77   C89   A    
C94   N23   A    
C98   H67   S    
C54   C107  A    
C15   N33   A    
N47   Ni6   S    
C9    C61   A    
C94   H23   S    
C39   C77   S    
N2    N33   A    
C14   N32   A    
C27   C48   S    
C70   H49   S    
C25   H43   S    
C2    C68   A    
C10   H29   S    
C4    H22   S    
C28   C51   S    
C57   C112  A    
C38   C79   A    
C48   C101  A    
N31   Ni2   S    
C24   C54   S    
C22   N41   A    
C26   C73   A    
C11   N30   A    
C100  N47   A    
C6    C63   A    
C31   C59   S    
C27   C85   A    
N14   Ni9   S    
N30   N44   A    
C56   C108  A    
C21   C64   A    
N38   Ni3   S    
C11   H30   S    
C10   N29   A    
C22   C63   A    
C23   N42   A    
C53   C106  A    
C42   C114  A    
C47   C118  A    
N8    Ni6   S    
N24   Ni9   S    
C20   H39   S    
C30   C60   S    
N46   Ni7   S    
N14   N34   A    
C34   C57   S    
N8    N22   A    
C41   C99   S    
N35   Ni3   S    
C11   C43   A    
C35   C64   S    
C120  H20   S    
N17   N36   A    
C36   C63   S    
N18   Ni9   S    
N12   Ni5   S    
C44   C47   S    
N7    Ni7   S    
N17   Ni10  S    
C106  N6    A    
C7    H26   S    
C12   C58   A    
C105  N5    A    
C46   C98   A    
C50   C103  A    
C51   C109  A    
C20   N39   A    
C113  H13   S    
C4    C56   A    
C101  N48   A    
C7    N26   A    
C12   H31   S    
C21   N40   A    
C103  N3    A    
C41   C115  A    
C102  N2    A    
C111  N10   A    
C72   C88   A    
N29   Ni3   S    
C23   C53   A    
C87   H66   S    
C29   C50   S    
C84   H63   S    
N5    N43   A    
C32   C84   A    
C91   H70   S    
C96   N44   A    
C4    N22   A    
C75   C88   A    
C42   C95   A    
C33   C43   S    
C72   H51   S    
C5    C54   A    
C74   H53   S    
C44   C81   A    
N6    N42   A    
C26   C49   S    
N25   N41   A    
C49   C102  A    
C6    H25   S    
N30   Ni4   S    
C59   C116  A    
C5    H24   S    
C92   H1    S    
N20   N28   A    
C36   C86   A    
C51   C104  A    
C5    N24   A    
N28   Ni2   S    
C17   N36   A    
N13   N31   A    
C47   C100  A    
N7    N24   A    
C83   H62   S    
N29   N45   A    
C73   H52   S    
N16   Ni11  S    
C113  N13   A    
N19   Ni8   S    
C46   C55   S    
C80   H59   S    
C12   N31   A    
C37   C80   A    
N13   Ni11  S    
C58   C113  A    
C6    N25   A    
C30   C76   A    
C69   C110  A    
C18   C59   A    
C111  H10   S    
C1    C65   A    
C41   C94   A    
C29   C79   A    
C13   C76   A    
C26   C86   A    
C28   C71   A    
N5    Ni1   S    
C16   H35   S    
N15   N23   A    
C43   C96   A    
C104  N4    A    
N19   N46   A    
N36   Ni2   S    
C60   C117  A    
C116  N16   A    
N3    Ni6   S    
C108  H8    S    
C55   C82   A    
C61   C120  A    
C93   N12   A    
N43   Ni3   S    
C55   C69   A    
C2    C52   S    
N6    Ni5   S    
N23   Ni6   S    
N40   Ni12  S    
C24   C65   A    
C67   H46   S    
C24   C78   A    
C89   H68   S    
C8    C62   A    
C52   C105  A    
C92   N1    A    
C85   H64   S    
C31   C91   A    
N27   Ni12  S    
N11   N32   A    
N4    Ni7   S    
C109  H9    S    
N48   Ni5   S    
C21   H40   S    
C44   C68   A    
C8    H27   S    
C42   C88   S    
C34   C83   A    
N1    N39   A    
N20   Ni10  S    
C93   H12   S    
C39   C92   A    
C71   C77   A    
C33   C67   A    
C31   C78   A    
C29   C70   A    
C13   C67   A    
C3    C62   A    
C73   C99   A    
C14   C57   A    
C83   C110  A    
C36   C74   A    
C34   C82   A    
C97   H56   S    
C19   H38   S    
N1    Ni1   S    
N44   Ni5   S    
C76   H55   S    
C117  H17   S    
C35   C75   A    
C81   H60   S    
C79   H58   S    
C18   N37   A    
N22   Ni8   S    
C38   C61   S    
C74   C99   A    
C116  H16   S    
N45   Ni1   S    
C3    N21   A    
C97   N45   A    
C106  H6    S    
C9    H28   S    
C119  N19   A    
C105  H5    S    
C38   C87   A    
C118  N18   A    
C95   H34   S    
C119  H19   S    
N18   N47   A    
C13   C56   S    
C117  N17   A    
N39   Ni4   S    
C20   C39   A    
C25   C52   A    
C107  H7    S    
C8    N27   A    
C45   C97   A    
C33   C90   A    
N9    Ni8   S    
C107  N7    A    
N4    N9    A    
C35   C85   A    
C1    C45   S    
C15   H33   S    
C66   C70   A    
N11   Ni10  S    
C115  H15   S    
C66   C87   A    
N35   N48   A    
C65   H44   S    
C109  N9    A    
C50   C111  A    
C114  H14   S    
C37   C89   A    
C46   C119  A    
N21   Ni11  S    
C15   C49   A    
C112  H11   S    
N12   N38   A    
N26   N40   A    
C28   C80   A    
C19   N38   A    
C71   H50   S    
C7    C64   A    
C95   N34   A    
N37   Ni12  S    
C69   H48   S    
C19   C40   A    
N32   Ni12  S    
C17   C60   A    
C100  H71   S    
C68   H47   S    
C114  N14   A    
N41   Ni2   S    
N10   Ni9   S    
C9    N28   A    
C25   N43   A    
C86   H65   S    
C1    C91   A    
C10   C45   A    
C14   H32   S    
C18   H37   S    
C102  H2    S    
C96   H45   S    
C98   N46   A    
C40   C66   S    
N25   Ni11  S    
C112  N11   A    
C104  H4    S    
C118  H18   S    
C17   H36   S    
C23   H42   S    
C27   C72   A    
N16   N37   A    
N42   Ni4   S    
C75   H54   S    
C90   H69   S    
