data_mof_unit_26909.cif
_audit_creation_date              2013-03-05T16:36:37-0500
_audit_creation_method            fapswitch 2.2
_symmetry_space_group_name_H-M    P1
_symmetry_Int_Tables_number       1
_space_group_crystal_system       triclinic
_cell_length_a                    17.907906
_cell_length_b                    9.07591
_cell_length_c                    7.98368
_cell_angle_alpha                 90.000325
_cell_angle_beta                  89.991538
_cell_angle_gamma                 90.004443
_cell_volume                      1297.59182862

loop_
_atom_site_label
_atom_site_type_symbol
_atom_site_description
_atom_site_fract_x
_atom_site_fract_y
_atom_site_fract_z
_atom_type_partial_charge
O1    O     O_R   0.500000 0.288390 0.642760 -0.573833
O2    O     O_R   0.500000 0.711610 0.357240 -0.573797
O3    O     O_R   0.500000 0.711610 0.642760 -0.573795
O4    O     O_R   0.500000 0.288390 0.357240 -0.573831
C1    C     C_R   0.500000 0.220836 0.500000 0.832855
C2    C     C_R   0.500000 0.779164 0.500000 0.832952
O5    O     O_R   0.391250 0.500000 0.642840 -0.580316
O6    O     O_R   0.608750 0.500000 0.357160 -0.580335
O7    O     O_R   0.608750 0.500000 0.642840 -0.580311
O8    O     O_R   0.391250 0.500000 0.357160 -0.580297
C3    C     C_1   0.500000 0.065587 0.500000 -0.175151
C4    C     C_1   0.500000 0.934413 0.500000 -0.175169
C5    C     C_R   0.355264 0.499953 0.500014 0.807792
C6    C     C_R   0.644734 0.499955 0.499990 0.807811
Cu1   Cu    Cu3+1 0.500000 0.500000 0.669080 0.985447
Cu2   Cu    Cu3+1 0.500000 0.500000 0.330920 0.985454
C7    C     C_R   0.847616 0.494191 0.650585 0.165852
C8    C     C_R   0.152357 0.493989 0.349461 0.165936
C9    C     C_R   0.152352 0.505005 0.650730 0.166025
C10   C     C_R   0.847664 0.504658 0.349319 0.165891
C11   C     C_R   0.769833 0.519951 0.650608 0.116998
C12   C     C_R   0.230148 0.519797 0.349412 0.117062
C13   C     C_R   0.230173 0.479584 0.650727 0.116987
C14   C     C_R   0.769833 0.479246 0.349357 0.116852
C15   C     C_R   0.728717 0.499785 0.499972 -0.144648
C16   C     C_R   0.271277 0.499790 0.500053 -0.144623
C17   C     C_R   0.886465 0.499506 0.499990 0.044180
C18   C     C_R   0.113532 0.499383 0.500113 0.043908
C19   C     C_1   0.966634 0.499356 0.500095 -0.008711
C20   C     C_1   0.033365 0.499321 0.500131 -0.008770
N1    N     N_1   0.500000 0.500000 0.076820 -0.058298
N2    N     N_1   0.500000 0.500000 0.923180 -0.058303
C21   C     C_3   0.889564 0.457029 0.807387 -0.903125
H1    H     H_    0.851342 0.406505 0.898541 0.245873
H2    H     H_    0.932436 0.371166 0.783275 0.238112
H3    H     H_    0.917666 0.557326 0.855577 0.247772
C22   C     C_3   0.110325 0.457270 0.192582 -0.902915
H4    H     H_    0.148423 0.406739 0.101187 0.245898
H5    H     H_    0.067334 0.371595 0.216563 0.238256
H6    H     H_    0.082354 0.557788 0.144617 0.247437
C23   C     C_3   0.110291 0.541705 0.807603 -0.902787
H7    H     H_    0.082312 0.441168 0.855586 0.247677
H8    H     H_    0.148371 0.592275 0.898998 0.245857
H9    H     H_    0.067299 0.627371 0.783586 0.238025
C24   C     C_3   0.889783 0.540045 0.192143 -0.902544
H10   H     H_    0.933654 0.624199 0.215547 0.238058
H11   H     H_    0.916733 0.438446 0.143931 0.247512
H12   H     H_    0.851890 0.592003 0.101253 0.245865
C25   C     C_3   0.732889 0.577300 0.806559 -0.819012
H13   H     H_    0.773650 0.620704 0.897322 0.227702
H14   H     H_    0.696522 0.672675 0.775921 0.238460
H15   H     H_    0.699911 0.487372 0.863654 0.253711
C26   C     C_3   0.267087 0.577282 0.193542 -0.819224
H16   H     H_    0.303470 0.672615 0.224288 0.238467
H17   H     H_    0.300051 0.487407 0.136329 0.253806
H18   H     H_    0.226332 0.620855 0.102919 0.227676
C27   C     C_3   0.267177 0.422317 0.806598 -0.819174
H19   H     H_    0.226469 0.378597 0.897270 0.227668
H20   H     H_    0.303661 0.327130 0.775875 0.238505
H21   H     H_    0.300045 0.512366 0.863746 0.253782
C28   C     C_3   0.732812 0.421704 0.193611 -0.818930
H22   H     H_    0.699933 0.511630 0.136287 0.253748
H23   H     H_    0.773493 0.377863 0.102948 0.227639
H24   H     H_    0.696325 0.326575 0.224585 0.238391

loop_
_geom_bond_atom_site_label_1
_geom_bond_atom_site_label_2
_geom_bond_distance
_ccdc_geom_bond_type
O4    Cu2   1.932017 S    
C28   H24   1.110576 S    
C9    C13   1.412586 A    
O7    C6    1.309846 A    
C19   C20   1.195016 T    
O1    Cu1   1.932014 S    
C10   C17   1.390050 A    
C17   C19   1.435662 S    
C8    C12   1.412615 A    
O2    Cu2   1.932013 S    
C23   H7    1.109175 S    
N1    N2    1.226613 T    
C11   C15   1.422035 A    
C3    C4    1.190527 T    
C25   H15   1.105695 S    
O3    C2    1.294194 A    
O5    Cu1   1.958751 S    
C21   H1    1.099176 S    
O7    Cu1   1.958689 S    
O3    Cu1   1.932016 S    
Cu1   N2    2.028652 S    
O6    Cu2   1.958751 S    
O8    Cu2   1.958689 S    
C24   H10   1.111504 S    
Cu2   N1    2.028652 S    
C9    C18   1.389998 A    
C23   H8    1.099176 S    
C9    C23   1.498874 S    
C27   H19   1.101234 S    
C14   C28   1.502856 S    
C7    C21   1.498507 S    
O1    C1    1.294191 A    
C11   C25   1.502866 S    
C21   H2    1.110777 S    
C22   H4    1.099148 S    
C1    C3    1.409027 S    
C12   C26   1.502690 S    
C26   H17   1.105652 S    
C6    C15   1.503970 S    
C2    C4    1.409028 S    
C28   H22   1.105621 S    
C23   H9    1.110921 S    
C5    C16   1.504043 S    
C26   H18   1.101231 S    
C27   H20   1.110584 S    
Cu1   Cu2   2.699762 S    
C12   C16   1.422023 A    
C22   H6    1.109036 S    
C7    C17   1.389824 A    
C10   C24   1.498792 S    
O5    C5    1.309864 A    
C21   H3    1.109010 S    
C8    C18   1.390026 A    
C14   C15   1.422165 A    
C22   H5    1.110797 S    
C25   H13   1.101442 S    
C24   H11   1.109657 S    
C13   C16   1.422049 A    
C13   C27   1.502719 S    
C10   C14   1.412722 A    
O4    C1    1.294194 A    
C27   H21   1.105695 S    
O6    C6    1.309873 A    
C24   H12   1.099826 S    
C26   H16   1.110554 S    
C8    C22   1.498846 S    
C28   H23   1.101304 S    
C7    C11   1.412432 A    
O2    C2    1.294191 A    
C18   C20   1.435611 S    
C25   H14   1.110590 S    
O8    C5    1.309889 A    
