data_mof_unit_31434.cif
_audit_creation_date              2012-12-11T14:58:31-0500
_audit_creation_method            fapswitch 2.2
_symmetry_space_group_name_H-M    P1
_symmetry_Int_Tables_number       1
_space_group_crystal_system       triclinic
_cell_length_a                    11.03307
_cell_length_b                    10.999365
_cell_length_c                    18.777671
_cell_angle_alpha                 90.385951
_cell_angle_beta                  90.511392
_cell_angle_gamma                 59.126333
_cell_volume                      1955.80962845

loop_
_atom_site_label
_atom_site_type_symbol
_atom_type_description
_atom_site_fract_x
_atom_site_fract_y
_atom_site_fract_z
_atom_type_partial_charge
C1    C     C_R   0.358429 0.774397 0.398344 0.542193
C2    C     C_R   0.611229 0.084410 0.173174 -0.019188
C3    C     C_R   0.368380 0.325332 0.161884 0.018317
C4    C     C_R   0.485304 0.233666 0.274706 -0.101836
C5    C     C_R   0.488320 0.219993 0.201695 0.004267
C6    C     C_R   0.091083 0.715803 0.301824 -0.007712
C7    C     C_R   0.958366 0.819727 0.328312 0.275744
C8    C     C_R   0.592890 0.972369 0.153547 -0.101201
C9    C     C_R   0.701884 0.850048 0.121309 -0.136343
C10   C     C_R   0.264175 0.447913 0.196092 -0.100300
C11   C     C_R   0.262287 0.459398 0.269901 -0.020556
C12   C     C_R   0.388730 0.356640 0.386461 0.541224
C13   C     C_R   0.859487 0.783046 0.346777 -0.088182
C14   C     C_R   0.895933 0.642319 0.343995 -0.157393
C15   C     C_R   0.032697 0.537094 0.325985 -0.080473
C16   C     C_R   0.129626 0.572670 0.302149 0.010796
C17   C     C_R   0.371848 0.347587 0.309837 -0.004368
C18   C     C_R   0.904718 0.321805 0.307798 -0.046172
C19   C     C_R   0.949788 0.310254 0.238157 0.333948
C20   C     C_R   0.853160 0.346161 0.182105 0.120071
C21   C     C_R   0.709168 0.405519 0.195648 -0.025323
C22   C     C_R   0.663344 0.422834 0.266013 -0.085216
C23   C     C_R   0.713911 0.415043 0.394752 0.535706
C24   C     C_R   0.761328 0.383855 0.321861 0.011241
C25   C     C_R   0.472269 0.760286 0.284660 -0.112082
C26   C     C_R   0.458726 0.779660 0.211492 0.299987
C27   C     C_R   0.328806 0.879163 0.182849 0.035762
C28   C     C_R   0.214362 0.961783 0.228240 -0.066751
C29   C     C_R   0.228117 0.941668 0.301174 -0.131368
C30   C     C_R   0.353149 0.832125 0.328516 -0.050999
C31   C     C_R   0.485148 0.256180 0.715509 -0.083284
C32   C     C_R   0.456460 0.224618 0.780852 0.261224
C33   C     C_R   0.330224 0.325148 0.816835 0.026087
C34   C     C_R   0.345621 0.766166 0.605462 0.544562
C35   C     C_R   0.235811 0.453806 0.783667 -0.189594
C36   C     C_R   0.260940 0.477161 0.713902 -0.147096
C37   C     C_R   0.384236 0.374937 0.679290 -0.022830
C38   C     C_R   0.903864 0.396672 0.707990 -0.135772
C39   C     C_R   0.940991 0.376537 0.779269 -0.168067
C40   C     C_R   0.921355 0.281861 0.820127 0.028570
C41   C     C_R   0.878609 0.194697 0.785919 0.223483
C42   C     C_R   0.842961 0.214665 0.713806 -0.105448
C43   C     C_R   0.846420 0.321970 0.675982 -0.014106
C44   C     C_R   0.209101 0.818773 0.715632 -0.131799
C45   C     C_R   0.408532 0.381328 0.604221 0.564205
C46   C     C_R   0.204403 0.824552 0.788997 -0.119606
C47   C     C_R   0.309021 0.832674 0.827342 0.017049
C48   C     C_R   0.426896 0.819020 0.791963 -0.104832
C49   C     C_R   0.434545 0.807850 0.718468 -0.113829
C50   C     C_R   0.324798 0.809071 0.679727 0.020677
C51   C     C_R   0.906898 0.318863 0.110493 0.593184
C52   C     C_R   0.330877 0.293621 0.092067 0.565165
C53   C     C_R   0.304559 0.904169 0.106841 0.586991
C54   C     C_R   0.947387 0.280044 0.897001 0.571184
C55   C     C_R   0.297438 0.287817 0.885345 0.551808
C56   C     C_R   0.769400 0.373184 0.608730 0.549982
C57   C     C_R   0.277583 0.891224 0.898818 0.535985
C58   C     C_R   0.837704 0.827604 0.120035 -0.145503
C59   C     C_R   0.863121 0.927921 0.150481 0.428499
C60   C     C_R   0.750986 0.055403 0.176603 0.432147
Cr1   Cr    Cr6+3 0.601770 0.606860 0.505860 1.009495
Cr2   Cr    Cr6+3 0.291380 0.601660 0.495070 1.035963
Cr3   Cr    Cr6+3 0.606880 0.291510 0.499120 1.061278
Cr4   Cr    Cr6+3 0.062440 0.063090 0.008210 1.129023
Cr5   Cr    Cr6+3 0.062880 0.375170 0.998920 1.036627
Cr6   Cr    Cr6+3 0.374700 0.061720 0.992470 1.078038
H1    H     H_    0.573200 0.150447 0.304471 0.191572
H2    H     H_    0.754647 0.863337 0.363706 0.140418
H3    H     H_    0.817169 0.616343 0.355014 0.161414
H4    H     H_    0.063746 0.427532 0.327942 0.165504
H5    H     H_    0.980389 0.287212 0.351228 0.131255
H6    H     H_    0.634118 0.433183 0.152293 0.155061
H7    H     H_    0.552039 0.468419 0.276910 0.099107
H8    H     H_    0.573207 0.681973 0.306551 0.137019
H9    H     H_    0.112332 0.038059 0.206674 0.253695
H10   H     H_    0.682766 0.771937 0.097544 0.225039
H11   H     H_    0.140867 0.005973 0.335890 0.201578
H12   H     H_    0.581854 0.178205 0.689735 0.170506
H13   H     H_    0.139937 0.532049 0.809946 0.137669
H14   H     H_    0.182413 0.571443 0.686414 0.145635
H15   H     H_    0.911909 0.477310 0.679248 0.154254
H16   H     H_    0.978781 0.440656 0.803401 0.145278
H17   H     H_    0.804033 0.152438 0.688666 0.153016
H18   H     H_    0.124126 0.816847 0.687364 0.148037
H19   H     H_    0.115441 0.829327 0.815361 0.196586
H20   H     H_    0.510518 0.822303 0.820843 0.190624
H21   H     H_    0.527182 0.795866 0.692288 0.161089
H22   H     H_    0.923654 0.730509 0.098026 0.144278
H23   H     H_    0.164136 0.744602 0.281934 0.158476
H24   H     H_    0.491326 0.985514 0.161852 0.183222
H25   H     H_    0.174262 0.527956 0.166046 0.154261
O1    O     O_R   0.748800 0.497470 0.428000 -0.547786
O2    O     O_R   0.300070 0.471040 0.567100 -0.494616
O3    O     O_R   0.491670 0.258900 0.574910 -0.513530
O4    O     O_R   0.718780 0.304180 0.577850 -0.522056
O5    O     O_3   0.500010 0.500010 0.500020 -0.307696
O6    O     O_R   0.186690 0.923650 0.086970 -0.452538
O7    O     O_R   0.957250 0.194250 0.084630 -0.463356
O8    O     O_R   0.934970 0.407490 0.085330 -0.497045
O9    O     O_R   0.203780 0.365190 0.067090 -0.488597
O10   O     O_R   0.417600 0.174890 0.067840 -0.520381
O11   O     O_R   0.375320 0.946260 0.070860 -0.509742
O12   O     O_R   0.476420 0.724060 0.429470 -0.521778
O13   O     O_R   0.160600 0.919630 0.926660 -0.494573
O14   O     O_R   0.933060 0.190520 0.936020 -0.433958
O15   O     O_R   0.908880 0.403460 0.925020 -0.522193
O16   O     O_R   0.179600 0.361450 0.918490 -0.541536
O17   O     O_R   0.391510 0.170860 0.907530 -0.435536
O18   O     O_R   0.351130 0.942530 0.922260 -0.498595
O19   O     O_3   0.166667 0.166667 0.999870 -0.305165
O20   O     O_R   0.264580 0.744340 0.416750 -0.495311
O21   O     O_R   0.309380 0.472470 0.418200 -0.495101
O22   O     O_R   0.501710 0.260430 0.414300 -0.511369
O23   O     O_R   0.728090 0.305600 0.428960 -0.434504
O24   O     O_R   0.738760 0.495930 0.588610 -0.510514
O25   O     O_R   0.467110 0.722640 0.578360 -0.501452
O26   O     O_R   0.254530 0.742800 0.577360 -0.526933
F1    F     F_    0.087172 0.266616 0.225134 -0.689655
F2    F     F_    0.567993 0.695182 0.168812 -0.699691
Cl1   Cl    Cl    0.577177 0.046732 0.806243 -0.550489
Cl2   Cl    Cl    0.856333 0.067641 0.830531 -0.549114
Cl3   Cl    Cl    0.912045 0.995706 0.340905 -0.584344
F3    F     F_    0.997238 0.899086 0.157271 -0.623000
F4    F     F_    0.781553 0.142607 0.211519 -0.625691

loop_
_geom_bond_atom_site_label_1
_geom_bond_atom_site_label_2
_ccdc_geom_bond_type
C33   C55   S    
C56   O4    A    
C40   C41   A    
Cr2   O5    S    
C41   C42   A    
Cr6   O11   S    
C35   C36   A    
C45   O2    A    
Cr1   O5    S    
Cr4   O14   S    
Cr3   O3    S    
C26   C27   A    
C18   C24   A    
C28   C29   A    
Cr1   O12   S    
C18   C19   A    
C20   C51   S    
C38   C39   A    
C2    C60   A    
C34   O25   A    
C15   C16   A    
Cr3   O4    S    
C18   H5    S    
Cr5   O9    S    
C9    C58   A    
C41   Cl2   S    
C60   F4    S    
C49   H21   S    
Cr2   O26   S    
Cr3   O23   S    
C11   C17   A    
Cr2   O20   S    
C19   C20   A    
C19   F1    S    
C8    C9    A    
C12   C17   S    
Cr1   O24   S    
C23   C24   S    
C9    H10   S    
C1    O12   A    
Cr1   O1    S    
C46   H19   S    
C51   O7    A    
Cr4   O7    S    
C59   C60   A    
C21   C22   A    
C59   F3    S    
Cr6   O10   S    
C32   Cl1   S    
C45   O3    A    
C44   C46   A    
C51   O8    A    
C25   H8    S    
C57   O18   A    
C52   O10   A    
C34   C50   S    
C54   O15   A    
C21   H6    S    
C15   H4    S    
C26   F2    S    
Cr5   O8    S    
C36   H14   S    
C39   C40   A    
C3    C5    A    
C58   C59   A    
Cr3   O5    S    
C52   O9    A    
C31   C37   A    
C55   O16   A    
C29   C30   A    
C47   C57   S    
C11   C16   S    
Cr4   O19   S    
C47   C48   A    
C53   O11   A    
Cr1   O25   S    
Cr2   O21   S    
Cr6   O19   S    
C4    C17   A    
Cr4   O6    S    
C10   H25   S    
C40   C54   S    
C38   H15   S    
C14   H3    S    
C22   C24   A    
C2    C5    S    
C8    H24   S    
C42   C43   A    
C7    Cl3   S    
C37   C45   S    
Cr5   O15   S    
C12   O21   A    
C31   H12   S    
C12   O22   A    
C44   C50   A    
C25   C30   A    
Cr4   O13   S    
C57   O13   A    
C46   C47   A    
C48   C49   A    
C54   O14   A    
C14   C15   A    
C31   C32   A    
C2    C8    A    
C42   H17   S    
C39   H16   S    
Cr6   O17   S    
C4    C5    A    
C44   H18   S    
C58   H22   S    
C4    H1    S    
C3    C52   S    
C27   C53   S    
C6    C7    A    
C6    H23   S    
C55   O17   A    
C53   O6    A    
C32   C33   A    
C25   C26   A    
C38   C43   A    
C3    C10   A    
C1    O20   A    
C23   O23   A    
C34   O26   A    
C35   H13   S    
C1    C30   S    
C33   C35   A    
C56   O24   A    
C48   H20   S    
Cr6   O18   S    
Cr5   O19   S    
C10   C11   A    
C6    C16   A    
Cr3   O22   S    
C43   C56   S    
C7    C13   A    
C29   H11   S    
C20   C21   A    
C36   C37   A    
C49   C50   A    
Cr2   O2    S    
C27   C28   A    
C23   O1    A    
C22   H7    S    
C13   C14   A    
C28   H9    S    
Cr5   O16   S    
C13   H2    S    
