data_mof_unit_13605.cif
_audit_creation_date              2012-12-10T17:32:20-0500
_audit_creation_method            fapswitch 2.2
_symmetry_space_group_name_H-M    P1
_symmetry_Int_Tables_number       1
_space_group_crystal_system       triclinic
_cell_length_a                    12.495743
_cell_length_b                    13.190349
_cell_length_c                    15.015546
_cell_angle_alpha                 73.452757
_cell_angle_beta                  101.222909
_cell_angle_gamma                 117.540161
_cell_volume                      2097.81184825

loop_
_atom_site_label
_atom_site_type_symbol
_atom_type_description
_atom_site_fract_x
_atom_site_fract_y
_atom_site_fract_z
_atom_type_partial_charge
C1    C     C_R   0.855450 0.286118 0.509073 0.794955
C2    C     C_R   0.935332 0.551598 0.069779 0.105222
C3    C     C_R   0.100124 0.369248 0.095618 -0.160635
C4    C     C_R   0.103651 0.372266 0.002613 -0.197370
C5    C     C_R   0.050890 0.434100 0.931609 0.103330
C6    C     C_R   0.993235 0.492846 0.954093 0.067852
C7    C     C_R   0.938329 0.553943 0.883263 0.105333
C8    C     C_R   0.881750 0.612482 0.906129 -0.206876
C9    C     C_R   0.880617 0.611644 0.998963 -0.196131
C10   C     C_R   0.054553 0.438172 0.838437 -0.226839
C11   C     C_R   0.999663 0.498552 0.768132 -0.046757
C12   C     C_R   0.000479 0.500017 0.670972 0.827233
C13   C     C_R   0.941286 0.555718 0.790681 -0.222257
C14   C     C_R   0.295314 0.035750 0.359274 -0.259386
C15   C     C_R   0.228623 0.840882 0.460309 -0.164916
C16   C     C_R   0.805971 0.077544 0.581097 -0.152635
C17   C     C_R   0.721637 0.961246 0.604310 -0.124181
C18   C     C_R   0.601880 0.927503 0.568020 -0.147805
C19   C     C_R   0.564883 0.009479 0.503743 0.109007
C20   C     C_R   0.654674 0.124761 0.472253 0.098283
C21   C     C_R   0.442364 0.980774 0.468432 0.094189
C22   C     C_R   0.414403 0.063251 0.396590 0.089900
C23   C     C_R   0.144796 0.715002 0.484024 0.868959
C24   C     C_R   0.506122 0.171424 0.359913 -0.197947
C25   C     C_R   0.624617 0.201125 0.396110 -0.170184
C26   C     C_R   0.346664 0.872727 0.502253 -0.246957
C27   C     C_R   0.202051 0.924503 0.388189 0.366296
C28   C     C_R   0.772819 0.160859 0.517363 -0.084344
C29   C     C_R   0.371623 0.384600 0.679159 -0.271529
C30   C     C_R   0.733792 0.597224 0.354072 0.167038
C31   C     C_R   0.616264 0.558608 0.313574 -0.251846
C32   C     C_R   0.520582 0.499884 0.370599 -0.045205
C33   C     C_R   0.541247 0.497654 0.466218 0.009340
C34   C     C_R   0.998133 0.498165 0.329279 0.840001
C35   C     C_R   0.657844 0.506972 0.505604 0.201484
C36   C     C_R   0.446984 0.469803 0.524189 -0.120919
C37   C     C_R   0.465992 0.431066 0.620983 0.073577
C38   C     C_R   0.576580 0.430995 0.659088 -0.251953
C39   C     C_R   0.664027 0.451915 0.602438 0.248941
C40   C     C_R   0.339826 0.488766 0.492763 0.524994
C41   C     C_R   0.260386 0.383164 0.642639 -0.002130
C42   C     C_R   0.936790 0.552331 0.162539 -0.248064
C43   C     C_R   0.992922 0.493200 0.232849 -0.082055
C44   C     C_R   0.043463 0.428890 0.210930 -0.157410
C45   C     C_R   0.044811 0.428974 0.118414 0.093785
C46   C     C_R   0.990978 0.490992 0.047456 0.059380
Cu1   Cu    Cu3+1 0.098270 0.475420 0.521130 1.007315
Cu2   Cu    Cu3+1 0.901730 0.524580 0.478870 1.021960
H1    H     H_    0.895951 0.600477 0.179757 0.177162
H2    H     H_    0.486318 0.233477 0.302551 0.141544
H3    H     H_    0.276475 0.100063 0.303851 0.180207
H4    H     H_    0.362111 0.809431 0.560173 0.157160
H5    H     H_    0.896210 0.103070 0.615545 0.153338
H6    H     H_    0.541358 0.836150 0.590026 0.137357
H7    H     H_    0.748233 0.897417 0.653393 0.142018
H8    H     H_    0.692677 0.283950 0.362159 0.155132
H9    H     H_    0.188065 0.346753 0.688223 0.144027
H10   H     H_    0.586104 0.394568 0.733220 0.184167
H11   H     H_    0.383457 0.348241 0.752825 0.151011
H12   H     H_    0.081943 0.378947 0.265879 0.180431
H13   H     H_    0.807067 0.638874 0.309184 0.189871
H14   H     H_    0.431258 0.455590 0.339936 0.185644
H15   H     H_    0.599456 0.569504 0.238731 0.151934
H16   H     H_    0.141704 0.321329 0.149616 0.164680
H17   H     H_    0.147700 0.326445 0.986195 0.150100
H18   H     H_    0.098395 0.392917 0.820761 0.143945
H19   H     H_    0.899109 0.602614 0.736104 0.157484
H20   H     H_    0.839159 0.659491 0.852213 0.145383
H21   H     H_    0.837416 0.658231 0.015373 0.154183
N1    N     N_R   0.246280 0.438190 0.553160 -0.237215
N2    N     N_R   0.754320 0.561190 0.447410 -0.201819
O1    O     O_R   0.972510 0.318130 0.526570 -0.592398
O2    O     O_R   0.806530 0.359650 0.490890 -0.549982
O3    O     O_R   0.082980 0.479210 0.647590 -0.610952
O4    O     O_R   0.917000 0.520730 0.611900 -0.560752
O5    O     O_R   0.193470 0.640350 0.509110 -0.526557
O6    O     O_R   0.027490 0.681870 0.473430 -0.512454
O7    O     O_R   0.083000 0.479270 0.388100 -0.509855
O8    O     O_R   0.917020 0.520790 0.352410 -0.607662
S1    S     S_3+6 0.343927 0.594946 0.382248 0.007406
O9    O     O_2   0.473416 0.681691 0.367153 -0.292518
O10   O     O_2   0.294219 0.530596 0.304806 -0.363727
O11   O     O_3   0.271585 0.679080 0.364998 -0.507786
H22   H     H_    0.283713 0.724919 0.299835 0.359122
Br1   Br    Br    0.700878 0.318949 0.651614 -0.517520
S2    S     S_3+6 0.059340 0.891713 0.324360 0.004130
O12   O     O_2   0.963960 0.857467 0.388660 -0.247921
O13   O     O_2   0.061079 0.995740 0.249016 -0.298265
O14   O     O_3   0.025125 0.779978 0.274955 -0.554069
H23   H     H_    0.096104 0.804584 0.240242 0.331968

loop_
_geom_bond_atom_site_label_1
_geom_bond_atom_site_label_2
_ccdc_geom_bond_type
C16   C28   A    
C21   C26   A    
C12   O3    A    
C19   C20   A    
C25   H8    S    
C23   O5    A    
C30   N2    A    
C7    C8    A    
C3    H16   S    
C2    C46   A    
C40   N1    A    
Cu2   O8    S    
C36   C37   A    
C19   C21   A    
C9    H21   S    
Cu1   O5    S    
C5    C6    A    
S2    O13   D    
C20   C25   A    
C33   C36   A    
C18   C19   A    
C4    H17   S    
C38   H10   S    
O11   H22   S    
C8    C9    A    
C1    C28   S    
C40   S1    S    
C14   C27   A    
C17   H7    S    
C15   C23   S    
C35   N2    A    
C21   C22   A    
Cu2   O4    S    
S1    O11   S    
C10   H18   S    
C24   H2    S    
C38   C39   A    
C44   H12   S    
C1    O1    A    
Cu1   Cu2   S    
C31   H15   S    
C36   C40   A    
C24   C25   A    
S1    O10   D    
S2    O12   D    
C16   C17   A    
C15   C26   A    
C20   C28   A    
C45   C46   A    
C3    C45   A    
Cu2   O6    S    
C27   S2    S    
C35   C39   A    
C43   C44   A    
Cu1   N1    S    
C37   C38   A    
C26   H4    S    
C34   O8    A    
C15   C27   A    
C14   H3    S    
C7    C13   A    
C17   C18   A    
C23   O6    A    
C8    H20   S    
C22   C24   A    
C30   H13   S    
C42   C43   A    
C39   Br1   S    
Cu2   N2    S    
C3    C4    A    
C44   C45   A    
C13   H19   S    
C6    C46   A    
C29   C41   A    
Cu2   O2    S    
C31   C32   A    
C34   C43   S    
Cu1   O3    S    
S1    O9    D    
S2    O14   S    
C11   C12   S    
C6    C7    A    
C1    O2    A    
C32   C33   A    
C14   C22   A    
C41   H9    S    
C5    C10   A    
C34   O7    A    
C11   C13   A    
C30   C31   A    
C2    C42   A    
C33   C35   A    
Cu1   O1    S    
C10   C11   A    
C18   H6    S    
C42   H1    S    
C32   H14   S    
C4    C5    A    
C12   O4    A    
C29   C37   A    
C29   H11   S    
Cu1   O7    S    
O14   H23   S    
C2    C9    A    
C41   N1    A    
C16   H5    S    
