data_mof_unit_25764.cif
_audit_creation_date              2012-10-26T21:08:10-0400
_audit_creation_method            fapswitch 2.2
_symmetry_space_group_name_H-M    P1
_symmetry_Int_Tables_number       1
_space_group_crystal_system       triclinic
_cell_length_a                    15.840491
_cell_length_b                    10.773945
_cell_length_c                    9.645881
_cell_angle_alpha                 89.459132
_cell_angle_beta                  91.0214
_cell_angle_gamma                 92.901765
_cell_volume                      1643.7781272

loop_
_atom_site_label
_atom_site_type_symbol
_atom_type_description
_atom_site_fract_x
_atom_site_fract_y
_atom_site_fract_z
_atom_type_partial_charge
C1    C     C_R   0.496271 0.262629 0.500429 0.612097
C2    C     C_R   0.287394 0.040696 0.683179 -0.075583
C3    C     C_R   0.289988 0.912084 0.684799 -0.183391
C4    C     C_R   0.340055 0.500366 0.498923 0.597139
C5    C     C_R   0.357001 0.855216 0.624541 -0.124193
C6    C     C_R   0.424178 0.926804 0.563832 -0.018047
C7    C     C_R   0.422511 0.058278 0.563680 0.028234
C8    C     C_R   0.490214 0.128244 0.500806 0.008669
C9    C     C_R   0.554786 0.069336 0.434956 -0.164508
C10   C     C_R   0.555578 0.941436 0.434315 -0.156386
C11   C     C_R   0.491810 0.870259 0.499352 0.013251
C12   C     C_3   0.082923 0.501717 0.498455 -0.005612
C13   C     C_R   0.589622 0.690603 0.146217 -0.064153
C14   C     C_R   0.608355 0.803477 0.080916 -0.163653
C15   C     C_R   0.600113 0.811980 0.938577 -0.155003
C16   C     C_R   0.498029 0.736969 0.499562 0.505753
C17   C     C_R   0.586628 0.702386 0.863346 0.060424
C18   C     C_R   0.543729 0.596348 0.926834 0.167110
C19   C     C_R   0.543927 0.594217 0.075818 0.151888
C20   C     C_R   0.457865 0.410026 0.073267 -0.001054
C21   C     C_R   0.458204 0.409715 0.925790 0.000970
C22   C     C_R   0.659943 0.499665 0.500954 0.531641
C23   C     C_3   0.976092 0.619791 0.499706 -0.148842
C24   C     C_3   0.972357 0.443138 0.616268 -0.138337
C25   C     C_3   0.024321 0.383521 0.501829 -0.075172
C26   C     C_1   0.250271 0.501050 0.496963 0.011636
C27   C     C_1   0.749785 0.500212 0.502906 0.030328
C28   C     C_3   0.032621 0.561140 0.613060 -0.117446
C29   C     C_2   0.656444 0.691344 0.767510 0.294554
C30   C     C_3   0.917251 0.501879 0.503087 0.049489
C31   C     C_3   0.028085 0.560615 0.384970 -0.079013
C32   C     C_3   0.968355 0.443461 0.390352 0.421560
C33   C     C_1   0.174645 0.501511 0.496983 -0.038649
C34   C     C_1   0.825464 0.500974 0.503529 0.016876
C35   C     C_R   0.352011 0.113840 0.622226 0.367382
Cu1   Cu    Cu3+1 0.499990 0.499990 0.640660 1.005269
Cu2   Cu    Cu3+1 0.500010 0.500010 0.359340 0.957022
F1    F     F_    0.933659 0.382756 0.275556 -0.616855
F2    F     F_    0.342367 0.237880 0.616950 -0.653924
H1    H     H_    0.045046 0.286629 0.501231 0.131828
H2    H     H_    0.948290 0.395437 0.711241 0.146230
H3    H     H_    0.051842 0.607695 0.289430 0.128212
H4    H     H_    0.955071 0.716535 0.499441 0.126961
H5    H     H_    0.060703 0.609878 0.705081 0.133648
H6    H     H_    0.605984 0.123060 0.386101 0.134376
H7    H     H_    0.234102 0.084155 0.727617 0.140981
H8    H     H_    0.659893 0.748081 0.673959 0.080949
H9    H     H_    0.239070 0.855972 0.730919 0.125482
H10   H     H_    0.354654 0.754884 0.624499 0.147884
H11   H     H_    0.607506 0.897631 0.386080 0.104686
H12   H     H_    0.422901 0.336284 0.127523 0.128918
H13   H     H_    0.612749 0.681758 0.250259 0.174005
H14   H     H_    0.636650 0.880992 0.138726 0.126014
H15   H     H_    0.625745 0.896005 0.888639 0.118308
H16   H     H_    0.423589 0.335730 0.870896 0.160829
N1    N     N_R   0.500800 0.501210 0.147910 -0.245159
N2    N     N_R   0.500830 0.501290 0.852040 -0.248168
O1    O     O_R   0.499990 0.319640 0.618810 -0.457912
O2    O     O_R   0.500000 0.319660 0.381240 -0.504826
O3    O     O_R   0.379070 0.499980 0.618770 -0.463294
O4    O     O_R   0.379080 0.500000 0.381190 -0.493135
O5    O     O_R   0.500000 0.680340 0.618760 -0.541014
O6    O     O_R   0.500010 0.680360 0.381190 -0.522556
O7    O     O_R   0.620920 0.500000 0.618810 -0.468607
O8    O     O_R   0.620930 0.500020 0.381230 -0.519787
O9    O     O_2   0.715336 0.627176 0.799340 -0.496321

loop_
_geom_bond_atom_site_label_1
_geom_bond_atom_site_label_2
_ccdc_geom_bond_type
C2    C35   A    
C19   N1    A    
C4    C26   S    
C23   C30   S    
C22   O8    A    
C21   N2    A    
C6    C7    A    
C31   H3    S    
C32   F1    S    
C1    C8    S    
C17   C29   S    
C9    C10   A    
C26   C33   T    
C35   F2    S    
C31   C32   S    
C12   C25   S    
C20   N1    A    
C4    O3    A    
C25   C32   S    
C17   C18   A    
C12   C33   S    
C3    C5    A    
C7    C8    A    
C12   C31   S    
C23   C28   S    
C2    H7    S    
C30   C32   S    
C24   H2    S    
C5    H10   S    
C27   C34   T    
Cu2   O2    S    
C16   O5    A    
C29   H8    S    
Cu1   O5    S    
C9    H6    S    
Cu1   Cu2   S    
C16   O6    A    
C12   C28   S    
C2    C3    A    
C20   H12   S    
Cu1   O1    S    
C22   C27   S    
C1    O2    A    
C25   H1    S    
C5    C6    A    
C24   C30   S    
C10   C11   A    
C30   C34   S    
C22   O7    A    
C29   O9    D    
C13   H13   S    
C15   H15   S    
C1    O1    A    
C3    H9    S    
C14   H14   S    
C23   H4    S    
C24   C25   S    
C15   C17   A    
Cu1   N2    S    
C11   C16   S    
C6    C11   A    
C21   H16   S    
C13   C19   A    
C14   C15   A    
C18   C19   A    
Cu2   O4    S    
C18   N2    A    
C13   C14   A    
Cu2   O6    S    
C20   C21   A    
Cu1   O7    S    
Cu2   N1    S    
C7    C35   A    
C4    O4    A    
C28   H5    S    
C24   C28   S    
Cu2   O8    S    
C8    C9    A    
Cu1   O3    S    
C23   C31   S    
C10   H11   S    
