data_mof_unit_25676.cif
_audit_creation_date              2012-12-10T17:02:12-0500
_audit_creation_method            fapswitch 2.2
_symmetry_space_group_name_H-M    P1
_symmetry_Int_Tables_number       1
_space_group_crystal_system       triclinic
_cell_length_a                    10.674148
_cell_length_b                    10.655946
_cell_length_c                    10.070304
_cell_angle_alpha                 87.14541
_cell_angle_beta                  88.569301
_cell_angle_gamma                 90.736172
_cell_volume                      1143.53618282

loop_
_atom_site_label
_atom_site_type_symbol
_atom_type_description
_atom_site_fract_x
_atom_site_fract_y
_atom_site_fract_z
_atom_type_partial_charge
C1    C     C_R   0.488785 0.262342 0.504002 0.773782
C2    C     C_2   0.455655 0.130125 0.515505 0.299414
C3    C     C_2   0.556767 0.586699 0.916296 0.457209
C4    C     C_R   0.262083 0.519349 0.501331 0.946744
C5    C     C_2   0.559297 0.585105 0.068171 0.266926
C6    C     C_R   0.506047 0.737207 0.496162 0.865184
C7    C     C_R   0.741004 0.494108 0.498299 0.894630
C8    C     C_R   0.105139 0.540571 0.755498 0.297749
C9    C     C_R   0.051075 0.469276 0.863221 -0.204578
C10   C     C_R   0.947377 0.392144 0.844737 -0.201948
C11   C     C_R   0.889561 0.395914 0.722241 -0.106371
C12   C     C_R   0.059422 0.524037 0.625470 -0.015009
C13   C     C_R   0.940575 0.470886 0.613806 0.010868
C14   C     C_3   0.589404 0.809963 0.100939 -0.770992
C15   C     C_3   0.172611 0.760105 0.738497 -0.741423
C16   C     C_3   0.872473 0.457130 0.176398 -0.774186
C17   C     C_3   0.748094 0.846752 0.540053 -0.782637
C18   C     C_R   0.129856 0.548959 0.506209 -0.221131
C19   C     C_R   0.070724 0.570809 0.384851 0.367806
C20   C     C_R   0.942503 0.544689 0.378418 0.092763
C21   C     C_R   0.877041 0.494987 0.494141 -0.209738
C22   C     C_2   0.437844 0.933568 0.413869 -0.224992
C23   C     C_2   0.525430 0.869717 0.482028 0.184398
C24   C     C_2   0.439616 0.068945 0.404699 -0.239122
H1    H     H_    0.478483 0.416810 0.900011 0.184654
H2    H     H_    0.663491 0.663365 0.218686 0.288424
H3    H     H_    0.563859 0.851796 0.196067 0.246214
H4    H     H_    0.506665 0.815271 0.036005 0.266528
H5    H     H_    0.667158 0.867276 0.053168 0.239066
H6    H     H_    0.363514 0.393595 0.175843 0.383743
H7    H     H_    0.237169 0.623907 0.873818 0.238124
H8    H     H_    0.253321 0.821973 0.760194 0.268037
H9    H     H_    0.088149 0.792064 0.793292 0.227253
H10   H     H_    0.157150 0.769144 0.629922 0.238327
H11   H     H_    0.904767 0.648252 0.202748 0.225156
H12   H     H_    0.089683 0.473940 0.961130 0.142155
H13   H     H_    0.821554 0.481770 0.084189 0.229519
H14   H     H_    0.820877 0.378936 0.231516 0.260879
H15   H     H_    0.967562 0.424061 0.150301 0.220816
H16   H     H_    0.663917 0.012102 0.477734 0.226696
H17   H     H_    0.829319 0.903304 0.571383 0.235747
H18   H     H_    0.772979 0.804786 0.444180 0.215878
H19   H     H_    0.729538 0.771233 0.617936 0.292316
H20   H     H_    0.908359 0.333355 0.926574 0.150261
H21   H     H_    0.806712 0.337861 0.712246 0.148635
H22   H     H_    0.360593 0.885422 0.368379 0.161439
H23   H     H_    0.437346 0.116171 0.306685 0.149208
H24   H     H_    0.101093 0.597628 0.192331 0.338006
H25   H     H_    0.458613 0.122058 0.710966 0.347754
H26   H     H_    0.692858 0.708168 0.890358 0.330633
N1    N     N_2   0.501340 0.501330 0.852150 -0.201328
N2    N     N_2   0.501380 0.501360 0.147810 0.015510
N3    N     N_2   0.630905 0.681848 0.125094 -0.348603
N4    N     N_2   0.200154 0.631658 0.780111 -0.277293
N5    N     N_2   0.880240 0.566131 0.256133 -0.298461
N6    N     N_2   0.639931 0.926644 0.524548 -0.267395
O1    O     O_R   0.499980 0.319060 0.613040 -0.634577
O2    O     O_3   0.440040 0.065808 0.638547 -0.742327
O3    O     O_3   0.619560 0.680214 0.840866 -0.726718
O4    O     O_3   0.399727 0.445785 0.100139 -0.755107
O5    O     O_R   0.500020 0.319100 0.386900 -0.641305
O6    O     O_R   0.316750 0.499980 0.613090 -0.609179
O7    O     O_R   0.316790 0.500020 0.386950 -0.562453
O8    O     O_R   0.499980 0.680900 0.613100 -0.525485
O9    O     O_R   0.500020 0.680940 0.386960 -0.646652
O10   O     O_R   0.683210 0.499980 0.613050 -0.600935
O11   O     O_R   0.683250 0.500020 0.386910 -0.610740
O12   O     O_3   0.141306 0.618332 0.275883 -0.747942
Zn1   Zn    Zn3+2 0.499970 0.499970 0.650990 0.986743
Zn2   Zn    Zn3+2 0.500030 0.500030 0.349010 0.973433

loop_
_geom_bond_atom_site_label_1
_geom_bond_atom_site_label_2
_ccdc_geom_bond_type
O5    Zn2   S    
C9    H12   S    
C6    O8    A    
C17   H19   S    
C5    N2    D    
C1    O1    A    
C14   H3    S    
N2    O4    S    
C9    C10   A    
C15   H10   S    
C23   N6    S    
C19   C20   A    
C4    O7    A    
O7    Zn2   S    
C16   H13   S    
C8    C12   A    
O11   Zn2   S    
C4    C18   S    
C3    C5    S    
H1    N1    S    
C16   N5    S    
C13   C21   A    
C15   H8    S    
C7    C21   S    
O8    Zn1   S    
C20   C21   A    
C7    O10   A    
C11   C13   A    
C17   N6    S    
C15   N4    S    
C20   N5    S    
C12   C18   A    
H26   O3    S    
C5    N3    S    
C22   H22   S    
C1    C2    S    
C17   H17   S    
H7    N4    S    
C2    C24   D    
C2    O2    S    
C22   C24   S    
C11   H21   S    
O10   Zn1   S    
N2    Zn2   S    
C10   C11   A    
C6    C23   S    
C16   H15   S    
C10   H20   S    
O9    Zn2   S    
H2    N3    S    
C4    O6    A    
C19   O12   S    
C14   N3    S    
H6    O4    S    
C12   C13   A    
O1    Zn1   S    
C7    O11   A    
C18   C19   A    
C8    N4    S    
C3    O3    S    
C17   H18   S    
C3    N1    D    
C14   H5    S    
N1    Zn1   S    
C14   H4    S    
C22   C23   D    
C24   H23   S    
H11   N5    S    
C15   H9    S    
C6    O9    A    
H24   O12   S    
H25   O2    S    
O6    Zn1   S    
C16   H14   S    
C8    C9    A    
H16   N6    S    
C1    O5    A    
