data_mof_unit_35580.cif
_audit_creation_date              2012-12-10T17:42:44-0500
_audit_creation_method            fapswitch 2.2
_symmetry_space_group_name_H-M    P1
_symmetry_Int_Tables_number       1
_space_group_crystal_system       triclinic
_cell_length_a                    9.975468
_cell_length_b                    10.702697
_cell_length_c                    13.29439
_cell_angle_alpha                 96.009332
_cell_angle_beta                  72.162129
_cell_angle_gamma                 92.942531
_cell_volume                      1343.43171126

loop_
_atom_site_label
_atom_site_type_symbol
_atom_type_description
_atom_site_fract_x
_atom_site_fract_y
_atom_site_fract_z
_atom_type_partial_charge
C1    C     C_R   0.507029 0.738297 0.490030 0.964469
C2    C     C_R   0.374748 0.474045 0.816167 -0.185022
C3    C     C_R   0.338023 0.864011 0.381954 0.523149
C4    C     C_R   0.422639 0.492608 0.702316 0.950736
C5    C     C_R   0.206558 0.906751 0.387050 -0.451772
C6    C     C_R   0.149656 0.014133 0.455116 0.433645
C7    C     C_R   0.234851 0.082789 0.511324 0.449039
C8    C     C_R   0.376263 0.048817 0.491376 -0.099823
C9    C     C_R   0.413023 0.927073 0.447410 -0.124743
C10   C     C_R   0.517967 0.870397 0.476491 -0.122829
C11   C     C_R   0.612101 0.943214 0.517258 -0.179165
C12   C     C_R   0.429345 0.435392 0.976315 -0.021477
C13   C     C_R   0.597295 0.071199 0.535005 -0.203385
C14   C     C_R   0.481713 0.126133 0.519308 -0.032103
C15   C     C_R   0.830953 0.708149 0.608818 0.517108
C16   C     C_R   0.493029 0.260264 0.508193 0.839499
C17   C     C_R   0.898431 0.822000 0.629573 0.334941
C18   C     C_R   0.035648 0.818374 0.631649 -0.504039
C19   C     C_R   0.104081 0.704008 0.610168 0.492403
C20   C     C_R   0.056952 0.601829 0.551113 -0.043167
C21   C     C_R   0.912673 0.602505 0.550972 -0.138452
C22   C     C_R   0.941772 0.402006 0.454420 -0.189933
C23   C     C_R   0.467027 0.425343 0.865176 -0.115025
C24   C     C_R   0.083986 0.400955 0.455796 0.574999
C25   C     C_R   0.576610 0.495167 0.296647 0.898010
C26   C     C_R   0.776380 0.373619 0.016463 0.532650
C27   C     C_R   0.617008 0.466778 0.181224 -0.135547
C28   C     C_R   0.238023 0.512322 0.878791 0.402047
C29   C     C_R   0.193916 0.497492 0.986899 -0.229472
C30   C     C_R   0.285478 0.454172 0.034418 0.393540
C31   C     C_3   0.501161 0.807003 0.225230 -0.370623
C32   C     C_3   0.962382 0.021899 0.384060 -0.288031
C33   C     C_3   0.665613 0.698570 0.770809 -0.233563
C34   C     C_R   0.535852 0.426142 0.025493 -0.048724
C35   C     C_3   0.907779 0.386513 0.739340 -0.155772
C36   C     C_3   0.209565 0.269923 0.318613 -0.295204
C37   C     C_3   0.928520 0.213337 0.989068 -0.238664
C38   C     C_R   0.670791 0.380351 0.965655 -0.061891
C39   C     C_R   0.696407 0.344396 0.856597 0.494772
C40   C     C_R   0.594499 0.365436 0.807763 -0.261265
C41   C     C_R   0.513810 0.472737 0.131197 -0.254553
C42   C     C_R   0.748660 0.418746 0.123600 -0.337680
H1    H     H_    0.829626 0.414392 0.161845 0.183915
H2    H     H_    0.535600 0.729291 0.161949 0.193402
H3    H     H_    0.594640 0.840238 0.250165 0.159323
H4    H     H_    0.463780 0.882872 0.189620 0.160697
H5    H     H_    0.921799 0.923296 0.384027 0.161785
H6    H     H_    0.043398 0.037369 0.307305 0.142996
H7    H     H_    0.873622 0.083601 0.390943 0.182305
H8    H     H_    0.075384 0.172376 0.609941 0.370394
H9    H     H_    0.700067 0.788089 0.806481 0.180229
H10   H     H_    0.717893 0.618364 0.788973 0.126795
H11   H     H_    0.550976 0.689421 0.810667 0.170768
H12   H     H_    0.148366 0.852164 0.340603 0.189154
H13   H     H_    0.881886 0.999564 0.681995 0.369546
H14   H     H_    0.216649 0.765724 0.703011 0.325180
H15   H     H_    0.902938 0.478756 0.787591 0.149403
H16   H     H_    0.876325 0.397051 0.668057 0.140626
H17   H     H_    0.019234 0.358404 0.714068 0.240772
H18   H     H_    0.287171 0.344965 0.288301 0.210109
H19   H     H_    0.123631 0.261135 0.281047 0.165531
H20   H     H_    0.267342 0.180473 0.297773 0.155055
H21   H     H_    0.844651 0.145291 0.978130 0.157032
H22   H     H_    0.932526 0.219049 0.072099 0.135475
H23   H     H_    0.676489 0.127050 0.560896 0.201042
H24   H     H_    0.030867 0.176642 0.936595 0.197018
H25   H     H_    0.058077 0.584355 0.888525 0.325337
H26   H     H_    0.273573 0.329873 0.126583 0.313913
H27   H     H_    0.897904 0.320264 0.419809 0.163467
H28   H     H_    0.080682 0.899927 0.665990 0.171241
H29   H     H_    0.416478 0.518491 0.175352 0.241600
H30   H     H_    0.085632 0.514620 0.034016 0.177563
H31   H     H_    0.617166 0.332754 0.724756 0.190426
H32   H     H_    0.696320 0.900891 0.535493 0.236576
N1    N     N_R   0.856860 0.501200 0.500990 -0.113300
N2    N     N_R   0.142450 0.501280 0.501020 -0.124226
O1    O     O_R   0.385310 0.683220 0.500000 -0.554380
O2    O     O_3   0.012554 0.053777 0.472139 -0.582817
O3    O     O_3   0.179030 0.173354 0.593637 -0.732540
O4    O     O_3   0.688837 0.697721 0.659987 -0.538199
O5    O     O_3   0.819754 0.928965 0.667889 -0.749564
O6    O     O_3   0.198069 0.686128 0.663496 -0.664248
O7    O     O_3   0.823030 0.292201 0.796300 -0.594197
O8    O     O_3   0.155366 0.290285 0.428889 -0.570090
O9    O     O_3   0.910192 0.332768 0.959951 -0.581231
O10   O     O_3   0.146858 0.559339 0.832928 -0.722747
O11   O     O_3   0.226223 0.410370 0.131409 -0.809979
O12   O     O_R   0.614640 0.683250 0.500010 -0.589736
O13   O     O_R   0.328400 0.499950 0.653610 -0.491635
O14   O     O_R   0.557730 0.499970 0.653620 -0.591436
O15   O     O_R   0.385360 0.316750 0.499990 -0.532229
O16   O     O_R   0.614690 0.316780 0.500000 -0.660362
O17   O     O_R   0.442270 0.500030 0.346380 -0.602542
O18   O     O_R   0.671600 0.500050 0.346390 -0.626622
O19   O     O_3   0.393085 0.762221 0.310765 -0.581014
Zn1   Zn    Zn3+2 0.346880 0.499980 0.499990 1.072550
Zn2   Zn    Zn3+2 0.653120 0.500020 0.500010 0.972794

loop_
_geom_bond_atom_site_label_1
_geom_bond_atom_site_label_2
_ccdc_geom_bond_type
C18   H28   S    
C25   O17   A    
C1    O1    A    
C19   C20   A    
H8    O3    S    
C7    C8    A    
C13   H23   S    
C33   H10   S    
C12   C23   A    
C35   H16   S    
C37   O9    S    
C28   C29   A    
C38   C39   A    
C6    O2    S    
C23   C40   A    
N1    Zn2   S    
C40   H31   S    
C20   N2    A    
C35   H17   S    
C18   C19   A    
O15   Zn1   S    
C8    C9    A    
C31   H4    S    
H13   O5    S    
C19   O6    S    
C9    C10   A    
O14   Zn2   S    
C17   O5    S    
O12   Zn2   S    
C41   H29   S    
C29   H30   S    
C1    O12   A    
C25   O18   A    
C13   C14   A    
C32   H6    S    
C34   C41   A    
C22   N1    A    
C36   H20   S    
C37   H21   S    
O16   Zn2   S    
C4    O14   A    
C33   H11   S    
C31   H2    S    
C5    H12   S    
C39   C40   A    
C35   O7    S    
C26   C38   A    
O18   Zn2   S    
C3    C5    A    
C2    C4    S    
C29   C30   A    
C3    C9    A    
C27   C41   A    
C15   O4    S    
C37   H24   S    
C17   C18   A    
C16   O16   A    
O17   Zn1   S    
C28   O10   S    
C32   H5    S    
C14   C16   S    
C25   C27   S    
C42   H1    S    
C12   C34   A    
C36   H19   S    
C37   H22   S    
C26   C42   A    
C7    O3    S    
C4    O13   A    
C15   C17   A    
H25   O10   S    
C8    C14   A    
C22   H27   S    
C12   C30   A    
C34   C38   A    
C24   N2    A    
C1    C10   S    
C36   H18   S    
C11   H32   S    
C3    O19   S    
C33   O4    S    
H14   O6    S    
C6    C7    A    
C33   H9    S    
C21   N1    A    
O1    Zn1   S    
C35   H15   S    
O13   Zn1   S    
C24   O8    S    
C39   O7    S    
N2    Zn1   S    
C11   C13   A    
C27   C42   A    
C5    C6    A    
C36   O8    S    
C26   O9    S    
C31   O19   S    
C22   C24   A    
C32   H7    S    
C10   C11   A    
C32   O2    S    
C15   C21   A    
C20   C21   A    
C16   O15   A    
C31   H3    S    
C2    C23   A    
H26   O11   S    
C2    C28   A    
C30   O11   S    
