data_mof_unit_24964.cif
_audit_creation_date              2013-03-05T16:40:15-0500
_audit_creation_method            fapswitch 2.2
_symmetry_space_group_name_H-M    P1
_symmetry_Int_Tables_number       1
_space_group_crystal_system       triclinic
_cell_length_a                    19.261902
_cell_length_b                    18.469762
_cell_length_c                    8.896032
_cell_angle_alpha                 90.093594
_cell_angle_beta                  89.912585
_cell_angle_gamma                 90.333046
_cell_volume                      3164.81544166

loop_
_atom_site_label
_atom_site_type_symbol
_atom_site_description
_atom_site_fract_x
_atom_site_fract_y
_atom_site_fract_z
_atom_type_partial_charge
O1    O     O_R   0.398180 0.560840 0.499960 -0.590908
O2    O     O_R   0.601820 0.439160 0.500040 -0.612217
O3    O     O_R   0.601820 0.560840 0.500040 -0.570386
O4    O     O_R   0.398180 0.439160 0.499960 -0.583452
C1    C     C_R   0.365720 0.499743 0.499476 0.990569
C2    C     C_R   0.634036 0.500224 0.503357 1.002438
O5    O     O_R   0.500000 0.560800 0.285330 -0.630606
O6    O     O_R   0.500000 0.439200 0.714670 -0.647735
O7    O     O_R   0.500000 0.560800 0.714670 -0.588781
O8    O     O_R   0.500000 0.439200 0.285330 -0.611743
C3    C     C_R   0.499088 0.499958 0.218474 1.020309
C4    C     C_R   0.499900 0.500032 0.781544 0.989777
Zn1   Zn    Zn3+2 0.500000 0.581210 0.500000 1.046534
Zn2   Zn    Zn3+2 0.500000 0.418790 0.500000 1.025982
C5    C     C_1   0.499078 0.499936 0.065348 -0.085622
C6    C     C_1   0.499419 0.500041 0.934630 -0.102182
C7    C     C_R   0.743372 0.476162 0.369949 0.254069
C8    C     C_R   0.252601 0.546898 0.589993 0.277218
C9    C     C_R   0.255231 0.448038 0.404259 0.272792
C10   C     C_R   0.746696 0.518253 0.632565 0.229666
C11   C     C_R   0.815238 0.470189 0.371407 -0.150667
C12   C     C_R   0.180423 0.544798 0.585775 -0.176461
C13   C     C_R   0.183175 0.444816 0.408847 -0.172348
C14   C     C_R   0.818672 0.511710 0.630019 -0.160749
H1    H     H_    0.842559 0.452745 0.271183 0.196439
H2    H     H_    0.150513 0.581566 0.655073 0.171688
H3    H     H_    0.155418 0.406143 0.339173 0.172142
H4    H     H_    0.848875 0.526281 0.728357 0.192999
C15   C     C_R   0.852428 0.488626 0.500045 0.113298
C16   C     C_R   0.146446 0.493358 0.497685 0.163851
C17   C     C_R   0.708957 0.500497 0.500931 -0.282005
C18   C     C_R   0.290389 0.498635 0.497357 -0.289334
C19   C     C_R   0.962989 0.536297 0.400912 0.352041
C20   C     C_R   0.036425 0.444691 0.596351 0.376677
C21   C     C_R   0.035439 0.535186 0.395699 0.374682
C22   C     C_R   0.964002 0.440618 0.590969 0.349430
C23   C     C_R   0.071490 0.490977 0.496604 -0.260004
C24   C     C_R   0.927659 0.487856 0.496211 -0.250984
C25   C     C_R   0.528166 0.726005 0.381902 -0.127427
C26   C     C_R   0.490433 0.273846 0.368704 -0.094222
C27   C     C_R   0.471524 0.725674 0.617969 -0.093093
C28   C     C_R   0.509184 0.274006 0.631249 -0.131532
H5    H     H_    0.548758 0.695088 0.289032 0.163412
H6    H     H_    0.484841 0.304287 0.266094 0.166295
H7    H     H_    0.450990 0.694556 0.710766 0.177421
H8    H     H_    0.514782 0.304558 0.733999 0.160134
C29   C     C_R   0.529977 0.802779 0.379712 0.430525
C30   C     C_R   0.488317 0.197144 0.365329 0.414021
C31   C     C_R   0.469219 0.802389 0.620070 0.412700
C32   C     C_R   0.510757 0.197311 0.634425 0.426158
C33   C     C_R   0.499524 0.841156 0.499949 0.071721
C34   C     C_R   0.499488 0.158596 0.499791 0.076839
N1    N     N_R   0.500000 0.689440 0.500000 -0.128484
N2    N     N_R   0.500000 0.310560 0.500000 -0.125704
C35   C     C_R   0.436798 0.961054 0.479151 0.215927
C36   C     C_R   0.562099 0.038699 0.520755 0.216952
C37   C     C_R   0.562096 0.961868 0.520739 0.219977
C38   C     C_R   0.436805 0.037898 0.478768 0.211352
C39   C     C_R   0.499457 0.077104 0.499683 -0.103796
C40   C     C_R   0.499449 0.922661 0.500051 -0.101245
N3    N     N_R   0.706274 0.458568 0.234496 0.230025
O9    O     O_R   0.656884 0.500423 0.187178 -0.387961
O10   O     O_R   0.728174 0.406869 0.147226 -0.344761
N4    N     N_R   0.286281 0.595832 0.692982 0.214196
O11   O     O_R   0.335669 0.572853 0.780080 -0.412407
O12   O     O_R   0.260099 0.659536 0.717884 -0.390621
N5    N     N_R   0.291528 0.401726 0.300862 0.219941
O13   O     O_R   0.269379 0.336010 0.276900 -0.361688
O14   O     O_R   0.339469 0.428360 0.213439 -0.412422
N6    N     N_R   0.713428 0.540709 0.770085 0.209370
O15   O     O_R   0.660290 0.583785 0.767930 -0.374274
O16   O     O_R   0.742249 0.526453 0.898806 -0.309183
O17   O     O_3   0.926575 0.582708 0.308469 -0.585649
C41   C     C_3   0.919685 0.649766 0.382770 -0.154926
H9    H     H_    0.971174 0.675600 0.403018 0.190579
H10   H     H_    0.890773 0.643856 0.490548 0.144704
H11   H     H_    0.889446 0.686622 0.309888 0.198791
O18   O     O_3   0.073361 0.399624 0.690716 -0.556342
C42   C     C_3   0.074650 0.430682 0.835619 -0.205373
H12   H     H_    0.021785 0.432881 0.885810 0.183506
H13   H     H_    0.098482 0.485704 0.834337 0.123748
H14   H     H_    0.106994 0.396295 0.909470 0.202765
O19   O     O_3   0.071350 0.581731 0.301379 -0.559777
C43   C     C_3   0.073489 0.550844 0.156379 -0.209282
H15   H     H_    0.020751 0.546810 0.106227 0.183625
H16   H     H_    0.098500 0.496686 0.157486 0.125453
H17   H     H_    0.105171 0.586425 0.082622 0.202351
O20   O     O_3   0.928613 0.393331 0.684429 -0.585156
C44   C     C_3   0.920880 0.326675 0.608753 -0.139915
H18   H     H_    0.972168 0.301941 0.583548 0.186379
H19   H     H_    0.890211 0.332835 0.503610 0.147866
H20   H     H_    0.892037 0.288766 0.682935 0.203120
O21   O     O_3   0.555385 0.842046 0.257870 -0.586281
C45   C     C_3   0.618174 0.813111 0.202826 -0.123369
H21   H     H_    0.607643 0.767731 0.123884 0.163011
H22   H     H_    0.653577 0.795792 0.294830 0.166123
H23   H     H_    0.645658 0.855935 0.138361 0.225466
O22   O     O_3   0.481495 0.158379 0.231986 -0.609087
C46   C     C_3   0.426283 0.185029 0.144102 -0.113850
H24   H     H_    0.443351 0.232633 0.077275 0.142237
H25   H     H_    0.379707 0.198457 0.212990 0.203151
H26   H     H_    0.410542 0.142255 0.063169 0.233332
O23   O     O_3   0.443388 0.841237 0.741845 -0.597103
C47   C     C_3   0.379923 0.811931 0.793921 -0.076798
H27   H     H_    0.389389 0.766162 0.871909 0.166689
H28   H     H_    0.345049 0.795007 0.700216 0.194137
H29   H     H_    0.352366 0.854390 0.858612 0.220523
O24   O     O_3   0.516973 0.158645 0.767694 -0.601587
C48   C     C_3   0.571919 0.185754 0.856776 -0.140901
H30   H     H_    0.554754 0.233233 0.923557 0.141564
H31   H     H_    0.618820 0.199508 0.788836 0.180769
H32   H     H_    0.587161 0.143122 0.937769 0.237604
N7    N     N_R   0.372562 0.922053 0.460643 0.246644
O25   O     O_R   0.367354 0.870508 0.361345 -0.356935
O26   O     O_R   0.318957 0.937960 0.543266 -0.299125
N8    N     N_R   0.625975 0.077659 0.544780 0.243863
O27   O     O_R   0.644720 0.129318 0.453819 -0.365444
O28   O     O_R   0.665810 0.061430 0.657674 -0.311638
N9    N     N_R   0.626337 0.923693 0.539313 0.246296
O29   O     O_R   0.631610 0.872560 0.639021 -0.361104
O30   O     O_R   0.679857 0.939902 0.456251 -0.310111
N10   N     N_R   0.372949 0.076042 0.454485 0.246433
O31   O     O_R   0.354214 0.127755 0.545115 -0.346732
O32   O     O_R   0.333157 0.059062 0.341577 -0.298802

loop_
_geom_bond_atom_site_label_1
_geom_bond_atom_site_label_2
_geom_bond_distance
_ccdc_geom_bond_type
O21   C45   1.411723 S    
C20   C23   1.402987 A    
O17   C41   1.409767 S    
C43   H17   1.109210 S    
O3    C2    1.283580 A    
C47   H28   1.114564 S    
C22   O20   1.382906 S    
O5    C3    1.270598 A    
C41   H10   1.113264 S    
O1    C1    1.286902 A    
C21   C23   1.401997 A    
C43   H16   1.112841 S    
C30   C34   1.410460 A    
C48   H31   1.114506 S    
C5    C6    1.162884 T    
C36   C37   1.419048 A    
C28   H8    1.078639 S    
N3    O10   1.301436 A    
O7    Zn1   1.947166 S    
C14   C15   1.393125 A    
C7    N3    1.437669 S    
C3    C5    1.362211 S    
O19   C43   1.410225 S    
C31   C33   1.411043 A    
C41   H11   1.109162 S    
C15   C24   1.449593 S    
C32   C34   1.410359 A    
C9    N5    1.438392 S    
N6    O15   1.300207 A    
C13   H3    1.084133 S    
C44   H19   1.113386 S    
O3    Zn1   1.999154 S    
C37   N9    1.437610 S    
C1    C18   1.451202 S    
C2    C17   1.443246 S    
C35   C40   1.415905 A    
C32   O24   1.390727 S    
C10   N6    1.441649 S    
O2    C2    1.284438 A    
C4    C6    1.361874 S    
C9    C18   1.417630 A    
C27   C31   1.417955 A    
C47   H27   1.110544 S    
Zn1   N1    1.998980 S    
N9    O30   1.301220 A    
C29   O21   1.391830 S    
C38   N10   1.437796 S    
C41   H9    1.112881 S    
N5    O13   1.301572 A    
C13   C16   1.390064 A    
C10   C14   1.392499 A    
C43   H15   1.112181 S    
O8    Zn2   1.947167 S    
C48   H32   1.109288 S    
C42   H13   1.112750 S    
C21   O19   1.383914 S    
O18   C42   1.410278 S    
C37   C40   1.415789 A    
C25   H5    1.079828 S    
C35   N7    1.437631 S    
C45   H23   1.109245 S    
C38   C39   1.416116 A    
C11   C15   1.391788 A    
C7    C11   1.389381 A    
C16   C23   1.444244 S    
N5    O14   1.301274 A    
N4    O12   1.301349 A    
C9    C13   1.389403 A    
O24   C48   1.412069 S    
C34   C39   1.505139 S    
C46   H24   1.110103 S    
C26   H6    1.078714 S    
O6    C4    1.270485 A    
C36   N8    1.437806 S    
C45   H21   1.110570 S    
C44   H20   1.109170 S    
C45   H22   1.114600 S    
C27   N1    1.360263 A    
C28   C32   1.417373 A    
C19   O17   1.383526 S    
Zn2   N2    1.998980 S    
C26   N2    1.361855 A    
C7    C17   1.413702 A    
O1    Zn1   1.994859 S    
N10   O32   1.301248 A    
C25   C29   1.418403 A    
N7    O25   1.301213 A    
C26   C30   1.417286 A    
C11   H1    1.084112 S    
O6    Zn2   1.945958 S    
C12   C16   1.391770 A    
C46   H25   1.114612 S    
C8    C12   1.391157 A    
C14   H4    1.084054 S    
O4    C1    1.284971 A    
C31   O23   1.391372 S    
C42   H14   1.109201 S    
C29   C33   1.411051 A    
N9    O29   1.301216 A    
C30   O22   1.390548 S    
C19   C24   1.405691 A    
C36   C39   1.416086 A    
N4    O11   1.301351 A    
C22   C24   1.404699 A    
C44   H18   1.113182 S    
C48   H30   1.110107 S    
C20   O18   1.383744 S    
C8    N4    1.438548 S    
C25   N1    1.360341 A    
C19   C21   1.396493 A    
N8    O28   1.301248 A    
N8    O27   1.301203 A    
C20   C22   1.397482 A    
O4    Zn2   1.999154 S    
N3    O9    1.300257 A    
O2    Zn2   1.994859 S    
O7    C4    1.271140 A    
O8    C3    1.271143 A    
C42   H12   1.112181 S    
O5    Zn1   1.945958 S    
C46   H26   1.109272 S    
C8    C18   1.416633 A    
O20   C44   1.409446 S    
O22   C46   1.412229 S    
C12   H2    1.084064 S    
C35   C38   1.419314 A    
O23   C47   1.411865 S    
C27   H7    1.079898 S    
N6    O16   1.301313 A    
C33   C40   1.505391 S    
N10   O31   1.301204 A    
C47   H29   1.109216 S    
C28   N2    1.361974 A    
N7    O26   1.301224 A    
C10   C17   1.416270 A    
