data_mof_unit_23759.cif
_audit_creation_date              2012-12-11T14:54:42-0500
_audit_creation_method            fapswitch 2.2
_symmetry_space_group_name_H-M    P1
_symmetry_Int_Tables_number       1
_space_group_crystal_system       triclinic
_cell_length_a                    18.977034
_cell_length_b                    10.901664
_cell_length_c                    18.842071
_cell_angle_alpha                 90.012836
_cell_angle_beta                  90.221275
_cell_angle_gamma                 89.958777
_cell_volume                      3898.04099674

loop_
_atom_site_label
_atom_site_type_symbol
_atom_type_description
_atom_site_fract_x
_atom_site_fract_y
_atom_site_fract_z
_atom_type_partial_charge
C1    C     C_R   0.730120 0.376304 0.645816 0.540538
C2    C     C_R   0.291751 0.848375 0.459425 -0.157707
C3    C     C_R   0.937173 0.556102 0.480836 -0.151769
C4    C     C_R   0.192667 0.377383 0.537558 -0.140617
C5    C     C_R   0.791752 0.348384 0.459429 -0.158009
C6    C     C_R   0.697468 0.866583 0.464188 -0.147463
C7    C     C_R   0.289820 0.832544 0.532541 -0.142360
C8    C     C_R   0.197467 0.366574 0.464186 -0.147321
C9    C     C_R   0.789821 0.332551 0.532543 -0.142246
C10   C     C_R   0.760124 0.899607 0.430315 0.032137
C11   C     C_R   0.249513 0.912683 0.574745 0.025097
C12   C     C_R   0.260114 0.399641 0.430307 0.032460
C13   C     C_R   0.271781 0.373204 0.355882 0.538879
C14   C     C_R   0.749517 0.412692 0.574748 0.025541
C15   C     C_R   0.818450 0.938487 0.470539 -0.133974
C16   C     C_R   0.214778 0.012200 0.544146 -0.142928
C17   C     C_R   0.318432 0.438579 0.470524 -0.133672
C18   C     C_R   0.714786 0.512215 0.544151 -0.142792
C19   C     C_R   0.814622 0.944475 0.543059 -0.137036
C20   C     C_R   0.215892 0.026761 0.471675 -0.128896
C21   C     C_R   0.314610 0.444561 0.543044 -0.137460
C22   C     C_R   0.715901 0.526780 0.471680 -0.128732
C23   C     C_R   0.750947 0.919718 0.576898 0.030064
C24   C     C_R   0.230119 0.876300 0.645815 0.540064
C25   C     C_R   0.253392 0.944047 0.428738 0.028643
C26   C     C_R   0.250944 0.419745 0.576890 0.029932
C27   C     C_R   0.753397 0.444061 0.428742 0.028864
C28   C     C_R   0.521054 0.054174 0.969142 -0.134693
C29   C     C_R   0.514816 0.056987 0.041576 -0.142976
C30   C     C_R   0.031554 0.556959 0.971840 -0.126258
C31   C     C_R   0.023236 0.560332 0.044276 -0.131695
C32   C     C_R   0.496786 0.166277 0.075669 0.022522
C33   C     C_R   0.514163 0.162157 0.929098 0.024516
C34   C     C_R   0.999160 0.667442 0.076802 0.038667
C35   C     C_R   0.771785 0.873192 0.355886 0.537558
C36   C     C_R   0.018270 0.661858 0.930516 0.015733
C37   C     C_R   0.491161 0.275767 0.036550 -0.116275
C38   C     C_R   0.500767 0.273904 0.963256 -0.124952
C39   C     C_R   0.990047 0.774971 0.036621 -0.071639
C40   C     C_R   0.999703 0.772186 0.963437 -0.121557
C41   C     C_R   0.531102 0.155199 0.646607 0.545999
C42   C     C_R   0.435321 0.150854 0.360804 0.559431
C43   C     C_R   0.031101 0.655200 0.646608 0.548082
C44   C     C_R   0.935324 0.650854 0.360804 0.559147
C45   C     C_R   0.814815 0.951513 0.960635 0.350040
C46   C     C_3   0.525982 0.356665 0.448600 -0.262097
C47   C     C_R   0.183338 0.923283 0.043606 0.355173
C48   C     C_R   0.289206 0.526933 0.974597 0.366301
C49   C     C_R   0.705347 0.516846 0.027119 0.367201
C50   C     C_R   0.817280 0.947537 0.033215 -0.100558
C51   C     C_R   0.177685 0.913229 0.971061 -0.093277
C52   C     C_R   0.289483 0.513339 0.047055 -0.089579
C53   C     C_R   0.705972 0.506523 0.954631 -0.088545
C54   C     C_R   0.759277 0.905598 0.072306 -0.031325
C55   C     C_R   0.238121 0.897590 0.929074 -0.020165
C56   C     C_R   0.249215 0.421315 0.078272 -0.032750
C57   C     C_3   0.548341 0.359243 0.525985 -0.258764
C58   C     C_R   0.749782 0.420716 0.922188 -0.034869
C59   C     C_R   0.697543 0.869887 0.037295 -0.118355
C60   C     C_R   0.304352 0.886709 0.960692 -0.100978
C61   C     C_R   0.202430 0.351068 0.037001 -0.160721
C62   C     C_R   0.799144 0.354369 0.962581 -0.149411
C63   C     C_R   0.693721 0.878951 0.963796 -0.180113
C64   C     C_R   0.310387 0.898586 0.033750 -0.172229
C65   C     C_R   0.200392 0.366864 0.963947 -0.205293
C66   C     C_R   0.801170 0.368854 0.035795 -0.191957
C67   C     C_R   0.751790 0.923328 0.925352 0.028967
C68   C     C_3   0.026038 0.856612 0.448583 -0.261105
C69   C     C_R   0.250028 0.921261 0.075117 0.026183
C70   C     C_R   0.245519 0.451887 0.932111 0.031338
C71   C     C_R   0.752961 0.447642 0.068704 0.030376
C72   C     C_R   0.741451 0.968003 0.647800 0.544204
C73   C     C_R   0.259529 0.973179 0.354128 0.539075
C74   C     C_R   0.241450 0.468010 0.647797 0.543000
C75   C     C_R   0.759531 0.473188 0.354131 0.535309
C76   C     C_R   0.730378 0.379554 0.851836 0.548578
C77   C     C_R   0.269528 0.379556 0.148237 0.551456
C78   C     C_R   0.227767 0.874233 0.854305 0.548778
C79   C     C_3   0.048394 0.859193 0.525969 -0.259249
C80   C     C_R   0.771390 0.876341 0.146370 0.551136
C81   C     C_R   0.534394 0.156622 0.854854 0.548414
C82   C     C_R   0.468111 0.157383 0.146787 0.556178
C83   C     C_R   0.035812 0.656401 0.855588 0.552681
C84   C     C_R   0.968598 0.657514 0.147112 0.563101
C85   C     C_R   0.741642 0.969775 0.853966 0.568539
C86   C     C_R   0.258721 0.969851 0.146034 0.580292
C87   C     C_R   0.239693 0.478272 0.856927 0.563854
C88   C     C_R   0.759773 0.476372 0.143596 0.567325
C89   C     C_R   0.448602 0.158641 0.437241 0.016656
C90   C     C_R   0.692664 0.877394 0.537560 -0.140708
C91   C     C_R   0.489239 0.164297 0.581380 0.016352
C92   C     C_R   0.948613 0.658642 0.437239 0.016423
C93   C     C_R   0.989244 0.664304 0.581380 0.016953
C94   C     C_R   0.469560 0.268422 0.469590 0.013047
C95   C     C_R   0.489846 0.271098 0.540260 0.006021
C96   C     C_R   0.969594 0.768416 0.469581 0.012286
C97   C     C_R   0.989876 0.771096 0.540251 0.006630
C98   C     C_R   0.456846 0.058988 0.552563 -0.147612
C99   C     C_R   0.437182 0.056087 0.480832 -0.151827
C100  C     C_R   0.956834 0.559006 0.552568 -0.147295
Cr1   Cr    Cr6+3 0.771950 0.169480 0.750100 1.051949
Cr2   Cr    Cr6+3 0.383410 0.010620 0.249390 1.015204
Cr3   Cr    Cr6+3 0.116590 0.510620 0.750610 1.017888
Cr4   Cr    Cr6+3 0.883410 0.510620 0.249390 1.017696
Cr5   Cr    Cr6+3 0.228050 0.169480 0.249900 1.044734
Cr6   Cr    Cr6+3 0.271950 0.669480 0.750100 1.056120
Cr7   Cr    Cr6+3 0.728050 0.669480 0.249900 1.053846
Cr8   Cr    Cr6+3 0.614930 0.323340 0.749170 1.023611
Cr9   Cr    Cr6+3 0.385070 0.323340 0.250830 1.022353
Cr10  Cr    Cr6+3 0.114930 0.823340 0.749170 1.029757
Cr11  Cr    Cr6+3 0.885070 0.823340 0.250830 1.030538
Cr12  Cr    Cr6+3 0.616590 0.010620 0.750610 1.013826
F1    F     F_    0.873348 0.989379 0.925590 -0.647335
F2    F     F_    0.123992 0.940525 0.082452 -0.635688
F3    F     F_    0.332077 0.614040 0.946754 -0.632803
F4    F     F_    0.657726 0.595447 0.055733 -0.638518
H1    H     H_    0.452687 0.975389 0.583312 0.136222
H2    H     H_    0.351022 0.870976 0.929017 0.171819
H3    H     H_    0.170771 0.279100 0.060387 0.169898
H4    H     H_    0.833351 0.286895 0.938282 0.182502
H5    H     H_    0.644650 0.856129 0.937503 0.145702
H6    H     H_    0.362623 0.897164 0.057130 0.155874
H7    H     H_    0.164805 0.311372 0.932353 0.141854
H8    H     H_    0.839434 0.317539 0.066614 0.147948
H9    H     H_    0.004120 0.945493 0.429826 0.134627
H10   H     H_    0.101320 0.818240 0.535199 0.161870
H11   H     H_    0.504043 0.445535 0.429851 0.133620
H12   H     H_    0.417829 0.971229 0.458386 0.136832
H13   H     H_    0.601277 0.318328 0.535210 0.162267
H14   H     H_    0.566129 0.314830 0.413176 0.158122
H15   H     H_    0.539463 0.449633 0.551758 0.137589
H16   H     H_    0.066176 0.814738 0.413164 0.160438
H17   H     H_    0.039538 0.949598 0.551733 0.138557
H18   H     H_    0.642684 0.858458 0.562855 0.132883
H19   H     H_    0.322424 0.786112 0.427047 0.122119
H20   H     H_    0.142693 0.358405 0.562860 0.133088
H21   H     H_    0.822423 0.286117 0.427050 0.122116
H22   H     H_    0.652596 0.833418 0.434125 0.123068
H23   H     H_    0.952659 0.475416 0.583323 0.136817
H24   H     H_    0.316523 0.753967 0.555374 0.138769
H25   H     H_    0.152600 0.333369 0.434127 0.123531
H26   H     H_    0.816522 0.253969 0.555376 0.139040
H27   H     H_    0.868283 0.962090 0.446361 0.137506
H28   H     H_    0.183540 0.074803 0.575806 0.128252
H29   H     H_    0.368259 0.462223 0.446344 0.137419
H30   H     H_    0.683550 0.574820 0.575812 0.127824
H31   H     H_    0.860491 0.976431 0.572096 0.133803
H32   H     H_    0.187656 0.104060 0.449388 0.140203
H33   H     H_    0.360475 0.476552 0.572074 0.132451
H34   H     H_    0.917807 0.471250 0.458394 0.136999
H35   H     H_    0.687668 0.604083 0.449393 0.140127
H36   H     H_    0.532975 0.966566 0.944943 0.141873
H37   H     H_    0.519922 0.971284 0.070287 0.140109
H38   H     H_    0.049204 0.471552 0.948487 0.148172
H39   H     H_    0.031763 0.476720 0.074220 0.140808
H40   H     H_    0.476613 0.361184 0.061962 0.156407
H41   H     H_    0.497259 0.358664 0.933471 0.150625
H42   H     H_    0.972444 0.859215 0.061154 0.167306
H43   H     H_    0.992215 0.855104 0.932711 0.186359
H44   H     H_    0.866315 0.973961 0.058389 0.157071
H45   H     H_    0.125432 0.916427 0.947892 0.160440
H46   H     H_    0.325177 0.569433 0.078238 0.157321
H47   H     H_    0.667929 0.559443 0.924370 0.157490
H48   H     H_    0.652748 0.835364 0.066554 0.190559
O1    O     O_R   0.787510 0.042610 0.670410 -0.526512
O2    O     O_R   0.454250 0.051070 0.169440 -0.521215
O3    O     O_R   0.045750 0.551070 0.830560 -0.522515
O4    O     O_R   0.954250 0.551070 0.169440 -0.518455
O5    O     O_R   0.681210 0.959150 0.825320 -0.526774
O6    O     O_R   0.318790 0.959150 0.174680 -0.522881
O7    O     O_R   0.181210 0.459150 0.825320 -0.523862
O8    O     O_R   0.818790 0.459150 0.174680 -0.517650
O9    O     O_3   0.667820 0.167810 0.749960 -0.253205
O10   O     O_3   0.332180 0.167810 0.250040 -0.276733
O11   O     O_3   0.167820 0.667810 0.749960 -0.259022
O12   O     O_R   0.212490 0.042610 0.329590 -0.521791
O13   O     O_3   0.832180 0.667810 0.250040 -0.280629
O14   O     O_R   0.765670 0.292090 0.675090 -0.508783
O15   O     O_R   0.234330 0.292090 0.324910 -0.510203
O16   O     O_R   0.265670 0.792090 0.675090 -0.510448
O17   O     O_R   0.734330 0.792090 0.324910 -0.511454
O18   O     O_R   0.670220 0.409020 0.668560 -0.527910
O19   O     O_R   0.329780 0.409020 0.331440 -0.534073
O20   O     O_R   0.170220 0.909020 0.668560 -0.526022
O21   O     O_R   0.829780 0.909020 0.331440 -0.533427
O22   O     O_R   0.556580 0.251590 0.674980 -0.498136
O23   O     O_R   0.287510 0.542610 0.670410 -0.530612
O24   O     O_R   0.443420 0.251590 0.325020 -0.500195
O25   O     O_R   0.056580 0.751590 0.674980 -0.495386
O26   O     O_R   0.943420 0.751590 0.325020 -0.497174
O27   O     O_R   0.545890 0.049670 0.670030 -0.523584
O28   O     O_R   0.454110 0.049670 0.329970 -0.514134
O29   O     O_R   0.045890 0.549670 0.670030 -0.523033
O30   O     O_R   0.954110 0.549670 0.329970 -0.513850
O31   O     O_R   0.681340 0.957860 0.676500 -0.507671
O32   O     O_R   0.318660 0.957860 0.323500 -0.522055
O33   O     O_R   0.181340 0.457860 0.676500 -0.506417
O34   O     O_R   0.712490 0.542610 0.329590 -0.527441
O35   O     O_R   0.818660 0.457860 0.323500 -0.522152
O36   O     O_R   0.787380 0.044010 0.830940 -0.435767
O37   O     O_R   0.212620 0.044010 0.169060 -0.443252
O38   O     O_R   0.287380 0.544010 0.830940 -0.439092
O39   O     O_R   0.712620 0.544010 0.169060 -0.432387
O40   O     O_R   0.765540 0.293390 0.823910 -0.496397
O41   O     O_R   0.234460 0.293390 0.176090 -0.498557
O42   O     O_R   0.265540 0.793390 0.823910 -0.468004
O43   O     O_R   0.734460 0.793390 0.176090 -0.473218
O44   O     O_R   0.670090 0.410410 0.829090 -0.523171
O45   O     O_R   0.556450 0.252890 0.823790 -0.498511
O46   O     O_R   0.329910 0.410410 0.170910 -0.520928
O47   O     O_R   0.170090 0.910410 0.829090 -0.531411
O48   O     O_R   0.829910 0.910410 0.170910 -0.530408
O49   O     O_R   0.443550 0.252890 0.176210 -0.495756
O50   O     O_R   0.056450 0.752890 0.823790 -0.501381
O51   O     O_R   0.943550 0.752890 0.176210 -0.492963
O52   O     O_R   0.545750 0.051070 0.830560 -0.526798

loop_
_geom_bond_atom_site_label_1
_geom_bond_atom_site_label_2
_ccdc_geom_bond_type
C58   C62   A    
C47   F2    S    
C81   O45   A    
C21   C26   A    
Cr2   O6    S    
C88   O8    A    
C53   C58   A    
Cr8   O18   S    
C61   H3    S    
C72   O1    A    
C14   C18   A    
C40   H43   S    
Cr1   O9    S    
C2    C7    A    
C4    C8    A    
C72   O31   A    
Cr8   O45   S    
Cr1   O36   S    
C58   C76   S    
Cr10  O11   S    
C62   H4    S    
C7    C11   A    
C50   C54   A    
Cr7   O17   S    
C57   H13   S    
C28   C29   A    
C16   H28   S    
Cr11  O51   S    
Cr6   O23   S    
C29   C32   A    
Cr9   O49   S    
C10   C15   A    
C30   C31   A    
C90   H18   S    
C64   H6    S    
C81   O52   A    
Cr4   O4    S    
C20   C25   A    
C36   C83   S    
C65   C70   A    
C11   C24   S    
C92   C96   A    
C76   O44   A    
Cr3   O33   S    
C89   C94   A    
C68   H16   S    
C45   F1    S    
Cr11  O48   S    
C47   C69   A    
Cr1   O14   S    
C44   O26   A    
C5    C27   A    
C3    C100  A    
Cr4   O13   S    
C88   O39   A    
C66   C71   A    
C13   O19   A    
Cr5   O12   S    
C12   C17   A    
C24   O16   A    
Cr2   O28   S    
Cr6   O11   S    
C20   H32   S    
C60   H2    S    
C8    H25   S    
C59   H48   S    
C21   H33   S    
C2    C25   A    
C80   O48   A    
C87   O38   A    
Cr7   O43   S    
C44   C92   S    
C84   O51   A    
C16   C20   A    
C4    H20   S    
Cr9   O19   S    
C68   C79   S    
C65   H7    S    
Cr12  O9    S    
Cr10  O20   S    
Cr2   O2    S    
C86   O6    A    
C55   C60   A    
C96   C97   A    
C1    O18   A    
Cr3   O7    S    
C37   H40   S    
Cr7   O39   S    
C34   C84   S    
Cr5   O15   S    
C27   C75   S    
C70   C87   S    
Cr6   O16   S    
C63   H5    S    
C79   C97   S    
C54   C80   S    
C54   C59   A    
Cr9   O24   S    
C79   H17   S    
C63   C67   A    
C4    C26   A    
Cr11  O21   S    
C67   C85   S    
C62   C66   A    
C86   O37   A    
C34   C39   A    
C46   H11   S    
C36   C40   A    
C22   C27   A    
C39   C40   A    
C55   C78   S    
C41   O27   A    
Cr9   O10   S    
C53   H47   S    
C47   C51   A    
C64   C69   A    
C51   C55   A    
C50   H44   S    
C6    C90   A    
C83   O3    A    
C32   C37   A    
C85   O5    A    
C56   C77   S    
C3    C92   A    
C6    H22   S    
C15   C19   A    
C9    C14   A    
C78   O42   A    
Cr12  O31   S    
C5    C9    A    
C37   C38   A    
C84   O4    A    
C100  H23   S    
C77   O41   A    
Cr6   O38   S    
C82   O49   A    
C1    O14   A    
C85   O36   A    
Cr5   O37   S    
Cr12  O5    S    
C46   C94   S    
C74   O33   A    
C48   C52   A    
C8    C12   A    
C87   O7    A    
Cr8   O9    S    
C80   O43   A    
Cr3   O11   S    
C23   C90   A    
C68   C96   S    
Cr3   O3    S    
Cr1   O1    S    
C93   C100  A    
C10   C35   S    
C77   O46   A    
C48   F3    S    
C15   H27   S    
C41   C91   S    
C79   H10   S    
C89   C99   A    
C28   C33   A    
C28   H36   S    
Cr5   O10   S    
C39   H42   S    
C57   C95   S    
C17   H29   S    
Cr4   O35   S    
C66   H8    S    
C35   O17   A    
Cr9   O46   S    
C93   C97   A    
Cr4   O8    S    
C83   O50   A    
C31   C34   A    
C19   C23   A    
C98   H1    S    
C29   H37   S    
C74   O23   A    
C82   O2    A    
C75   O34   A    
C42   O24   A    
Cr8   O44   S    
C22   H35   S    
C3    H34   S    
Cr10  O50   S    
C18   C22   A    
C44   O30   A    
C23   C72   S    
C57   H15   S    
C2    H19   S    
C38   H41   S    
C48   C70   A    
C18   H30   S    
Cr1   O40   S    
Cr2   O32   S    
Cr6   O42   S    
Cr7   O34   S    
C31   H39   S    
C9    H26   S    
C76   O40   A    
Cr5   O41   S    
C45   C67   A    
C75   O35   A    
C24   O20   A    
Cr2   O10   S    
C32   C82   S    
C43   O29   A    
Cr10  O25   S    
C59   C63   A    
C33   C38   A    
C30   C36   A    
C60   C64   A    
C46   H14   S    
C42   C89   S    
Cr10  O47   S    
C5    H21   S    
C46   C57   S    
C13   O15   A    
C35   O21   A    
Cr12  O27   S    
C7    H24   S    
C45   C50   A    
C73   O12   A    
C49   C53   A    
C78   O47   A    
C43   C93   S    
C41   O22   A    
C51   H45   S    
C99   H12   S    
C25   C73   S    
Cr12  O52   S    
C91   C98   A    
C94   C95   A    
C19   H31   S    
C11   C16   A    
C6    C10   A    
C91   C95   A    
C71   C88   S    
C42   O28   A    
C30   H38   S    
C49   F4    S    
C12   C13   S    
C43   O25   A    
Cr11  O26   S    
C26   C74   S    
C98   C99   A    
C49   C71   A    
C73   O32   A    
Cr11  O13   S    
Cr4   O30   S    
C56   C61   A    
C1    C14   S    
Cr3   O29   S    
Cr8   O22   S    
C33   C81   S    
C68   H9    S    
Cr7   O13   S    
C69   C86   S    
C52   C56   A    
C52   H46   S    
C61   C65   A    
C17   C21   A    
