data_mof_unit_39891.cif
_audit_creation_date              2012-12-10T18:44:05-0500
_audit_creation_method            fapswitch 2.2
_symmetry_space_group_name_H-M    P1
_symmetry_Int_Tables_number       1
_space_group_crystal_system       triclinic
_cell_length_a                    18.179478
_cell_length_b                    18.112838
_cell_length_c                    22.116059
_cell_angle_alpha                 114.184607
_cell_angle_beta                  114.321463
_cell_angle_gamma                 89.962837
_cell_volume                      5928.6102582

loop_
_atom_site_label
_atom_site_type_symbol
_atom_type_description
_atom_site_fract_x
_atom_site_fract_y
_atom_site_fract_z
_atom_type_partial_charge
C1    C     C_R   0.349728 0.349719 0.699433 0.820119
C2    C     C_1   0.889981 0.890024 0.778425 -0.141388
C3    C     C_3   0.051231 0.291290 0.040512 -0.339231
C4    C     C_3   0.000721 0.331021 0.992116 -0.933835
C5    C     C_3   0.013039 0.789314 0.945696 0.121453
C6    C     C_3   0.041729 0.783616 0.887825 -0.425894
C7    C     C_3   0.092363 0.716694 0.875187 -0.887542
C8    C     C_3   0.093097 0.041649 0.895024 0.101198
C9    C     C_3   0.101779 0.966200 0.834747 -0.351501
C10   C     C_3   0.072399 0.972980 0.762227 -0.927433
C11   C     C_3   0.818381 0.939525 0.993376 0.135097
C12   C     C_3   0.769824 0.897477 0.016863 -0.343661
C13   C     C_3   0.073133 0.971646 0.026693 -0.433123
C14   C     C_3   0.681169 0.859138 0.956679 -0.938453
C15   C     C_3   0.903203 0.548255 0.621623 0.058684
C16   C     C_3   0.904957 0.635546 0.674465 -0.353036
C17   C     C_3   0.818284 0.648608 0.662888 -0.941362
C18   C     C_3   0.981081 0.483897 0.331390 0.113678
C19   C     C_3   0.012187 0.470498 0.273867 -0.338111
C20   C     C_3   0.956521 0.495742 0.215023 -0.925001
C21   C     C_3   0.133675 0.688345 0.564875 0.114033
C22   C     C_3   0.117799 0.743946 0.630602 -0.328850
C23   C     C_3   0.197451 0.800477 0.697280 -0.976910
C24   C     C_3   0.936973 0.034223 0.974158 -0.539061
C25   C     C_3   0.942202 0.345604 0.546891 0.110444
C26   C     C_3   0.031046 0.349878 0.600088 -0.341820
C27   C     C_3   0.034872 0.347082 0.669295 -0.848654
C28   C     C_3   0.040539 0.038745 0.073802 -0.039692
C29   C     C_3   0.969013 0.965955 0.925985 -0.127274
C30   C     C_1   0.078674 0.078704 0.154765 0.101955
C31   C     C_1   0.925372 0.923972 0.845048 0.004587
C32   C     C_3   0.072727 0.536602 0.564848 -0.433977
C33   C     C_3   0.928494 0.461989 0.438332 -0.425285
C34   C     C_3   0.986883 0.518488 0.560858 0.378114
C35   C     C_R   0.650029 0.650269 0.300571 0.831640
C36   C     C_3   0.013658 0.481037 0.442830 0.440304
C37   C     C_3   0.948509 0.550890 0.502128 -0.251305
C38   C     C_3   0.052217 0.448875 0.500722 -0.175864
C39   C     C_R   0.150334 0.150455 0.300715 0.815371
C40   C     C_R   0.849740 0.850176 0.699246 0.825259
C41   C     C_3   0.033303 0.568182 0.505567 0.442252
C42   C     C_3   0.968460 0.430606 0.498064 0.444546
C43   C     C_3   0.570958 0.544863 0.025584 0.458641
C44   C     C_3   0.425179 0.454883 0.974459 0.472066
C45   C     C_3   0.545532 0.450861 0.976342 0.340687
C46   C     C_3   0.512673 0.575141 0.554600 0.193103
C47   C     C_3   0.450615 0.548775 0.023794 0.346776
C48   C     C_1   0.389343 0.389501 0.778762 -0.103485
C49   C     C_1   0.608975 0.610410 0.221259 -0.109510
C50   C     C_3   0.488402 0.558879 0.975649 -0.427048
C51   C     C_3   0.507578 0.440808 0.024416 -0.421132
C52   C     C_3   0.462706 0.463909 0.926555 -0.072092
C53   C     C_3   0.533381 0.535718 0.073478 -0.070387
C54   C     C_1   0.422563 0.423116 0.845489 0.107082
C55   C     C_1   0.574481 0.576641 0.154545 0.109315
C56   C     C_3   0.063886 0.965931 0.497009 0.334018
C57   C     C_3   0.488343 0.421196 0.446422 0.206365
C58   C     C_3   0.936237 0.035989 0.504943 0.343811
C59   C     C_3   0.973244 0.930835 0.439309 0.453704
C60   C     C_3   0.026991 0.071482 0.562868 0.469508
C61   C     C_3   0.948849 0.950564 0.501888 -0.204415
C62   C     C_3   0.051101 0.051164 0.499848 -0.205420
C63   C     C_R   0.391303 0.108089 0.499862 0.991739
C64   C     C_R   0.608941 0.892067 0.500283 0.994489
C65   C     C_3   0.040347 0.986159 0.561065 -0.421046
C66   C     C_3   0.959822 0.015764 0.441050 -0.395299
C67   C     C_3   0.460903 0.993243 0.537268 0.349750
C68   C     C_3   0.058568 0.016535 0.977277 0.453267
C69   C     C_3   0.540188 0.007250 0.463306 0.344023
C70   C     C_3   0.555065 0.020582 0.570954 0.233829
C71   C     C_3   0.446243 0.980275 0.429731 0.266775
C72   C     C_3   0.552334 0.949459 0.500273 -0.337455
C73   C     C_3   0.448540 0.051179 0.500224 -0.345965
C74   C     C_3   0.458157 0.922356 0.466745 0.222472
C75   C     C_3   0.542904 0.078466 0.533621 0.206225
C76   C     C_R   0.108773 0.391765 0.499426 0.885515
C77   C     C_R   0.891655 0.608349 0.500049 0.879803
C78   C     C_R   0.108419 0.108139 0.499881 0.910207
C79   C     C_3   0.951793 0.988550 0.022592 0.470370
C80   C     C_R   0.891519 0.892429 0.500643 0.927988
C81   C     C_R   0.390340 0.391583 0.499063 0.980252
C82   C     C_R   0.610046 0.607934 0.501282 0.926230
C83   C     C_3   0.429798 0.525340 0.486526 0.295339
C84   C     C_3   0.571873 0.470801 0.513964 0.325408
C85   C     C_3   0.471137 0.499345 0.434638 0.277065
C86   C     C_3   0.529580 0.496866 0.565200 0.377718
C87   C     C_3   0.555466 0.549824 0.502902 -0.385357
C88   C     C_3   0.447000 0.447748 0.498411 -0.280628
C89   C     C_3   0.371392 0.449908 0.312319 0.112869
C90   C     C_3   0.027589 0.083457 0.025458 0.454817
C91   C     C_3   0.331034 0.477157 0.251222 -0.328851
C92   C     C_3   0.247481 0.421084 0.191911 -0.976415
C93   C     C_3   0.628924 0.547941 0.688079 0.180693
C94   C     C_3   0.685443 0.508947 0.734512 -0.315559
C95   C     C_3   0.765664 0.569902 0.795885 -0.976879
C96   C     C_3   0.665510 0.603598 0.005030 0.117332
C97   C     C_3   0.752371 0.654711 0.042475 -0.317741
C98   C     C_3   0.775090 0.662964 0.986082 -0.977094
C99   C     C_3   0.328975 0.398710 0.996215 0.135977
C100  C     C_3   0.321971 0.308358 0.981979 -0.370906
C101  C     C_3   0.983267 0.921672 0.975064 0.450218
C102  C     C_3   0.299133 0.295209 0.036436 -0.942095
C103  C     C_3   0.965673 0.854000 0.322285 0.147776
C104  C     C_3   0.889527 0.851680 0.256137 -0.381698
C105  C     C_3   0.911435 0.853439 0.197081 -0.928962
C106  C     C_3   0.070195 0.151672 0.690359 0.075789
C107  C     C_3   0.989666 0.139584 0.695424 -0.313059
C108  C     C_3   0.004799 0.170802 0.775874 -0.975407
C109  C     C_3   0.441089 0.936189 0.607382 0.167023
C110  C     C_3   0.377198 0.915858 0.629410 -0.348842
C111  C     C_3   0.399800 0.852969 0.660105 -0.902708
C112  C     C_1   0.110918 0.111453 0.221446 -0.105760
C113  C     C_3   0.577829 0.075117 0.408091 0.196516
C114  C     C_3   0.594588 0.055507 0.341409 -0.320028
C115  C     C_3   0.600384 0.131352 0.328500 -0.894960
C116  C     C_3   0.344955 0.614286 0.458416 0.163044
C117  C     C_3   0.266006 0.642725 0.459066 -0.409030
C118  C     C_3   0.249842 0.712191 0.436218 -0.817268
C119  C     C_3   0.694312 0.439831 0.505460 0.083069
C120  C     C_3   0.657432 0.381120 0.422239 -0.292122
C121  C     C_3   0.721488 0.372391 0.393429 -0.943553
C122  C     C_3   0.008444 0.202924 0.011704 0.108493
Cl1   Cl    Cl    0.607604 0.384920 0.944015 -0.581539
Cl2   Cl    Cl    0.467784 0.317877 0.375922 -0.631342
Cl3   Cl    Cl    0.387563 0.612998 0.056185 -0.576185
Cl4   Cl    Cl    0.148575 0.919541 0.490671 -0.627522
Cl5   Cl    Cl    0.850332 0.081230 0.509233 -0.617377
Cl6   Cl    Cl    0.631526 0.047987 0.663335 -0.534960
Cl7   Cl    Cl    0.373934 0.954722 0.336528 -0.504477
Cl8   Cl    Cl    0.404159 0.817748 0.419319 -0.588913
Cl9   Cl    Cl    0.595718 0.183527 0.580370 -0.532330
Cl10  Cl    Cl    0.528332 0.675221 0.627420 -0.628135
H1    H     H_    0.515298 0.393454 0.045061 0.193309
H2    H     H_    0.384873 0.387926 0.287091 0.207799
H3    H     H_    0.816053 0.892595 0.940290 0.177371
H4    H     H_    0.788872 0.990169 0.983872 0.146038
H5    H     H_    0.800342 0.848094 0.027832 0.236463
H6    H     H_    0.769541 0.943413 0.068864 0.236431
H7    H     H_    0.648905 0.907513 0.945280 0.276181
H8    H     H_    0.647890 0.829054 0.975585 0.268772
H9    H     H_    0.680134 0.811626 0.904687 0.271488
H10   H     H_    0.883958 0.505959 0.639599 0.145095
H11   H     H_    0.855818 0.530914 0.564103 0.114287
H12   H     H_    0.941635 0.644287 0.732066 0.230752
H13   H     H_    0.322278 0.541635 0.275638 0.242416
H14   H     H_    0.935018 0.681909 0.666613 0.245051
H15   H     H_    0.785473 0.654806 0.610881 0.244515
H16   H     H_    0.821549 0.705425 0.710417 0.266750
H17   H     H_    0.783293 0.595655 0.659263 0.250550
H18   H     H_    0.978932 0.550485 0.358223 0.177914
H19   H     H_    0.917877 0.445847 0.302479 0.143186
H20   H     H_    0.075625 0.507623 0.302128 0.227310
H21   H     H_    0.014397 0.404180 0.246298 0.234453
H22   H     H_    0.892919 0.458602 0.185270 0.276801
H23   H     H_    0.980685 0.484813 0.174063 0.269085
H24   H     H_    0.372006 0.475450 0.224920 0.235443
H25   H     H_    0.954954 0.562401 0.241155 0.269753
H26   H     H_    0.161102 0.728874 0.549866 0.182113
H27   H     H_    0.180004 0.650734 0.580028 0.134940
H28   H     H_    0.073759 0.782516 0.613727 0.257068
H29   H     H_    0.090131 0.705764 0.647356 0.235085
H30   H     H_    0.244258 0.763617 0.712796 0.275550
H31   H     H_    0.185150 0.835693 0.745461 0.273411
H32   H     H_    0.221979 0.845004 0.684142 0.274845
H33   H     H_    0.905211 0.284660 0.527824 0.198587
H34   H     H_    0.912940 0.391470 0.575044 0.133273
H35   H     H_    0.254267 0.355886 0.167492 0.282496
H36   H     H_    0.054635 0.296852 0.571273 0.229955
H37   H     H_    0.071747 0.408025 0.618114 0.217145
H38   H     H_    0.016890 0.402795 0.701468 0.261925
H39   H     H_    0.098700 0.345613 0.704993 0.264052
H40   H     H_    0.992629 0.291130 0.653630 0.288969
H41   H     H_    0.221143 0.440489 0.147008 0.273891
H42   H     H_    0.204185 0.425426 0.216377 0.268769
H43   H     H_    0.612003 0.600911 0.724516 0.184133
H44   H     H_    0.663803 0.572155 0.666572 0.143595
H45   H     H_    0.653264 0.488657 0.759984 0.238922
H46   H     H_    0.700094 0.453842 0.697984 0.268165
H47   H     H_    0.479685 0.606216 0.954939 0.193149
H48   H     H_    0.801348 0.587256 0.771648 0.274752
H49   H     H_    0.803812 0.540849 0.830379 0.277677
H50   H     H_    0.752526 0.626584 0.831970 0.276473
H51   H     H_    0.621059 0.637251 0.979971 0.131890
H52   H     H_    0.661101 0.542658 0.960542 0.187447
H53   H     H_    0.755744 0.717244 0.084134 0.228487
H54   H     H_    0.797593 0.624811 0.071728 0.243906
H55   H     H_    0.775501 0.601145 0.945956 0.281683
H56   H     H_    0.837525 0.702269 0.015231 0.276233
H57   H     H_    0.730223 0.691899 0.955480 0.271168
H58   H     H_    0.071410 0.971258 0.608405 0.193944
H59   H     H_    0.268838 0.416711 0.990214 0.181522
H60   H     H_    0.375070 0.439196 0.054829 0.141618
H61   H     H_    0.273915 0.268597 0.924403 0.233842
H62   H     H_    0.381710 0.289496 0.987626 0.233667
H63   H     H_    0.347403 0.332762 0.094345 0.274348
H64   H     H_    0.293597 0.228996 0.024160 0.283489
H65   H     H_    0.239138 0.313018 0.031040 0.259494
H66   H     H_    0.990404 0.797461 0.302749 0.179115
H67   H     H_    0.015219 0.907509 0.343784 0.146044
H68   H     H_    0.843212 0.794522 0.231210 0.240229
H69   H     H_    0.928392 0.028978 0.392759 0.202046
H70   H     H_    0.861455 0.905646 0.275237 0.234443
H71   H     H_    0.957634 0.910203 0.220772 0.281239
H72   H     H_    0.855226 0.853403 0.150804 0.264392
H73   H     H_    0.936532 0.798149 0.174815 0.268703
H74   H     H_    0.108362 0.213120 0.735293 0.182032
H75   H     H_    0.107778 0.105907 0.700864 0.127853
H76   H     H_    0.946573 0.174192 0.670695 0.275785
H77   H     H_    0.960159 0.072912 0.663762 0.218529
H78   H     H_    0.052509 0.142752 0.804753 0.255709
H79   H     H_    0.946768 0.154509 0.777164 0.284524
H80   H     H_    0.881116 0.058720 0.952356 0.182985
H81   H     H_    0.025614 0.239071 0.806104 0.271494
H82   H     H_    0.500270 0.967578 0.658517 0.194435
H83   H     H_    0.449458 0.877312 0.569366 0.173636
H84   H     H_    0.373162 0.973339 0.672238 0.246717
H85   H     H_    0.315742 0.890311 0.580227 0.275667
H86   H     H_    0.401634 0.794160 0.617247 0.292006
H87   H     H_    0.352908 0.840011 0.676278 0.262891
H88   H     H_    0.460886 0.877427 0.709803 0.287934
H89   H     H_    0.625675 0.128642 0.457054 0.207977
H90   H     H_    0.515868 0.091649 0.395284 0.173562
H91   H     H_    0.130043 0.948927 0.049327 0.194811
H92   H     H_    0.653567 0.033384 0.351035 0.263562
H93   H     H_    0.544142 0.005526 0.290979 0.249617
H94   H     H_    0.542993 0.156136 0.320511 0.302552
H95   H     H_    0.609284 0.114195 0.278041 0.270210
H96   H     H_    0.653891 0.179825 0.376649 0.271925
H97   H     H_    0.341192 0.596858 0.402812 0.167061
H98   H     H_    0.398098 0.666594 0.500629 0.193351
H99   H     H_    0.212744 0.589796 0.420216 0.246212
H100  H     H_    0.271493 0.664698 0.515886 0.231467
H101  H     H_    0.241482 0.690629 0.378565 0.284673
H102  H     H_    0.131639 0.564027 0.616768 0.194281
H103  H     H_    0.192950 0.732113 0.438699 0.284858
H104  H     H_    0.302138 0.765830 0.474461 0.294521
H105  H     H_    0.750675 0.419958 0.534045 0.149547
H106  H     H_    0.714771 0.503901 0.518049 0.137073
H107  H     H_    0.632843 0.319174 0.412509 0.269945
H108  H     H_    0.606978 0.404803 0.390584 0.263597
H109  H     H_    0.744330 0.432696 0.399272 0.293063
H110  H     H_    0.693009 0.327332 0.333708 0.275828
H111  H     H_    0.773707 0.349824 0.424413 0.286820
H112  H     H_    0.948124 0.204430 0.013465 0.155696
H113  H     H_    0.869798 0.431729 0.386598 0.190701
H114  H     H_    0.998044 0.166692 0.953296 0.129135
H115  H     H_    0.060570 0.328830 0.098352 0.234104
H116  H     H_    0.112467 0.290664 0.040839 0.230474
H117  H     H_    0.992098 0.295364 0.934312 0.270340
H118  H     H_    0.033627 0.395058 0.014672 0.267337
H119  H     H_    0.939495 0.333406 0.991770 0.280658
H120  H     H_    0.985442 0.726002 0.931069 0.177117
H121  H     H_    0.065887 0.812419 0.002001 0.143565
H122  H     H_    0.987192 0.770051 0.834656 0.233650
H123  H     H_    0.080372 0.843432 0.906740 0.233427
H124  H     H_    0.327042 0.445464 0.334165 0.160228
H125  H     H_    0.148176 0.730597 0.927773 0.284306
H126  H     H_    0.111923 0.714332 0.833122 0.272908
H127  H     H_    0.055087 0.655308 0.854522 0.262925
H128  H     H_    0.132455 0.097373 0.906614 0.163014
H129  H     H_    0.028880 0.052088 0.874930 0.117108
H130  H     H_    0.167465 0.960430 0.854354 0.232737
H131  H     H_    0.065498 0.909197 0.824086 0.223750
H132  H     H_    0.008504 0.984118 0.743746 0.277183
H133  H     H_    0.072925 0.914604 0.718216 0.278975
H134  H     H_    0.114131 0.024066 0.769715 0.248833
O1    O     O_3   0.250010 0.250010 0.500010 -0.536780
O2    O     O_R   0.893710 0.832180 0.664370 -0.659442
O3    O     O_R   0.332200 0.393690 0.664400 -0.638414
O4    O     O_R   0.667800 0.606310 0.335600 -0.635976
O5    O     O_R   0.229300 0.167820 0.335610 -0.610598
O6    O     O_R   0.770700 0.832180 0.664390 -0.607328
O7    O     O_R   0.358130 0.123520 0.543120 -0.586291
O8    O     O_R   0.641870 0.876480 0.456880 -0.584582
O9    O     O_R   0.080390 0.314990 0.456920 -0.602644
O10   O     O_R   0.919610 0.685010 0.543080 -0.635955
O11   O     O_R   0.185040 0.123520 0.543150 -0.601368
O12   O     O_3   0.749990 0.749990 0.499990 -0.516466
O13   O     O_R   0.814960 0.876480 0.456850 -0.597357
O14   O     O_R   0.358080 0.419590 0.543080 -0.608594
O15   O     O_R   0.641920 0.580410 0.456920 -0.652154
O16   O     O_R   0.080420 0.141920 0.456950 -0.655172
O17   O     O_R   0.919580 0.858080 0.543050 -0.661898
O18   O     O_R   0.376490 0.315000 0.456880 -0.598096
O19   O     O_R   0.623510 0.685000 0.543120 -0.594212
O20   O     O_3   0.445615 0.506790 0.368114 -0.623251
O21   O     O_3   0.556214 0.488921 0.631565 -0.602372
O22   O     O_3   0.650261 0.593533 0.059022 -0.618053
O23   O     O_R   0.376520 0.141930 0.456900 -0.618056
O24   O     O_3   0.345715 0.407004 0.942008 -0.622360
O25   O     O_3   0.942976 0.853185 0.376033 -0.626484
O26   O     O_3   0.055365 0.152024 0.622600 -0.640364
O27   O     O_3   0.414161 0.989157 0.573859 -0.564770
O28   O     O_3   0.583439 0.005956 0.422638 -0.573568
O29   O     O_3   0.351463 0.545480 0.473466 -0.626231
O30   O     O_3   0.641580 0.435399 0.536448 -0.602874
O31   O     O_3   0.058509 0.169063 0.057664 -0.620446
O32   O     O_3   0.951223 0.836639 0.945578 -0.642401
O33   O     O_3   0.122683 0.033065 0.961217 -0.617424
O34   O     O_R   0.623480 0.858070 0.543100 -0.623657
O35   O     O_3   0.899833 0.972886 0.050747 -0.627084
O36   O     O_3   0.983328 0.541076 0.628749 -0.638476
O37   O     O_3   0.034669 0.459245 0.383854 -0.636351
O38   O     O_3   0.059308 0.639336 0.501965 -0.639638
O39   O     O_3   0.935927 0.350465 0.482986 -0.630286
O40   O     O_R   0.184990 0.419580 0.543110 -0.657282
O41   O     O_R   0.815010 0.580420 0.456890 -0.678966
O42   O     O_R   0.332220 0.270690 0.664420 -0.620229
O43   O     O_R   0.667780 0.729310 0.335580 -0.615048
O44   O     O_R   0.106290 0.167820 0.335630 -0.635658
Zn1   Zn    Zn3+2 0.307090 0.219220 0.438420 1.064575
Zn2   Zn    Zn3+2 0.692910 0.780780 0.561580 1.036524
Zn3   Zn    Zn3+2 0.280820 0.192930 0.561610 1.057133
Zn4   Zn    Zn3+2 0.719180 0.807070 0.438390 1.072847
Zn5   Zn    Zn3+2 0.131340 0.219220 0.438450 0.999386
Zn6   Zn    Zn3+2 0.868660 0.780780 0.561550 0.945084
Zn7   Zn    Zn3+2 0.280790 0.368660 0.561580 1.009130
Zn8   Zn    Zn3+2 0.719210 0.631340 0.438420 0.961323

loop_
_geom_bond_atom_site_label_1
_geom_bond_atom_site_label_2
_ccdc_geom_bond_type
C10   H133  S    
C7    H127  S    
C19   C20   S    
C34   C42   S    
C114  C115  S    
C32   H102  S    
C97   H53   S    
O41   Zn8   S    
C16   H12   S    
C84   C86   S    
O17   Zn6   S    
C59   C66   S    
C5    C6    S    
C86   C88   S    
C11   O35   S    
C59   O25   S    
C106  C107  S    
C61   C80   S    
C58   C60   S    
C82   C87   S    
C33   C36   S    
C60   C62   S    
C86   O21   S    
C110  C111  S    
C66   H69   S    
C52   C54   S    
C64   O34   A    
C50   C52   S    
C111  H86   S    
C56   Cl4   S    
C108  H81   S    
C47   C53   S    
C58   C61   S    
C85   C87   S    
C83   C88   S    
C21   C22   S    
C21   H27   S    
O1    Zn5   S    
C104  C105  S    
C76   O40   A    
C1    O42   A    
C25   O39   S    
C4    H119  S    
C71   C73   S    
C22   H29   S    
C105  H72   S    
C15   O36   S    
C32   C34   S    
C110  H84   S    
C5    O32   S    
C115  H95   S    
C98   H55   S    
O12   Zn8   S    
C29   C68   S    
O34   Zn2   S    
C103  O25   S    
O43   Zn4   S    
C119  H106  S    
C67   C74   S    
C113  H89   S    
C34   O36   S    
C60   C65   S    
C19   H21   S    
C56   C62   S    
C7    H125  S    
C3    H116  S    
O1    Zn1   S    
C116  H98   S    
C24   C90   S    
C106  H74   S    
C108  H78   S    
O11   Zn3   S    
C1    C48   S    
C6    C7    S    
C25   H34   S    
C117  H100  S    
C56   C59   S    
C11   H4    S    
C114  H93   S    
C109  O27   S    
C57   C85   S    
C6    H123  S    
C81   C88   S    
O42   Zn3   S    
C120  H107  S    
O2    Zn6   S    
C61   C65   S    
C115  H96   S    
O3    Zn7   S    
C80   O17   A    
C22   C23   S    
C18   H18   S    
O7    Zn3   S    
O13   Zn4   S    
C116  O29   S    
C97   C98   S    
C38   C76   S    
C45   Cl1   S    
C121  H109  S    
C33   C42   S    
C46   Cl10  S    
C99   H60   S    
C1    O3    A    
C5    H121  S    
C28   C79   S    
C82   O19   A    
C118  H103  S    
C63   O7    A    
C35   C49   S    
C80   O13   A    
C107  C108  S    
C2    C40   S    
C89   C91   S    
C9    C10   S    
C44   C52   S    
C94   H46   S    
C18   O37   S    
C104  H68   S    
C5    H120  S    
C111  H87   S    
O18   Zn1   S    
C39   O5    A    
C47   C50   S    
C40   O6    A    
C59   C61   S    
C85   O20   S    
C62   C66   S    
C42   O39   S    
C17   H16   S    
C109  H82   S    
C102  H65   S    
C91   C92   S    
C95   H49   S    
O12   Zn2   S    
C45   C52   S    
C92   H42   S    
C25   C26   S    
C49   C55   T    
C93   H43   S    
C76   O9    A    
C30   C112  T    
C51   C53   S    
C8    H128  S    
C69   C72   S    
C106  O26   S    
C35   O43   A    
C24   C79   S    
C68   C90   S    
C9    H130  S    
C43   C45   S    
C15   H11   S    
C14   H8    S    
C12   H6    S    
C96   H51   S    
C3    C4    S    
C91   H13   S    
C120  C121  S    
C44   C51   S    
C36   O37   S    
O8    Zn4   S    
C46   C87   S    
C121  H111  S    
C10   H134  S    
C69   O28   S    
C62   C78   S    
C84   O30   S    
O12   Zn4   S    
C43   C50   S    
C122  H114  S    
C67   C70   S    
C50   H47   S    
C91   H24   S    
O1    Zn3   S    
C117  C118  S    
C118  H101  S    
C22   H28   S    
C37   C41   S    
C95   H48   S    
C70   C75   S    
C79   C101  S    
C114  H92   S    
C8    H129  S    
C27   H40   S    
C13   C68   S    
O23   Zn1   S    
O14   Zn7   S    
C20   H23   S    
C34   C37   S    
C73   C75   S    
C21   H26   S    
C102  H63   S    
C100  H61   S    
C26   C27   S    
C4    H117  S    
C43   O22   S    
C105  H71   S    
O4    Zn8   S    
C18   C19   S    
C110  H85   S    
C24   C29   S    
C98   H56   S    
C43   C53   S    
C16   C17   S    
C89   H124  S    
C13   C28   S    
C33   H113  S    
C67   C73   S    
C99   O24   S    
O16   Zn5   S    
C23   H30   S    
C89   O20   S    
C36   C41   S    
C3    H115  S    
C13   H91   S    
C98   H57   S    
C41   O38   S    
C47   Cl3   S    
O44   Zn5   S    
C97   H54   S    
O1    Zn7   S    
C72   C74   S    
C106  H75   S    
C93   O21   S    
C119  H105  S    
C122  H112  S    
C63   C73   S    
C64   O8    A    
C37   C77   S    
C117  H99   S    
C33   C37   S    
C94   H45   S    
O5    Zn1   S    
C11   H3    S    
C71   Cl7   S    
C57   C84   S    
C29   C101  S    
C27   H38   S    
C107  H76   S    
C44   O24   S    
C120  H108  S    
C40   O2    A    
C39   C112  S    
C83   C85   S    
C20   H25   S    
C35   O4    A    
C18   H19   S    
C113  C114  S    
C78   O11   A    
C71   C74   S    
C119  C120  S    
C105  H73   S    
C107  H77   S    
C21   O38   S    
C25   H33   S    
C122  O31   S    
C36   C38   S    
C101  O32   S    
C109  C110  S    
C57   Cl2   S    
C99   H59   S    
C92   H35   S    
C77   O41   A    
C96   O22   S    
C69   C75   S    
O15   Zn8   S    
C94   C95   S    
C113  H90   S    
C46   C83   S    
C118  H104  S    
C65   H58   S    
C103  C104  S    
C7    H126  S    
C28   C90   S    
C103  H66   S    
C15   C16   S    
C93   C94   S    
C116  H97   S    
C81   O14   A    
C84   C87   S    
C24   H80   S    
C48   C54   T    
C26   H36   S    
C20   H22   S    
C17   H15   S    
C38   C42   S    
C45   C51   S    
C56   C65   S    
C15   H10   S    
C116  C117  S    
C6    H122  S    
C16   H14   S    
C69   C71   S    
C78   O16   A    
C83   O29   S    
C58   C66   S    
C26   H37   S    
C8    C9    S    
C32   C38   S    
O10   Zn6   S    
C79   O35   S    
C44   C47   S    
C14   H9    S    
C58   Cl5   S    
C77   O10   A    
C81   O18   A    
C96   H52   S    
C75   Cl9   S    
C23   H31   S    
C53   C55   S    
C121  H110  S    
C68   O33   S    
C115  H94   S    
C23   H32   S    
O9    Zn5   S    
C2    C31   T    
C104  H70   S    
O6    Zn2   S    
C99   C100  S    
C8    O33   S    
C32   C41   S    
C96   C97   S    
C67   O27   S    
C100  C102  S    
C19   H20   S    
C103  H67   S    
C90   O31   S    
C12   C14   S    
C74   Cl8   S    
C39   O44   A    
C111  H88   S    
C13   C101  S    
C27   H39   S    
C108  H79   S    
O12   Zn6   S    
C70   Cl6   S    
C113  O28   S    
C89   H2    S    
C60   O26   S    
C119  O30   S    
C17   H17   S    
C109  H83   S    
C102  H64   S    
C11   C12   S    
C3    C122  S    
C95   H50   S    
O19   Zn2   S    
C100  H62   S    
C92   H41   S    
C93   H44   S    
C57   C88   S    
C28   C30   S    
C4    H118  S    
C29   C31   S    
C51   H1    S    
C9    H131  S    
C10   H132  S    
C64   C72   S    
C14   H7    S    
C63   O23   A    
O40   Zn7   S    
C12   H5    S    
C70   C72   S    
C82   O15   A    
C46   C86   S    
