data_mof_unit_22215.cif
_audit_creation_date              2012-12-11T14:45:54-0500
_audit_creation_method            fapswitch 2.2
_symmetry_space_group_name_H-M    P1
_symmetry_Int_Tables_number       1
_space_group_crystal_system       triclinic
_cell_length_a                    10.9731
_cell_length_b                    10.890337
_cell_length_c                    18.817185
_cell_angle_alpha                 89.948282
_cell_angle_beta                  89.911963
_cell_angle_gamma                 120.134612
_cell_volume                      1944.75063682

loop_
_atom_site_label
_atom_site_type_symbol
_atom_type_description
_atom_site_fract_x
_atom_site_fract_y
_atom_site_fract_z
_atom_type_partial_charge
C1    C     C_R   0.873266 0.633123 0.607247 0.556849
C2    C     C_R   0.398892 0.589661 0.779899 -0.108574
C3    C     C_R   0.368147 0.570153 0.708731 0.104032
C4    C     C_R   0.345644 0.671406 0.671752 0.043799
C5    C     C_R   0.856925 0.175841 0.824711 -0.031989
C6    C     C_R   0.065498 0.144762 0.814844 -0.059159
C7    C     C_R   0.147606 0.105930 0.774677 -0.113013
C8    C     C_R   0.122465 0.079324 0.702330 -0.109311
C9    C     C_R   0.020224 0.098829 0.669082 -0.060546
C10   C     C_R   0.937106 0.139897 0.708513 0.014286
C11   C     C_R   0.953137 0.153591 0.783516 0.014877
C12   C     C_R   0.273999 0.632942 0.603112 0.557059
C13   C     C_R   0.731736 0.169513 0.717484 0.019507
C14   C     C_R   0.761609 0.206515 0.789231 0.017131
C15   C     C_R   0.601532 0.146386 0.690281 -0.078886
C16   C     C_R   0.516478 0.182164 0.729602 -0.143414
C17   C     C_R   0.558278 0.240167 0.796842 -0.118523
C18   C     C_R   0.682745 0.257445 0.825612 -0.055313
C19   C     C_R   0.833604 0.160115 0.674897 -0.036881
C20   C     C_R   0.718805 0.563137 0.712766 -0.138284
C21   C     C_R   0.702906 0.567534 0.785595 -0.166303
C22   C     C_R   0.820306 0.642817 0.829337 0.036091
C23   C     C_R   0.859073 0.223129 0.602466 0.534239
C24   C     C_R   0.956434 0.702315 0.800034 0.155528
C25   C     C_R   0.971634 0.703338 0.726869 -0.093950
C26   C     C_R   0.852495 0.638805 0.682875 0.003293
C27   C     C_R   0.383390 0.596064 0.294321 -0.131062
C28   C     C_R   0.396679 0.601852 0.221800 -0.128031
C29   C     C_R   0.375973 0.699299 0.182215 0.030734
C30   C     C_R   0.351416 0.798219 0.217219 -0.149273
C31   C     C_R   0.335881 0.790835 0.290881 -0.145599
C32   C     C_R   0.342846 0.683310 0.328801 0.033615
C33   C     C_R   0.714638 0.119170 0.292575 -0.135860
C34   C     C_R   0.905158 0.612171 0.389949 0.570476
C35   C     C_R   0.705700 0.105192 0.220077 -0.127329
C36   C     C_R   0.824548 0.132927 0.179534 0.035843
C37   C     C_R   0.951916 0.169685 0.213090 -0.135996
C38   C     C_R   0.962304 0.188608 0.286393 -0.128276
C39   C     C_R   0.844274 0.167866 0.325885 0.032654
C40   C     C_R   0.984739 0.724157 0.273317 -0.146286
C41   C     C_R   0.961831 0.736352 0.202518 -0.149894
C42   C     C_R   0.830311 0.644503 0.171086 0.056597
C43   C     C_R   0.728840 0.525645 0.209561 0.082372
C44   C     C_R   0.755230 0.511948 0.281311 -0.108607
C45   C     C_R   0.275946 0.637409 0.397863 0.538907
C46   C     C_R   0.880097 0.616125 0.314035 0.008431
C47   C     C_R   0.811258 0.108673 0.896205 0.521569
C48   C     C_R   0.458030 0.724334 0.889411 0.575208
C49   C     C_R   0.798983 0.687621 0.898902 0.562085
C50   C     C_R   0.803113 0.099953 0.104479 0.546818
C51   C     C_R   0.404404 0.707602 0.106493 0.564710
C52   C     C_R   0.799493 0.691476 0.103624 0.564646
C53   C     C_R   0.862026 0.227756 0.396354 0.537310
C54   C     C_R   0.372663 0.796981 0.705875 -0.166861
C55   C     C_R   0.416972 0.820176 0.776472 -0.107922
C56   C     C_R   0.423978 0.713045 0.814284 0.020615
Cr1   Cr    Cr6+3 0.791660 0.390250 0.499930 1.007798
Cr2   Cr    Cr6+3 0.098520 0.708290 0.500540 0.997927
Cr3   Cr    Cr6+3 0.109770 0.401430 0.499480 1.020803
Cr4   Cr    Cr6+3 0.874790 0.925890 0.000070 1.036556
Cr5   Cr    Cr6+3 0.574120 0.948670 0.999300 1.034034
Cr6   Cr    Cr6+3 0.551420 0.625320 0.000920 1.020148
H1    H     H_    0.354441 0.874029 0.678848 0.117381
H2    H     H_    0.419320 0.166645 0.707289 0.097962
H3    H     H_    0.562549 0.097032 0.639115 0.131478
H4    H     H_    0.493160 0.269662 0.827237 0.100022
H5    H     H_    0.627734 0.502976 0.679724 0.121367
H6    H     H_    0.598817 0.515527 0.807829 0.116146
H7    H     H_    0.076804 0.752125 0.704519 0.152195
H8    H     H_    0.394217 0.515256 0.322543 0.134314
H9    H     H_    0.423226 0.528746 0.196934 0.171906
H10   H     H_    0.342048 0.878620 0.187818 0.112681
H11   H     H_    0.437605 0.917292 0.802503 0.177638
H12   H     H_    0.311118 0.863565 0.317574 0.112974
H13   H     H_    0.621786 0.100717 0.321871 0.128660
H14   H     H_    0.604143 0.071160 0.195997 0.136527
H15   H     H_    0.043031 0.186590 0.182717 0.123450
H16   H     H_    0.063880 0.226614 0.311370 0.133760
H17   H     H_    0.082619 0.803291 0.296910 0.129015
H18   H     H_    0.045094 0.825662 0.174025 0.142306
H19   H     H_    0.676508 0.423001 0.311902 0.129627
H20   H     H_    0.398165 0.503914 0.809120 0.122720
H21   H     H_    0.230377 0.095536 0.800007 0.138228
H22   H     H_    0.182992 0.044653 0.671555 0.107078
H23   H     H_    0.092952 0.170339 0.870127 0.140473
H24   H     H_    0.002740 0.075929 0.612856 0.124793
H25   H     H_    0.713141 0.303476 0.878146 0.136588
O1    O     O_R   0.766500 0.250040 0.579790 -0.523712
O2    O     O_R   0.218690 0.701900 0.425960 -0.525588
O3    O     O_R   0.249490 0.516440 0.419420 -0.527273
O4    O     O_R   0.982880 0.281910 0.424890 -0.509415
O5    O     O_3   0.999980 0.499990 0.499980 -0.263365
O6    O     O_R   0.895110 0.806860 0.920430 -0.460409
O7    O     O_R   0.872260 0.046970 0.925000 -0.505636
O8    O     O_R   0.691430 0.085060 0.918550 -0.528555
O9    O     O_R   0.451490 0.822460 0.925250 -0.461542
O10   O     O_R   0.413330 0.603360 0.920440 -0.518146
O11   O     O_R   0.676110 0.626250 0.926750 -0.543693
O12   O     O_R   0.798570 0.516780 0.574780 -0.490658
O13   O     O_R   0.895350 0.809870 0.080950 -0.525460
O14   O     O_R   0.872490 0.049760 0.073800 -0.500553
O15   O     O_R   0.691680 0.088070 0.079070 -0.533286
O16   O     O_R   0.451720 0.825250 0.074050 -0.496618
O17   O     O_R   0.413580 0.606370 0.080960 -0.512606
O18   O     O_R   0.676340 0.629040 0.075550 -0.474363
O19   O     O_3   0.666780 0.833290 0.000090 -0.278576
O20   O     O_R   0.984000 0.732950 0.581090 -0.528117
O21   O     O_R   0.218600 0.700890 0.574760 -0.521104
O22   O     O_R   0.249390 0.515350 0.579940 -0.478132
O23   O     O_R   0.982790 0.280900 0.573700 -0.486719
O24   O     O_R   0.766600 0.251130 0.419260 -0.538025
O25   O     O_R   0.798660 0.517790 0.425980 -0.505446
O26   O     O_R   0.984100 0.734040 0.420570 -0.514485
Br1   Br    Br    0.123956 0.782114 0.857091 -0.538515
N1    N     N_3   0.599527 0.422361 0.176655 -0.624462
H26   H     H_    0.625087 0.369374 0.138373 0.236966
H27   H     H_    0.533985 0.345658 0.213638 0.205710
N2    N     N_3   0.349796 0.442080 0.676057 -0.580809
H28   H     H_    0.425993 0.471878 0.636233 0.227174
H29   H     H_    0.367821 0.379553 0.711925 0.204719

loop_
_geom_bond_atom_site_label_1
_geom_bond_atom_site_label_2
_ccdc_geom_bond_type
C7    H21   S    
C55   C56   A    
C24   Br1   S    
Cr1   O5    S    
C34   O25   A    
C41   C42   A    
C14   C18   A    
C20   H5    S    
C35   C36   A    
C1    O12   A    
C41   H18   S    
Cr5   O9    S    
C36   C50   S    
C7    C8    A    
Cr6   O18   S    
C39   C53   S    
C34   O26   A    
C40   C46   A    
C48   O10   A    
C5    C47   S    
C17   H4    S    
C29   C30   A    
C6    H23   S    
C28   C29   A    
Cr5   O16   S    
C5    C11   A    
C30   C31   A    
C33   C35   A    
Cr1   O25   S    
C54   H1    S    
C51   O16   A    
C15   C16   A    
Cr1   O12   S    
Cr3   O23   S    
Cr2   O20   S    
C32   C45   S    
N2    H28   S    
C43   N1    S    
C49   O11   A    
Cr6   O11   S    
C33   H13   S    
C8    C9    A    
N1    H27   S    
C53   O4    A    
Cr2   O26   S    
C15   H3    S    
C34   C46   S    
C4    C12   S    
C45   O2    A    
C9    C10   A    
Cr4   O6    S    
C53   O24   A    
C21   C22   A    
C12   O22   A    
C44   C46   A    
Cr6   O17   S    
C38   C39   A    
C35   H14   S    
C13   C19   A    
C24   C25   A    
C44   H19   S    
C6    C11   A    
C12   O21   A    
C16   C17   A    
C31   H12   S    
Cr3   O4    S    
C38   H16   S    
C51   O17   A    
C37   H15   S    
C52   O13   A    
Cr3   O3    S    
C19   C23   S    
C43   C44   A    
C37   C38   A    
C45   O3    A    
C3    N2    S    
C9    H24   S    
Cr6   O10   S    
C31   C32   A    
C10   C19   A    
C17   C18   A    
C40   H17   S    
C33   C39   A    
Cr5   O19   S    
C5    C14   A    
C27   H8    S    
C1    O20   A    
C22   C49   S    
C40   C41   A    
C52   O18   A    
C50   O15   A    
C23   O1    A    
C13   C15   A    
C21   H6    S    
C1    C26   S    
C22   C24   A    
C2    H20   S    
C28   H9    S    
C25   H7    S    
C42   C43   A    
C3    C4    A    
Cr4   O19   S    
C29   C51   S    
C48   C56   S    
C23   O23   A    
C54   C55   A    
C36   C37   A    
C48   O9    A    
C4    C54   A    
C27   C32   A    
C8    H22   S    
Cr4   O13   S    
C30   H10   S    
Cr5   O8    S    
C6    C7    A    
Cr6   O19   S    
C18   H25   S    
Cr1   O1    S    
C2    C3    A    
C25   C26   A    
C2    C56   A    
N1    H26   S    
Cr1   O24   S    
C20   C26   A    
Cr3   O22   S    
C47   O7    A    
Cr5   O15   S    
Cr2   O21   S    
Cr3   O5    S    
Cr2   O2    S    
N2    H29   S    
C10   C11   A    
C55   H11   S    
C20   C21   A    
C50   O14   A    
C27   C28   A    
C47   O8    A    
C16   H2    S    
C49   O6    A    
C13   C14   A    
Cr2   O5    S    
Cr4   O14   S    
C42   C52   S    
Cr4   O7    S    
