data_mof_unit_11648.cif
_audit_creation_date              2012-12-11T14:52:36-0500
_audit_creation_method            fapswitch 2.2
_symmetry_space_group_name_H-M    P1
_symmetry_Int_Tables_number       1
_space_group_crystal_system       triclinic
_cell_length_a                    18.92217
_cell_length_b                    10.884417
_cell_length_c                    18.790482
_cell_angle_alpha                 89.97408
_cell_angle_beta                  90.86663
_cell_angle_gamma                 89.966988
_cell_volume                      3869.58359125

loop_
_atom_site_label
_atom_site_type_symbol
_atom_type_description
_atom_site_fract_x
_atom_site_fract_y
_atom_site_fract_z
_atom_type_partial_charge
C1    C     C_R   0.272034 0.042474 0.853492 0.542974
C2    C     C_R   0.700153 0.526905 0.037450 -0.144247
C3    C     C_3   0.009242 0.328783 0.068945 0.051337
C4    C     C_3   0.590553 0.577193 0.636213 -0.268091
C5    C     C_3   0.517878 0.519331 0.419468 -0.262984
C6    C     C_3   0.090551 0.077196 0.636216 -0.268091
C7    C     C_3   0.017861 0.019340 0.419467 -0.262986
C8    C     C_R   0.807850 0.043372 0.964001 -0.151019
C9    C     C_R   0.200153 0.026905 0.037450 -0.144247
C10   C     C_R   0.302010 0.531047 0.037539 -0.152353
C11   C     C_R   0.704449 0.510397 0.964144 -0.146919
C12   C     C_R   0.802010 0.031047 0.037539 -0.152353
C13   C     C_R   0.204449 0.010397 0.964144 -0.146919
C14   C     C_R   0.239744 0.568247 0.070841 0.029675
C15   C     C_R   0.752381 0.580752 0.924567 0.023782
C16   C     C_R   0.739744 0.068247 0.070841 0.029675
C17   C     C_R   0.726414 0.039693 0.145062 0.546098
C18   C     C_R   0.252381 0.080752 0.924567 0.023782
C19   C     C_R   0.182988 0.613862 0.029790 -0.144759
C20   C     C_R   0.792847 0.671580 0.958074 -0.139286
C21   C     C_R   0.682988 0.113862 0.029790 -0.144759
C22   C     C_R   0.292847 0.171580 0.958074 -0.139286
C23   C     C_R   0.187857 0.621936 0.957188 -0.146117
C24   C     C_R   0.789934 0.685637 0.030706 -0.137867
C25   C     C_R   0.687857 0.121936 0.957188 -0.146117
C26   C     C_R   0.289934 0.185637 0.030706 -0.137868
C27   C     C_R   0.250885 0.590952 0.923732 0.028515
C28   C     C_R   0.772034 0.542474 0.853492 0.542974
C29   C     C_R   0.744644 0.612088 0.071281 0.027610
C30   C     C_R   0.750885 0.090952 0.923732 0.028515
C31   C     C_R   0.244644 0.112088 0.071281 0.027610
C32   C     C_R   0.534024 0.715462 0.549460 0.145808
C33   C     C_R   0.551479 0.712506 0.477628 0.134146
C34   C     C_R   0.034023 0.215462 0.549460 0.145810
C35   C     C_R   0.051476 0.212505 0.477627 0.134150
C36   C     C_R   0.547814 0.821989 0.436901 0.020075
C37   C     C_R   0.510577 0.826974 0.580637 0.019332
C38   C     C_R   0.047812 0.321988 0.436901 0.020080
C39   C     C_R   0.226414 0.539693 0.145062 0.546098
C40   C     C_R   0.010577 0.326974 0.580638 0.019332
C41   C     C_R   0.530347 0.933389 0.469879 -0.181590
C42   C     C_R   0.511929 0.935909 0.541176 -0.187860
C43   C     C_R   0.030346 0.433388 0.469879 -0.181593
C44   C     C_R   0.011929 0.435908 0.541176 -0.187862
C45   C     C_R   0.470988 0.821889 0.855391 0.539871
C46   C     C_R   0.529289 0.821809 0.144403 0.553538
C47   C     C_R   0.970988 0.321889 0.855391 0.539871
C48   C     C_R   0.029289 0.321809 0.144403 0.553537
C49   C     C_R   0.185543 0.612907 0.540086 -0.145852
C50   C     C_3   0.537278 0.737089 0.971008 -0.120678
C51   C     C_R   0.750209 0.709134 0.476434 -0.115567
C52   C     C_R   0.685544 0.112919 0.540084 -0.145849
C53   C     C_R   0.250235 0.209132 0.476433 -0.115577
C54   C     C_R   0.182592 0.614674 0.467625 -0.141915
C55   C     C_R   0.756672 0.689011 0.548428 -0.152043
C56   C     C_R   0.682595 0.114686 0.467623 -0.141919
C57   C     C_R   0.256696 0.189010 0.548427 -0.152033
C58   C     C_R   0.240677 0.574707 0.428322 0.026659
C59   C     C_R   0.756603 0.568802 0.572790 0.028455
C60   C     C_R   0.740678 0.074707 0.428322 0.026651
C61   C     C_3   0.478495 0.720777 0.026321 -0.114351
C62   C     C_R   0.256601 0.068805 0.572791 0.028453
C63   C     C_R   0.303101 0.537415 0.462703 -0.153379
C64   C     C_R   0.749724 0.468373 0.526076 -0.137387
C65   C     C_R   0.803099 0.037403 0.462705 -0.153376
C66   C     C_R   0.249698 0.968381 0.526079 -0.137407
C67   C     C_R   0.307668 0.543316 0.536140 -0.144128
C68   C     C_R   0.744540 0.488625 0.453699 -0.160936
C69   C     C_R   0.807665 0.043306 0.536142 -0.144127
C70   C     C_R   0.244517 0.988631 0.453701 -0.160935
C71   C     C_R   0.249250 0.584919 0.574583 0.021386
C72   C     C_3   0.037278 0.237089 0.971008 -0.120678
C73   C     C_R   0.745878 0.609041 0.429524 0.053216
C74   C     C_R   0.749249 0.084920 0.574583 0.021382
C75   C     C_R   0.245880 0.109042 0.429525 0.053217
C76   C     C_R   0.260841 0.636053 0.851743 0.542940
C77   C     C_R   0.737972 0.641515 0.146349 0.546913
C78   C     C_R   0.760841 0.136053 0.851743 0.542940
C79   C     C_R   0.237972 0.141515 0.146349 0.546913
C80   C     C_R   0.272100 0.043584 0.645419 0.534352
C81   C     C_R   0.727634 0.044486 0.354997 0.538072
C82   C     C_R   0.772100 0.543585 0.645419 0.534346
C83   C     C_3   0.978495 0.220777 0.026321 -0.114351
C84   C     C_R   0.227634 0.544486 0.354997 0.538075
C85   C     C_R   0.472212 0.822942 0.647975 0.560967
C86   C     C_R   0.562492 0.818567 0.360530 0.586190
C87   C     C_R   0.972213 0.322942 0.647975 0.560965
C88   C     C_R   0.062492 0.318567 0.360530 0.586191
C89   C     C_R   0.259591 0.634166 0.644658 0.542799
C90   C     C_R   0.740071 0.636841 0.356067 0.543880
C91   C     C_R   0.759591 0.134166 0.644658 0.542796
C92   C     C_R   0.240071 0.136842 0.356068 0.543881
C93   C     C_3   0.462323 0.921401 0.029100 -0.126498
C94   C     C_R   0.307850 0.543372 0.964001 -0.151019
C95   C     C_3   0.520972 0.937770 0.973134 -0.122090
C96   C     C_3   0.962323 0.421401 0.029100 -0.126498
C97   C     C_3   0.020972 0.437770 0.973134 -0.122090
C98   C     C_3   0.431168 0.813203 0.985483 -0.104244
C99   C     C_3   0.568446 0.845316 0.014309 -0.108839
C100  C     C_3   0.931169 0.313203 0.985483 -0.104244
C101  C     C_3   0.068446 0.345316 0.014309 -0.108839
C102  C     C_3   0.490446 0.829279 0.930890 0.056179
C103  C     C_3   0.509242 0.828783 0.068945 0.051337
C104  C     C_3   0.990446 0.329279 0.930890 0.056179
Cr1   Cr    Cr6+3 0.229630 0.835900 0.747350 0.991009
Cr2   Cr    Cr6+3 0.614200 0.677120 0.250660 1.011568
Cr3   Cr    Cr6+3 0.885800 0.177120 0.749340 1.013021
Cr4   Cr    Cr6+3 0.114200 0.177120 0.250660 1.011569
Cr5   Cr    Cr6+3 0.770370 0.835900 0.252650 1.003718
Cr6   Cr    Cr6+3 0.729630 0.335900 0.747350 0.991010
Cr7   Cr    Cr6+3 0.270370 0.335900 0.252650 1.003719
Cr8   Cr    Cr6+3 0.387410 0.989850 0.750850 1.014924
Cr9   Cr    Cr6+3 0.612590 0.989850 0.249150 1.008081
Cr10  Cr    Cr6+3 0.887410 0.489850 0.750850 1.014924
Cr11  Cr    Cr6+3 0.112590 0.489850 0.249150 1.008082
Cr12  Cr    Cr6+3 0.385800 0.677120 0.749340 1.013022
H1    H     H_    0.374295 0.800172 0.972033 0.127748
H2    H     H_    0.762262 0.765886 0.584719 0.114390
H3    H     H_    0.633196 0.142892 0.442799 0.134019
H4    H     H_    0.262305 0.265882 0.584716 0.114400
H5    H     H_    0.347294 0.502105 0.433065 0.119122
H6    H     H_    0.750997 0.374664 0.545544 0.147491
H7    H     H_    0.847289 0.002083 0.433067 0.119130
H8    H     H_    0.250951 0.874673 0.545548 0.147501
H9    H     H_    0.357532 0.521349 0.562251 0.139335
H10   H     H_    0.740155 0.411989 0.417108 0.118563
H11   H     H_    0.857526 0.021330 0.562253 0.139335
H12   H     H_    0.625348 0.857971 0.027710 0.127639
H13   H     H_    0.240112 0.911997 0.417113 0.118568
H14   H     H_    0.431148 0.995784 0.054108 0.120836
H15   H     H_    0.538358 0.025992 0.949649 0.107800
H16   H     H_    0.931148 0.495784 0.054108 0.120836
H17   H     H_    0.038358 0.525992 0.949649 0.107800
H18   H     H_    0.568429 0.662618 0.946079 0.120822
H19   H     H_    0.460340 0.632350 0.049098 0.116023
H20   H     H_    0.068429 0.162618 0.946079 0.120822
H21   H     H_    0.960340 0.132350 0.049098 0.116022
H22   H     H_    0.357477 0.520451 0.939271 0.129185
H23   H     H_    0.874295 0.300172 0.972033 0.127748
H24   H     H_    0.663292 0.472293 0.067615 0.125591
H25   H     H_    0.857477 0.020451 0.939271 0.129185
H26   H     H_    0.163292 0.972293 0.067615 0.125591
H27   H     H_    0.345728 0.492898 0.068153 0.114901
H28   H     H_    0.672906 0.438948 0.939194 0.133492
H29   H     H_    0.845728 0.992898 0.068153 0.114901
H30   H     H_    0.172905 0.938948 0.939194 0.133492
H31   H     H_    0.133258 0.640197 0.053216 0.138403
H32   H     H_    0.829691 0.727653 0.928717 0.131360
H33   H     H_    0.633258 0.140198 0.053216 0.138403
H34   H     H_    0.125348 0.357971 0.027710 0.127639
H35   H     H_    0.329691 0.227653 0.928717 0.131360
H36   H     H_    0.143039 0.659052 0.927747 0.126135
H37   H     H_    0.822979 0.755847 0.054817 0.137605
H38   H     H_    0.643039 0.159052 0.927747 0.126135
H39   H     H_    0.322979 0.255847 0.054817 0.137605
H40   H     H_    0.527740 0.018109 0.439789 0.140140
H41   H     H_    0.494290 0.021771 0.564017 0.140750
H42   H     H_    0.027739 0.518109 0.439789 0.140137
H43   H     H_    0.994290 0.521771 0.564017 0.140750
H44   H     H_    0.509640 0.527245 0.563892 0.246040
H45   H     H_    0.139548 0.644011 0.568724 0.133584
H46   H     H_    0.619604 0.496216 0.616229 0.149927
H47   H     H_    0.569741 0.554750 0.689548 0.159784
H48   H     H_    0.626893 0.657034 0.641445 0.138967
H49   H     H_    0.609833 0.551329 0.477799 0.259741
H50   H     H_    0.510850 0.438257 0.454544 0.090563
H51   H     H_    0.532999 0.484867 0.366254 0.169586
H52   H     H_    0.466702 0.568909 0.414130 0.155232
H53   H     H_    0.009642 0.027243 0.563892 0.246041
H54   H     H_    0.119600 0.996213 0.616238 0.149925
H55   H     H_    0.069739 0.054764 0.689552 0.159787
H56   H     H_    0.748836 0.802597 0.456896 0.136870
H57   H     H_    0.126893 0.157035 0.641444 0.138969
H58   H     H_    0.109819 0.051317 0.477796 0.259740
H59   H     H_    0.010833 0.938259 0.454540 0.090565
H60   H     H_    0.032976 0.984883 0.366248 0.169592
H61   H     H_    0.966686 0.068928 0.414137 0.155228
H62   H     H_    0.639551 0.144031 0.568721 0.133589
H63   H     H_    0.248883 0.302593 0.456894 0.136885
H64   H     H_    0.133190 0.642872 0.442802 0.134015
N1    N     N_2   0.532346 0.602613 0.588047 -0.502164
N2    N     N_2   0.573552 0.598760 0.447066 -0.483170
N3    N     N_2   0.032346 0.102613 0.588048 -0.502165
N4    N     N_2   0.073540 0.098756 0.447064 -0.483171
O1    O     O_R   0.214270 0.709000 0.827470 -0.527533
O2    O     O_R   0.543270 0.717630 0.330160 -0.494403
O3    O     O_R   0.956730 0.217630 0.669840 -0.484316
O4    O     O_R   0.043270 0.217630 0.330160 -0.494403
O5    O     O_R   0.320620 0.625640 0.672920 -0.504973
O6    O     O_R   0.679380 0.625640 0.327080 -0.502944
O7    O     O_R   0.820620 0.125640 0.672920 -0.504973
O8    O     O_R   0.179380 0.125640 0.327080 -0.502943
O9    O     O_3   0.334280 0.834290 0.749180 -0.243610
O10   O     O_3   0.665720 0.834290 0.250820 -0.272413
O11   O     O_3   0.834280 0.334290 0.749180 -0.243611
O12   O     O_R   0.785730 0.709000 0.172530 -0.526470
O13   O     O_3   0.165720 0.334290 0.250820 -0.272412
O14   O     O_R   0.236160 0.958490 0.823130 -0.509740
O15   O     O_R   0.763840 0.958490 0.176870 -0.505302
O16   O     O_R   0.736160 0.458490 0.823130 -0.509740
O17   O     O_R   0.263840 0.458490 0.176870 -0.505301
O18   O     O_R   0.332080 0.075470 0.831280 -0.522100
O19   O     O_R   0.667920 0.075470 0.168720 -0.525578
O20   O     O_R   0.832080 0.575470 0.831280 -0.522100
O21   O     O_R   0.167920 0.575470 0.168720 -0.525578
O22   O     O_R   0.446300 0.918110 0.826620 -0.502600
O23   O     O_R   0.714270 0.209000 0.827470 -0.527533
O24   O     O_R   0.553700 0.918110 0.173380 -0.499764
O25   O     O_R   0.946300 0.418110 0.826620 -0.502600
O26   O     O_R   0.053700 0.418110 0.173380 -0.499765
O27   O     O_R   0.457110 0.716200 0.831760 -0.528417
O28   O     O_R   0.542890 0.716200 0.168240 -0.520500
O29   O     O_R   0.957110 0.216200 0.831760 -0.528418
O30   O     O_R   0.042890 0.216200 0.168240 -0.520500
O31   O     O_R   0.320980 0.624310 0.823030 -0.508087
O32   O     O_R   0.679020 0.624310 0.176970 -0.504770
O33   O     O_R   0.820980 0.124310 0.823030 -0.508087
O34   O     O_R   0.285730 0.209000 0.172530 -0.526469
O35   O     O_R   0.179020 0.124310 0.176970 -0.504770
O36   O     O_R   0.213890 0.710430 0.665540 -0.531946
O37   O     O_R   0.786110 0.710430 0.334460 -0.520738
O38   O     O_R   0.713890 0.210430 0.665540 -0.531943
O39   O     O_R   0.286110 0.210430 0.334460 -0.520745
O40   O     O_R   0.235810 0.959820 0.673020 -0.525294
O41   O     O_R   0.764190 0.959820 0.326980 -0.509982
O42   O     O_R   0.735810 0.459820 0.673020 -0.525290
O43   O     O_R   0.264190 0.459820 0.326980 -0.509983
O44   O     O_R   0.331700 0.076900 0.669350 -0.511170
O45   O     O_R   0.445950 0.919440 0.676520 -0.511198
O46   O     O_R   0.668300 0.076900 0.330650 -0.536204
O47   O     O_R   0.831700 0.576900 0.669350 -0.511166
O48   O     O_R   0.168300 0.576900 0.330650 -0.536204
O49   O     O_R   0.554050 0.919440 0.323480 -0.512360
O50   O     O_R   0.945950 0.419440 0.676520 -0.511199
O51   O     O_R   0.054050 0.419440 0.323480 -0.512362
O52   O     O_R   0.456730 0.717630 0.669840 -0.484315

loop_
_geom_bond_atom_site_label_1
_geom_bond_atom_site_label_2
_ccdc_geom_bond_type
C74   C91   S    
C99   C103  S    
C82   O47   A    
C83   H21   S    
C16   C21   A    
Cr8   O44   S    
C55   C59   A    
C85   O52   A    
C41   C42   A    
C101  H34   S    
C61   C98   S    
C59   C82   S    
Cr8   O18   S    
C23   H36   S    
C43   H42   S    
Cr7   O17   S    
Cr11  O51   S    
C26   H39   S    
C57   C62   A    
Cr10  O50   S    
Cr6   O11   S    
Cr9   O49   S    
C82   O42   A    
C61   H19   S    
C1    C18   S    
C28   O16   A    
C87   O50   A    
C81   O41   A    
C13   C18   A    
C98   H1    S    
C2    C29   A    
C34   C40   A    
H49   N2    S    
C64   C68   A    
C40   C87   S    
C37   C85   S    
C51   H56   S    
C61   C103  S    
C77   O12   A    
C73   C90   S    
Cr12  O27   S    
C52   C74   A    
C67   H9    S    
C78   O33   A    
C54   C58   A    
C95   C99   S    
C72   H20   S    
C67   C71   A    
C7    N4    S    
C72   C101  S    
C10   C94   A    
C49   C54   A    
Cr3   O3    S    
C3    C48   S    
Cr4   O13   S    
C33   C36   A    
C7    H61   S    
Cr5   O12   S    
C34   C35   A    
Cr9   O10   S    
C5    H52   S    
Cr1   O1    S    
C37   C42   A    
C17   O19   A    
C9    C13   A    
C24   C29   A    
H53   N3    S    
C22   C26   A    
C51   C73   A    
C14   C39   S    
C78   O23   A    
Cr4   O35   S    
C11   C15   A    
C100  C104  S    
C12   C16   A    
C16   C17   S    
C7    H59   S    
C4    H48   S    
C3    C96   S    
C50   C99   S    
Cr7   O34   S    
C23   C27   A    
C4    N1    S    
C11   H28   S    
C49   H45   S    
C95   C102  S    
C34   N3    S    
C96   H16   S    
C41   H40   S    
C3    C101  S    
C1    O14   A    
Cr9   O19   S    
C26   C31   A    
C93   C95   S    
Cr3   O33   S    
C7    H60   S    
C95   H15   S    
C93   C103  S    
C36   C41   A    
C53   C75   A    
C13   H30   S    
Cr12  O31   S    
C1    O18   A    
C53   H63   S    
Cr3   O11   S    
C63   H5    S    
Cr7   O39   S    
C48   O30   A    
C6    H55   S    
C15   C20   A    
C63   C67   A    
C86   O49   A    
Cr10  O11   S    
C62   C66   A    
Cr6   O16   S    
C28   O20   A    
Cr9   O24   S    
C20   C24   A    
C32   N1    S    
Cr9   O46   S    
C35   C38   A    
C85   O45   A    
Cr2   O2    S    
C90   O37   A    
Cr2   O10   S    
C50   H18   S    
H58   N4    S    
Cr10  O47   S    
Cr5   O41   S    
C79   O34   A    
C87   O3    A    
C72   C104  S    
C36   C86   S    
C35   N4    S    
C5    H50   S    
C91   O7    A    
C70   H13   S    
C19   H31   S    
Cr8   O45   S    
C56   C60   A    
C38   C88   S    
C6    H54   S    
C12   H29   S    
C19   C23   A    
C43   C44   A    
C45   O22   A    
C46   O24   A    
C100  H23   S    
C58   C84   S    
C80   O40   A    
C50   C102  S    
Cr11  O13   S    
C60   C81   S    
C97   C101  S    
C79   O35   A    
Cr3   O29   S    
C88   O4    A    
C8    C12   A    
Cr1   O36   S    
Cr2   O28   S    
C96   C97   S    
Cr12  O52   S    
C20   H32   S    
C59   C64   A    
C4    H47   S    
C69   C74   A    
C45   O27   A    
C32   C37   A    
C80   O44   A    
C91   O38   A    
Cr11  O48   S    
Cr6   O23   S    
C71   C89   S    
C46   O28   A    
C57   H4    S    
Cr5   O10   S    
Cr12  O9    S    
C75   C92   S    
Cr1   O14   S    
C48   O26   A    
C60   C65   A    
C86   O2    A    
C21   H33   S    
C81   O46   A    
C47   O25   A    
C3    C83   S    
C94   H22   S    
C56   H3    S    
C4    H46   S    
Cr5   O15   S    
C42   H41   S    
C66   H8    S    
Cr2   O6    S    
C27   C76   S    
Cr6   O38   S    
C68   H10   S    
H44   N1    S    
C70   C75   A    
Cr5   O37   S    
C24   H37   S    
Cr10  O25   S    
Cr12  O5    S    
C90   O6    A    
C62   C80   S    
C25   C30   A    
C50   C61   S    
C88   O51   A    
C21   C25   A    
C22   H35   S    
Cr10  O20   S    
C53   C57   A    
C47   C104  S    
Cr1   O9    S    
Cr11  O26   S    
C25   H38   S    
C18   C22   A    
C14   C19   A    
Cr4   O4    S    
C92   O39   A    
Cr4   O8    S    
C58   C63   A    
Cr6   O42   S    
C9    H26   S    
C31   C79   S    
C99   H12   S    
C6    H57   S    
Cr1   O40   S    
Cr2   O32   S    
C46   C103  S    
C96   C100  S    
C6    N3    S    
C83   C100  S    
C8    C30   A    
C32   C33   A    
C8    H25   S    
Cr11  O21   S    
C5    N2    S    
C68   C73   A    
Cr7   O43   S    
C38   C43   A    
C98   C102  S    
Cr7   O13   S    
C89   O36   A    
C76   O31   A    
C15   C28   S    
C66   C70   A    
C52   C56   A    
C65   C69   A    
C47   O29   A    
C54   H64   S    
C17   O15   A    
C51   C55   A    
C10   H27   S    
C65   H7    S    
C39   O17   A    
C84   O48   A    
C52   H62   S    
Cr8   O9    S    
C97   C104  S    
C45   C102  S    
C9    C31   A    
C72   C83   S    
Cr8   O22   S    
C30   C78   S    
C92   O8    A    
C40   C44   A    
C29   C77   S    
C69   H11   S    
C64   H6    S    
C49   C71   A    
Cr3   O7    S    
C33   N2    S    
C44   H43   S    
C89   O5    A    
C97   H17   S    
C27   C94   A    
C2    C11   A    
C2    H24   S    
C5    H51   S    
C39   O21   A    
C84   O43   A    
C93   C98   S    
Cr4   O30   S    
C76   O1    A    
C93   H14   S    
C77   O32   A    
C10   C14   A    
C55   H2    S    
