data_mof_unit_13016.cif
_audit_creation_date              2013-03-05T15:42:24-0500
_audit_creation_method            fapswitch 2.2
_symmetry_space_group_name_H-M    P1
_symmetry_Int_Tables_number       1
_space_group_crystal_system       triclinic
_cell_length_a                    11.263299
_cell_length_b                    11.217846
_cell_length_c                    18.739305
_cell_angle_alpha                 89.359221
_cell_angle_beta                  89.42744
_cell_angle_gamma                 60.255515
_cell_volume                      2055.60087565

loop_
_atom_site_label
_atom_site_type_symbol
_atom_site_description
_atom_site_fract_x
_atom_site_fract_y
_atom_site_fract_z
_atom_type_partial_charge
O1    O     O_R   0.507340 0.255690 0.581430 -0.508711
O2    O     O_R   0.280360 0.527380 0.578910 -0.493910
C1    C     C_R   0.235484 0.642411 0.608196 0.636012
O3    O     O_R   0.260600 0.739610 0.584580 -0.462278
O4    O     O_R   0.532370 0.695050 0.573830 -0.495304
C2    C     C_R   0.627115 0.590748 0.608753 0.603063
O5    O     O_R   0.744850 0.503430 0.576380 -0.512464
O6    O     O_R   0.699080 0.276500 0.571950 -0.522770
C3    C     C_R   0.633413 0.222700 0.599313 0.606349
O7    O     O_R   0.498860 0.256520 0.419860 -0.542267
O8    O     O_R   0.272490 0.528150 0.429140 -0.445529
C4    C     C_R   0.281150 0.626321 0.392364 0.550165
O9    O     O_R   0.252110 0.740440 0.423010 -0.516232
O10   O     O_R   0.524510 0.695820 0.424050 -0.540457
C5    C     C_R   0.643085 0.624535 0.393378 0.579037
O11   O     O_R   0.736370 0.504260 0.414810 -0.490462
O12   O     O_R   0.691220 0.277270 0.422180 -0.506710
C6    C     C_R   0.615114 0.233951 0.394264 0.533492
Cr1   Cr    Cr6+3 0.392940 0.397950 0.502230 1.072731
Cr2   Cr    Cr6+3 0.398400 0.708500 0.501260 1.049253
Cr3   Cr    Cr6+3 0.708640 0.393530 0.496460 1.057646
O13   O     O_3   0.499990 0.499990 0.499980 -0.316770
C7    C     C_3   0.511806 0.743123 0.807945 0.366904
C8    C     C_3   0.492994 0.737352 0.721672 0.148731
H1    H     H_    0.411894 0.711317 0.710402 0.205860
H2    H     H_    0.657682 0.845732 0.760041 0.194983
H3    H     H_    0.709379 0.761520 0.648389 0.207045
C9    C     C_3   0.728574 0.735311 0.763327 0.078077
C10   C     C_3   0.733917 0.515765 0.803944 -0.254151
C11   C     C_3   0.672231 0.671635 0.819314 -0.043369
H4    H     H_    0.846189 0.466493 0.803221 0.160434
H5    H     H_    0.711415 0.463149 0.848067 0.194579
C12   C     C_3   0.632976 0.625691 0.685629 -0.039923
C13   C     C_3   0.735391 0.678719 0.688738 -0.215656
C14   C     C_3   0.686677 0.494066 0.730447 0.015972
H6    H     H_    0.775958 0.418455 0.702219 0.118989
H7    H     H_    0.840408 0.594465 0.675827 0.178618
H8    H     H_    0.550182 0.081056 0.668326 0.134883
C15   C     C_R   0.709827 0.113848 0.814653 0.121620
C16   C     C_R   0.804426 0.144491 0.779549 0.019986
C17   C     C_R   0.801383 0.155336 0.703557 0.065005
C18   C     C_R   0.620489 0.099554 0.699180 -0.083183
C19   C     C_R   0.618712 0.092374 0.772429 0.245516
C20   C     C_R   0.888894 0.182204 0.817240 -0.058435
C21   C     C_R   0.980900 0.211149 0.781363 -0.056281
C22   C     C_R   0.989300 0.205694 0.707430 -0.074161
C23   C     C_R   0.901485 0.177512 0.668876 -0.025676
C24   C     C_R   0.695173 0.147929 0.665551 0.072867
H9    H     H_    0.883106 0.195061 0.874233 0.145812
H10   H     H_    0.046130 0.237513 0.811317 0.148834
H11   H     H_    0.060907 0.226805 0.679222 0.120503
H12   H     H_    0.914975 0.173673 0.611771 0.179657
C25   C     C_R   0.148113 0.686188 0.825690 0.074522
C26   C     C_R   0.207355 0.549328 0.798270 0.086281
C27   C     C_R   0.209936 0.532076 0.722863 0.033222
C28   C     C_R   0.084399 0.772450 0.704655 0.234470
C29   C     C_R   0.101614 0.797203 0.775400 0.206128
C30   C     C_R   0.256758 0.429992 0.842605 0.332402
C31   C     C_R   0.262915 0.312551 0.815239 0.002708
C32   C     C_R   0.247793 0.301626 0.742498 -0.178469
C33   C     C_R   0.228675 0.406862 0.696186 -0.055947
C34   C     C_R   0.170509 0.647631 0.677587 -0.007886
H13   H     H_    0.284944 0.227102 0.850515 0.208611
H14   H     H_    0.255225 0.209121 0.721302 0.150411
H15   H     H_    0.213764 0.393140 0.640741 0.156916
H16   H     H_    0.446197 0.791687 0.303519 0.119488
C35   C     C_R   0.674531 0.658428 0.171840 0.007770
C36   C     C_R   0.787891 0.562751 0.214704 -0.004240
C37   C     C_R   0.789513 0.591262 0.287383 0.012798
C38   C     C_R   0.544707 0.741257 0.279500 -0.159084
C39   C     C_R   0.552643 0.747242 0.205752 -0.142404
C40   C     C_R   0.898738 0.439586 0.188473 -0.106196
C41   C     C_R   0.017403 0.366562 0.228055 -0.201289
C42   C     C_R   0.028084 0.412145 0.295010 -0.116713
C43   C     C_R   0.915778 0.526989 0.324960 0.244488
C44   C     C_R   0.661800 0.666246 0.321464 0.023606
H17   H     H_    0.894058 0.396136 0.138063 0.149385
H18   H     H_    0.462981 0.816282 0.175217 0.146979
H19   H     H_    0.102275 0.276395 0.205415 0.115264
H20   H     H_    0.123903 0.357679 0.323425 0.147776
H21   H     H_    0.736706 0.314464 0.296111 0.149949
C45   C     C_R   0.626426 0.176919 0.172084 0.003759
C46   C     C_R   0.544684 0.143241 0.217344 0.030946
C47   C     C_R   0.573309 0.126620 0.290595 0.021798
C48   C     C_R   0.692944 0.255509 0.274715 -0.157662
C49   C     C_R   0.689403 0.244567 0.200955 -0.178436
C50   C     C_R   0.434042 0.128191 0.193079 -0.085042
C51   C     C_R   0.368503 0.080505 0.238707 -0.157716
C52   C     C_R   0.410551 0.047817 0.309047 -0.122475
C53   C     C_R   0.518076 0.062055 0.333664 -0.055324
C54   C     C_R   0.641970 0.190096 0.320116 0.017344
H22   H     H_    0.390611 0.160578 0.140550 0.156399
H23   H     H_    0.739467 0.284369 0.166429 0.120466
H24   H     H_    0.287377 0.065773 0.218598 0.112677
H25   H     H_    0.360009 0.012387 0.345372 0.100977
H26   H     H_    0.550896 0.031401 0.388201 0.159415
H27   H     H_    0.291222 0.440593 0.300052 0.139121
C55   C     C_R   0.085446 0.708168 0.193345 0.006945
C56   C     C_R   0.073793 0.817476 0.235123 0.031211
C57   C     C_R   0.164168 0.789840 0.290864 0.054873
C58   C     C_R   0.234398 0.545610 0.280797 -0.147502
C59   C     C_R   0.167176 0.572314 0.216139 -0.133321
C60   C     C_R   0.981646 0.954933 0.217918 -0.065684
C61   C     C_R   0.001077 0.060803 0.241493 -0.108782
C62   C     C_R   0.098907 0.034301 0.291594 -0.139932
C63   C     C_R   0.179576 0.901503 0.316056 -0.081102
C64   C     C_R   0.230531 0.653414 0.319626 0.016410
H28   H     H_    0.897691 0.977615 0.184677 0.147646
H29   H     H_    0.180466 0.487068 0.183847 0.149610
H30   H     H_    0.942932 0.163106 0.220566 0.117657
H31   H     H_    0.112365 0.116702 0.311859 0.116576
H32   H     H_    0.254524 0.892248 0.353580 0.137770
O14   O     O_R   0.089570 0.825450 0.930590 -0.430020
O15   O     O_R   0.818700 0.054260 0.929860 -0.528571
C65   C     C_R   0.708746 0.088633 0.892640 0.605672
O16   O     O_R   0.606310 0.077010 0.915520 -0.405640
O17   O     O_R   0.646730 0.806540 0.917560 -0.425369
C66   C     C_R   0.716478 0.685698 0.892140 0.639628
O18   O     O_R   0.837290 0.593240 0.915240 -0.483751
O19   O     O_R   0.065320 0.635310 0.931580 -0.447417
C67   C     C_R   0.104969 0.714797 0.901755 0.628535
O20   O     O_R   0.068470 0.828620 0.091850 -0.506357
O21   O     O_R   0.799150 0.057200 0.079350 -0.542460
C68   C     C_R   0.671246 0.109745 0.102337 0.526318
O22   O     O_R   0.585220 0.080180 0.076770 -0.526308
O23   O     O_R   0.627170 0.809480 0.067050 -0.489645
C69   C     C_R   0.699474 0.687591 0.097883 0.545213
O24   O     O_R   0.816200 0.596410 0.076500 -0.545683
O25   O     O_R   0.045770 0.638240 0.081070 -0.499466
C70   C     C_R   0.040360 0.738279 0.119655 0.527195
Cr4   Cr    Cr6+3 0.937880 0.938320 0.007620 1.069851
Cr5   Cr    Cr6+3 0.625560 0.937220 0.994510 1.142129
Cr6   Cr    Cr6+3 0.938080 0.625010 0.001190 1.080239
O26   O     O_3   0.833840 0.833520 0.001110 -0.310641
N1    N     N_R   0.428845 0.884826 0.837041 0.142240
O27   O     O_R   0.403543 0.901607 0.905337 -0.248012
O28   O     O_R   0.337437 0.982176 0.797868 -0.289945
N2    N     N_R   0.859564 0.715896 0.783535 0.059566
O29   O     O_R   0.861291 0.811917 0.820658 -0.402072
O30   O     O_R   0.959711 0.591074 0.788388 -0.419876
O31   O     O_3   0.523020 0.067290 0.803349 -0.663419
H33   H     H_    0.465170 0.066301 0.765058 0.354351
N3    N     N_R   0.980154 0.871622 0.659521 0.070694
O32   O     O_R   0.014044 0.924138 0.606350 -0.324250
O33   O     O_R   0.872096 0.859699 0.651922 -0.374780
N4    N     N_R   0.466996 0.660963 0.848660 0.092946
O34   O     O_R   0.393689 0.619371 0.818385 -0.370725
O35   O     O_R   0.490683 0.637496 0.916763 -0.331366
O36   O     O_3   0.303137 0.421944 0.911303 -0.666037
H34   H     H_    0.334414 0.489807 0.916081 0.369104
N5    N     N_R   0.131818 0.905542 0.783679 0.078334
O37   O     O_R   0.146091 0.946992 0.845616 -0.253060
O38   O     O_R   0.174949 0.942222 0.727546 -0.333746
N6    N     N_R   0.931365 0.579700 0.391806 0.095550
O39   O     O_R   0.025026 0.499558 0.436855 -0.324223
O40   O     O_R   0.858965 0.710178 0.405611 -0.327447
O41   O     O_3   0.456262 0.864985 0.688991 -0.712215
H35   H     H_    0.384263 0.885401 0.653163 0.378231
N7    N     N_R   0.587025 0.445176 0.735198 0.058329
O42   O     O_R   0.506923 0.461849 0.682065 -0.390439
O43   O     O_R   0.573836 0.387727 0.792975 -0.338678

loop_
_geom_bond_atom_site_label_1
_geom_bond_atom_site_label_2
_geom_bond_distance
_ccdc_geom_bond_type
C20   H9    1.076290 S    
C58   C64   1.400222 A    
C46   C50   1.417768 A    
C50   C51   1.389656 A    
O41   H35   0.991975 S    
C13   H7    1.114017 S    
C41   C42   1.388739 A    
C56   C60   1.402280 A    
C14   H6    1.078667 S    
C43   N6    1.439988 S    
Cr4   O26   2.035492 S    
O15   C65   1.306253 A    
C48   C54   1.409328 A    
O36   H34   0.989908 S    
N1    O27   1.303636 A    
O4    Cr2   1.989862 S    
C63   H32   1.068220 S    
C25   C26   1.435477 A    
C20   C21   1.395142 A    
O8    Cr1   1.968747 S    
O18   Cr6   2.112052 S    
C6    C54   1.457201 S    
H8    C18   1.085970 S    
C10   H5    1.108880 S    
C48   C49   1.391738 A    
O4    C2    1.301527 A    
C5    O11   1.294338 A    
C27   C34   1.417440 A    
C27   C33   1.409564 A    
C28   C29   1.392489 A    
C37   C44   1.406294 A    
N1    O28   1.293430 A    
O19   Cr6   1.972914 S    
O15   Cr4   1.970066 S    
O17   Cr5   1.994684 S    
C66   O18   1.309981 A    
C26   C27   1.426456 A    
C28   N3    1.426275 S    
N7    O42   1.298715 A    
O6    C3    1.265955 A    
C55   C59   1.397727 A    
C7    C8    1.638775 S    
N7    O43   1.298390 A    
C60   H28   1.056603 S    
C47   C54   1.405314 A    
H2    C9    1.092502 S    
C10   C11   1.557191 S    
N6    O40   1.301597 A    
C30   O36   1.379256 S    
H21   C48   1.083716 S    
C5    C44   1.468850 S    
C62   H31   1.081512 S    
N5    O37   1.295821 A    
C9    C13   1.527075 S    
C31   C32   1.389668 A    
C42   H20   1.082359 S    
Cr3   O13   2.041390 S    
C47   C53   1.409598 A    
C45   C68   1.470488 S    
C61   C62   1.368723 A    
O12   C6    1.293278 A    
C2    O5    1.339527 A    
N4    O35   1.303371 A    
H3    C13   1.113104 S    
C17   C23   1.419680 A    
C7    N4    1.457548 S    
C51   H24   1.078124 S    
O1    Cr1   2.086767 S    
C42   C43   1.399906 A    
O17   C66   1.277481 A    
C35   C36   1.438333 A    
C58   C59   1.384290 A    
O10   Cr2   1.973388 S    
O21   C68   1.326293 A    
Cr1   O13   2.033038 S    
C9    N2    1.434580 S    
C8    H1    1.110966 S    
C15   C16   1.424970 A    
C25   C29   1.431690 A    
C8    O41   1.412038 S    
C36   C37   1.404848 A    
C15   C19   1.415294 A    
C11   C66   1.494020 S    
C30   C31   1.388226 A    
C21   C22   1.387691 A    
C22   H11   1.078977 S    
O12   Cr3   1.994220 S    
C1    O3    1.325724 A    
C32   C33   1.386276 A    
C52   H25   1.075219 S    
C7    C11   1.587290 S    
C40   H17   1.081443 S    
C49   H23   1.082593 S    
C35   C69   1.476471 S    
C46   C47   1.402297 A    
O16   Cr5   2.077078 S    
O23   Cr5   1.957725 S    
O7    Cr1   2.112536 S    
C36   C40   1.414423 A    
C55   C70   1.453366 S    
C12   C13   1.539769 S    
C41   H19   1.076555 S    
O1    C3    1.323230 A    
C18   C24   1.354225 A    
C4    O9    1.293385 A    
N6    O39   1.301354 A    
C38   C39   1.387008 A    
N2    O30   1.293539 A    
O25   Cr6   1.988426 S    
C16   C17   1.427171 A    
Cr2   O13   2.031237 S    
C55   C56   1.411884 A    
C15   C65   1.486522 S    
C38   C44   1.403770 A    
Cr6   O26   2.030893 S    
C28   C34   1.347971 A    
C19   O31   1.364326 S    
C18   C19   1.374636 A    
C69   O24   1.264734 A    
O20   Cr4   2.091920 S    
C50   H22   1.079601 S    
O19   C67   1.298408 A    
C61   H30   1.071932 S    
N4    O34   1.272342 A    
C26   C30   1.427299 A    
C1    C34   1.473116 S    
N3    O33   1.298035 A    
C22   C23   1.389209 A    
C57   C64   1.430340 A    
O14   Cr4   2.109726 S    
O9    Cr2   2.108134 S    
O21   Cr4   1.989284 S    
O2    Cr1   1.991016 S    
C57   C63   1.432693 A    
C40   C41   1.388324 A    
O6    Cr3   1.957542 S    
C4    C64   1.452460 S    
O8    C4    1.336228 A    
C2    C12   1.507817 S    
O11   Cr3   2.077135 S    
C53   H26   1.082993 S    
C23   H12   1.077667 S    
C62   C63   1.380175 A    
C10   C14   1.545933 S    
C31   H13   1.081895 S    
C8    C12   1.596573 S    
C56   C57   1.387164 A    
C7    N1    1.494191 S    
C32   H14   1.078873 S    
C9    C11   1.559946 S    
O2    C1    1.258927 A    
O25   C70   1.317314 A    
C10   H4    1.100479 S    
C45   C49   1.386617 A    
O31   H33   0.977883 S    
O5    Cr3   2.116978 S    
O22   Cr5   2.114895 S    
C65   O16   1.292342 A    
H16   C38   1.061422 S    
C21   H10   1.081624 S    
O7    C6    1.292257 A    
O23   C69   1.324189 A    
C29   N5    1.425604 S    
C12   C14   1.532201 S    
C17   C24   1.436039 A    
C37   C43   1.424585 A    
C35   C39   1.385906 A    
N5    O38   1.300100 A    
C14   N7    1.475215 S    
N2    O29   1.297074 A    
O3    Cr2   2.096397 S    
C33   H15   1.078957 S    
C16   C20   1.415097 A    
O14   C67   1.289322 A    
C51   C52   1.387654 A    
C3    C24   1.463946 S    
Cr5   O26   2.041222 S    
C45   C46   1.425511 A    
C60   C61   1.387483 A    
O10   C5    1.299508 A    
C59   H29   1.082647 S    
C25   C67   1.487476 S    
C52   C53   1.381950 A    
O24   Cr6   2.089797 S    
O20   C70   1.304620 A    
C39   H18   1.082890 S    
H27   C58   1.083794 S    
N3    O32   1.299224 A    
C68   O22   1.268893 A    
