data_mof_unit_47870.cif
_audit_creation_date              2013-03-05T16:04:02-0500
_audit_creation_method            fapswitch 2.2
_symmetry_space_group_name_H-M    P1
_symmetry_Int_Tables_number       1
_space_group_crystal_system       triclinic
_cell_length_a                    25.888206
_cell_length_b                    7.323624
_cell_length_c                    23.341882
_cell_angle_alpha                 90.00018
_cell_angle_beta                  103.831684
_cell_angle_gamma                 89.999962
_cell_volume                      4297.185377

loop_
_atom_site_label
_atom_site_type_symbol
_atom_site_description
_atom_site_fract_x
_atom_site_fract_y
_atom_site_fract_z
_atom_type_partial_charge
O1    O     O_R   0.438720 0.630760 0.439780 -0.590566
O2    O     O_R   0.061280 0.869240 0.060220 -0.590566
O3    O     O_R   0.561280 0.130760 0.560220 -0.590566
O4    O     O_R   0.938720 0.369240 0.939780 -0.590566
O5    O     O_R   0.546380 0.956770 0.446270 -0.594634
O6    O     O_R   0.953620 0.543230 0.053730 -0.594632
O7    O     O_R   0.453620 0.456770 0.553730 -0.594636
O8    O     O_R   0.046380 0.043230 0.946270 -0.594631
C1    C     C_R   0.562260 0.792130 0.434217 0.950603
C2    C     C_R   0.937739 0.707870 0.065783 0.950603
C3    C     C_R   0.437740 0.292130 0.565784 0.950611
C4    C     C_R   0.062261 0.207870 0.934217 0.950604
O9    O     O_R   0.438210 0.960230 0.432810 -0.589679
O10   O     O_R   0.061790 0.539770 0.067190 -0.589679
O11   O     O_R   0.561790 0.460230 0.567190 -0.589679
O12   O     O_R   0.938210 0.039770 0.932810 -0.589678
O13   O     O_R   0.452340 0.134240 0.546660 -0.594562
O14   O     O_R   0.047660 0.365760 0.953340 -0.594567
O15   O     O_R   0.547660 0.634240 0.453340 -0.594561
O16   O     O_R   0.952340 0.865760 0.046660 -0.594561
C5    C     C_R   0.419335 0.792365 0.416891 0.940015
C6    C     C_R   0.080665 0.707635 0.083108 0.940015
C7    C     C_R   0.580665 0.292365 0.583109 0.940011
C8    C     C_R   0.919335 0.207634 0.916891 0.940013
O17   O     O_3   0.504760 0.798440 0.537370 -0.288340
O18   O     O_3   0.995240 0.701560 0.962630 -0.288344
O19   O     O_3   0.495240 0.298440 0.462630 -0.288340
O20   O     O_3   0.004760 0.201560 0.037370 -0.288339
V1    V     V_3+5 0.499120 0.071860 0.493070 1.174495
V2    V     V_3+5 0.000880 0.428140 0.006930 1.174492
V3    V     V_3+5 0.500880 0.571860 0.506930 1.174496
V4    V     V_3+5 0.999120 0.928140 0.993070 1.174493
C9    C     C_R   0.691278 0.100321 0.704456 0.364661
C10   C     C_R   0.808722 0.399679 0.795544 0.364663
C11   C     C_R   0.308721 0.600320 0.295544 0.364669
C12   C     C_R   0.191279 0.899680 0.204456 0.364671
C13   C     C_R   0.642729 0.121008 0.662841 -0.231619
C14   C     C_R   0.857271 0.378992 0.837159 -0.231619
C15   C     C_R   0.357271 0.621006 0.337159 -0.231616
C16   C     C_R   0.142729 0.878994 0.162840 -0.231614
H1    H     H_    0.617611 0.002143 0.650442 0.184496
H2    H     H_    0.882388 0.497857 0.849558 0.184495
H3    H     H_    0.382387 0.502140 0.349558 0.184495
H4    H     H_    0.117613 0.997861 0.150441 0.184494
C17   C     C_R   0.629204 0.283696 0.632174 -0.202722
C18   C     C_R   0.870796 0.216304 0.867826 -0.202723
C19   C     C_R   0.370796 0.783695 0.367826 -0.202724
C20   C     C_R   0.129204 0.716305 0.132174 -0.202725
C21   C     C_R   0.665163 0.429160 0.644755 -0.099915
C22   C     C_R   0.834837 0.070840 0.855245 -0.099914
C23   C     C_R   0.334838 0.929161 0.355245 -0.099915
C24   C     C_R   0.165162 0.570839 0.144756 -0.099912
H5    H     H_    0.657670 0.554060 0.619248 0.158811
H6    H     H_    0.842330 0.945940 0.880751 0.158811
H7    H     H_    0.342331 0.054062 0.380751 0.158813
H8    H     H_    0.157668 0.445937 0.119250 0.158814
C25   C     C_R   0.712592 0.412767 0.688601 -0.009194
C26   C     C_R   0.787408 0.087233 0.811399 -0.009193
C27   C     C_R   0.287408 0.912768 0.311398 -0.009197
C28   C     C_R   0.212592 0.587232 0.188602 -0.009196
H9    H     H_    0.739977 0.523909 0.691711 0.201766
H10   H     H_    0.760023 0.976092 0.808289 0.201766
H11   H     H_    0.260024 0.023911 0.308288 0.201770
H12   H     H_    0.239976 0.476089 0.191712 0.201770
C29   C     C_R   0.725419 0.253468 0.723635 -0.055025
C30   C     C_R   0.774581 0.246532 0.776365 -0.055025
C31   C     C_R   0.274581 0.753468 0.276365 -0.055029
C32   C     C_R   0.225418 0.746532 0.223635 -0.055031
C33   C     C_R   0.371246 0.124798 0.609428 -0.118371
C34   C     C_R   0.128764 0.375209 0.890588 -0.118442
C35   C     C_R   0.628760 0.624797 0.390579 -0.118376
C36   C     C_R   0.871230 0.875193 0.109408 -0.118407
H13   H     H_    0.377528 0.001768 0.586257 0.143431
H14   H     H_    0.122474 0.498243 0.913753 0.143425
H15   H     H_    0.622478 0.501769 0.413751 0.143424
H16   H     H_    0.877511 0.998217 0.086234 0.143419
C37   C     C_R   0.333992 0.121218 0.644010 -0.097941
C38   C     C_R   0.166029 0.378789 0.856019 -0.098019
C39   C     C_R   0.666016 0.621216 0.355999 -0.097949
C40   C     C_R   0.833968 0.878768 0.143981 -0.097974
H17   H     H_    0.313041 0.995096 0.647228 0.188008
H18   H     H_    0.186979 0.504914 0.852803 0.188035
H19   H     H_    0.686969 0.495095 0.352784 0.187991
H20   H     H_    0.813011 0.004882 0.147191 0.187999
C41   C     C_R   0.324196 0.277116 0.674891 -0.082431
C42   C     C_R   0.175837 0.222883 0.825150 -0.082394
C43   C     C_R   0.675810 0.777111 0.325116 -0.082450
C44   C     C_R   0.824172 0.722873 0.174862 -0.082430
C45   C     C_R   0.352084 0.440598 0.669780 0.362061
C46   C     C_R   0.147945 0.059407 0.830253 0.362117
C47   C     C_R   0.647919 0.940590 0.330221 0.362057
C48   C     C_R   0.852071 0.559407 0.169765 0.362082
C49   C     C_R   0.389596 0.442094 0.634976 -0.249216
C50   C     C_R   0.110421 0.057907 0.865039 -0.249235
C51   C     C_R   0.610405 0.942088 0.365024 -0.249224
C52   C     C_R   0.889591 0.557914 0.134973 -0.249226
H21   H     H_    0.410423 0.568013 0.631071 0.179783
H22   H     H_    0.089593 0.931980 0.868935 0.179722
H23   H     H_    0.589576 0.068005 0.368925 0.179782
H24   H     H_    0.910426 0.432001 0.131080 0.179759
C53   C     C_R   0.399459 0.285384 0.604310 -0.179308
C54   C     C_R   0.100550 0.214619 0.895699 -0.179245
C55   C     C_R   0.600544 0.785382 0.395693 -0.179296
C56   C     C_R   0.899453 0.714617 0.104303 -0.179272
C57   C     C_R   0.301777 0.312891 0.773289 -0.027862
C58   C     C_R   0.198262 0.187063 0.726759 -0.027938
C59   C     C_R   0.698222 0.812789 0.226713 -0.027867
C60   C     C_R   0.801756 0.687162 0.273261 -0.027921
H25   H     H_    0.341851 0.360633 0.792034 0.132634
H26   H     H_    0.158188 0.139318 0.708013 0.132673
H27   H     H_    0.658141 0.860455 0.207962 0.132618
H28   H     H_    0.841837 0.639495 0.292012 0.132636
C61   C     C_R   0.265853 0.300631 0.809420 -0.118996
C62   C     C_R   0.234185 0.199335 0.690627 -0.119086
C63   C     C_R   0.734147 0.800525 0.190583 -0.119038
C64   C     C_R   0.765832 0.699432 0.309392 -0.119087
H29   H     H_    0.278801 0.339212 0.855421 0.129164
H30   H     H_    0.221236 0.160763 0.644626 0.129160
H31   H     H_    0.721193 0.839023 0.144575 0.129151
H32   H     H_    0.778787 0.660937 0.355400 0.129152
C65   C     C_R   0.213867 0.236432 0.786607 0.149142
C66   C     C_R   0.286171 0.263542 0.713439 0.149202
C67   C     C_R   0.786142 0.736427 0.213404 0.149206
C68   C     C_R   0.713837 0.763536 0.286571 0.149236
N1    N     N_R   0.709701 0.917530 0.713949 0.222148
O21   O     O_R   0.749476 0.869287 0.692295 -0.376713
O22   O     O_R   0.677243 0.792747 0.724140 -0.389987
N2    N     N_R   0.790299 0.582470 0.786050 0.222148
O23   O     O_R   0.822758 0.707252 0.775860 -0.389986
O24   O     O_R   0.750524 0.630715 0.807705 -0.376714
N3    N     N_R   0.290298 0.417530 0.286051 0.222147
O25   O     O_R   0.250525 0.369287 0.307709 -0.376714
O26   O     O_R   0.322755 0.292747 0.275858 -0.389988
N4    N     N_R   0.209702 0.082470 0.213949 0.222147
O27   O     O_R   0.177244 0.207250 0.224144 -0.389984
O28   O     O_R   0.249473 0.130718 0.192291 -0.376716
N5    N     N_R   0.341702 0.607212 0.697726 0.216706
O29   O     O_R   0.379640 0.725533 0.715604 -0.408577
O30   O     O_R   0.293330 0.651455 0.699126 -0.392232
N6    N     N_R   0.158340 0.892809 0.802314 0.216675
O31   O     O_R   0.206725 0.848437 0.801010 -0.392266
O32   O     O_R   0.120381 0.774641 0.784322 -0.408484
N7    N     N_R   0.658297 0.107194 0.302268 0.216717
O33   O     O_R   0.620357 0.225504 0.284387 -0.408557
O34   O     O_R   0.706666 0.151437 0.300858 -0.392207
N8    N     N_R   0.841687 0.392806 0.197712 0.216704
O35   O     O_R   0.793309 0.348478 0.199061 -0.392223
O36   O     O_R   0.879638 0.274572 0.215649 -0.408501

loop_
_geom_bond_atom_site_label_1
_geom_bond_atom_site_label_2
_geom_bond_distance
_ccdc_geom_bond_type
C26   H10   1.070417 S    
C6    C20   1.485451 S    
O1    C5    1.345305 A    
C7    C17   1.485452 S    
C43   C47   1.417795 A    
C34   C38   1.398101 A    
O13   V1    1.991082 S    
O3    C7    1.345304 A    
C48   C52   1.407236 A    
C36   H16   1.082990 S    
O15   V3    1.991084 S    
N2    O23   1.301299 A    
C10   C30   1.431901 A    
C39   C43   1.405298 A    
C9    C29   1.431902 A    
O7    C3    1.325641 A    
N5    O30   1.301454 A    
O5    C1    1.325645 A    
C22   H6    1.083322 S    
C58   C62   1.399737 A    
C57   C61   1.399748 A    
N6    O32   1.301412 A    
C14   H2    1.083697 S    
C20   C24   1.398952 A    
O16   V4    1.991086 S    
C43   C68   1.487285 S    
O4    C8    1.345305 A    
C51   H23   1.083029 S    
O19   V1    1.798438 S    
C50   H22   1.083039 S    
N7    O33   1.301405 A    
O1    V3    2.006589 S    
C21   C25   1.403085 A    
O2    V4    2.006587 S    
O3    V1    2.006587 S    
C16   C20   1.390959 A    
C34   H14   1.083002 S    
C35   C55   1.404506 A    
C24   C28   1.403084 A    
C27   C31   1.417822 A    
C33   C37   1.398083 A    
C1    O15   1.326601 A    
C47   N7    1.438923 S    
C44   C48   1.417773 A    
C2    O16   1.326600 A    
C51   C55   1.407894 A    
O2    C6    1.345305 A    
C33   H13   1.082983 S    
C34   C54   1.404506 A    
O14   V2    1.991086 S    
C37   H17   1.082804 S    
O5    V1    2.009902 S    
C40   H20   1.082795 S    
C38   C42   1.405286 A    
O11   C7    1.342159 A    
C37   C41   1.405302 A    
O12   C8    1.342159 A    
C45   C49   1.407257 A    
C59   C68   1.405560 A    
O10   V2    2.018117 S    
C44   C67   1.487288 S    
C35   C39   1.398092 A    
C26   C30   1.417823 A    
C46   C50   1.407215 A    
N8    O36   1.301412 A    
O7    V3    2.009908 S    
C48   N8    1.438875 S    
C31   C32   1.545421 S    
O8    V4    2.009908 S    
C12   C16   1.400883 A    
C63   C67   1.404696 A    
N6    O31   1.301464 A    
C42   C46   1.417766 A    
C49   C53   1.407888 A    
C41   C45   1.417795 A    
O18   V4    1.798435 S    
C15   H3    1.083695 S    
C36   C56   1.404504 A    
C9    C13   1.400884 A    
C62   C66   1.404707 A    
C60   H28   1.083033 S    
C12   N4    1.420606 S    
C22   C26   1.403084 A    
C11   C15   1.400883 A    
C4    C54   1.489778 S    
C38   H18   1.082795 S    
C46   N6    1.438837 S    
C11   C31   1.431901 A    
O8    C4    1.325649 A    
C42   C65   1.487289 S    
C9    N1    1.420608 S    
C17   C21   1.398953 A    
O9    C5    1.342158 A    
C41   C66   1.487296 S    
C3    C53   1.489768 S    
O11   V3    2.018116 S    
C59   C63   1.399754 A    
C62   H30   1.083073 S    
C61   H29   1.083074 S    
C10   N2    1.420608 S    
O6    V2    2.009902 S    
C45   N5    1.438920 S    
C52   C56   1.407883 A    
N1    O21   1.299795 A    
C27   H11   1.070416 S    
C23   C27   1.403084 A    
C60   C67   1.405559 A    
C13   C17   1.390959 A    
N3    O25   1.299791 A    
C49   H21   1.083024 S    
C15   C19   1.390959 A    
N8    O35   1.301460 A    
C58   H26   1.083040 S    
O9    V1    2.018115 S    
N7    O34   1.301451 A    
C57   H25   1.083031 S    
C3    O13   1.326599 A    
C64   C68   1.404703 A    
C10   C14   1.400884 A    
C59   H27   1.083028 S    
O17   V3    1.798434 S    
C25   C29   1.417822 A    
N3    O26   1.301298 A    
N2    O24   1.299795 A    
O6    C2    1.325645 A    
C19   C23   1.398954 A    
C12   C32   1.431900 A    
C25   H9    1.070417 S    
N4    O27   1.301299 A    
C33   C53   1.404501 A    
O12   V4    2.018116 S    
N5    O29   1.301404 A    
C18   C22   1.398954 A    
C63   H31   1.083073 S    
C28   H12   1.070415 S    
C8    C18   1.485452 S    
O10   C6    1.342158 A    
C2    C56   1.489778 S    
C11   N3    1.420607 S    
C40   C44   1.405284 A    
C35   H15   1.082989 S    
C60   C64   1.399751 A    
C21   H5    1.083322 S    
C52   H24   1.083030 S    
C58   C65   1.405561 A    
O20   V2    1.798438 S    
C1    C55   1.489776 S    
N4    O28   1.299789 A    
C57   C66   1.405568 A    
C23   H7    1.083323 S    
C13   H1    1.083695 S    
C14   C18   1.390958 A    
C47   C51   1.407261 A    
C39   H19   1.082810 S    
C64   H32   1.083070 S    
C16   H4    1.083698 S    
C61   C65   1.404695 A    
C28   C32   1.417822 A    
C36   C40   1.398101 A    
C29   C30   1.545421 S    
C4    O14   1.326599 A    
N1    O22   1.301298 A    
O4    V2    2.006584 S    
C24   H8    1.083323 S    
C50   C54   1.407885 A    
C5    C19   1.485451 S    
