data_mof_unit_23638.cif
_audit_creation_date              2013-03-05T15:49:23-0500
_audit_creation_method            fapswitch 2.2
_symmetry_space_group_name_H-M    P1
_symmetry_Int_Tables_number       1
_space_group_crystal_system       triclinic
_cell_length_a                    17.03022
_cell_length_b                    12.968341
_cell_length_c                    11.842685
_cell_angle_alpha                 99.566979
_cell_angle_beta                  86.277364
_cell_angle_gamma                 93.289913
_cell_volume                      2570.7952426

loop_
_atom_site_label
_atom_site_type_symbol
_atom_site_description
_atom_site_fract_x
_atom_site_fract_y
_atom_site_fract_z
_atom_type_partial_charge
O1    O     O_R   0.504120 0.354440 0.581590 -0.602677
O2    O     O_R   0.495880 0.645560 0.418410 -0.584052
O3    O     O_R   0.494320 0.341440 0.386760 -0.592787
O4    O     O_R   0.505680 0.658560 0.613240 -0.586749
C1    C     C_R   0.499741 0.299684 0.478824 0.782177
C2    C     C_R   0.500988 0.700416 0.521052 0.788333
O5    O     O_R   0.391870 0.507230 0.608700 -0.594607
O6    O     O_R   0.608130 0.492770 0.391300 -0.597574
O7    O     O_R   0.382070 0.494240 0.413880 -0.583815
O8    O     O_R   0.617930 0.505760 0.586120 -0.573790
C3    C     C_R   0.350765 0.496049 0.517455 0.781933
C4    C     C_R   0.649150 0.499839 0.482063 0.771569
Cu1   Cu    Cu3+1 0.505800 0.507690 0.615350 0.918306
Cu2   Cu    Cu3+1 0.494200 0.492310 0.384650 0.917748
C5    C     C_R   0.265528 0.483473 0.531551 -0.027540
C6    C     C_R   0.734476 0.503718 0.467602 -0.049428
C7    C     C_R   0.224403 0.390219 0.482615 0.072457
C8    C     C_R   0.775919 0.413838 0.420007 0.066796
C9    C     C_R   0.142153 0.384400 0.495883 -0.212309
C10   C     C_R   0.858738 0.421560 0.418930 -0.158562
C11   C     C_R   0.101522 0.469548 0.554222 0.175935
C12   C     C_R   0.898104 0.515434 0.465361 0.070411
C13   C     C_R   0.142541 0.559857 0.605394 -0.146659
C14   C     C_R   0.856150 0.603977 0.508624 -0.193145
C15   C     C_R   0.224355 0.566421 0.594832 -0.229704
C16   C     C_R   0.774572 0.597897 0.510423 -0.218620
C17   C     C_2   0.015260 0.467284 0.551707 0.174955
C18   C     C_2   0.983574 0.519035 0.476144 0.131966
H1    H     H_    0.742330 0.666321 0.547223 0.134835
H2    H     H_    0.255609 0.637466 0.633172 0.134039
H3    H     H_    0.111015 0.625960 0.650672 0.127617
H4    H     H_    0.886461 0.676489 0.544837 0.132359
H5    H     H_    0.893616 0.354968 0.385726 0.131565
H6    H     H_    0.109363 0.314746 0.457124 0.136851
C19   C     C_R   0.500539 0.813968 0.533109 -0.051604
C20   C     C_R   0.502137 0.186420 0.466584 -0.036881
C21   C     C_R   0.516805 0.017418 0.347089 -0.230674
C22   C     C_R   0.487398 0.983256 0.652613 -0.223908
C23   C     C_R   0.514309 0.125532 0.357872 -0.223149
C24   C     C_R   0.489912 0.875182 0.641948 -0.199759
C25   C     C_R   0.493090 0.138775 0.564612 -0.268927
C26   C     C_R   0.509618 0.861585 0.434973 -0.270938
C27   C     C_R   0.495986 0.030868 0.554625 0.175157
C28   C     C_R   0.507596 0.969651 0.444978 0.179460
H7    H     H_    0.518230 0.814804 0.350703 0.147199
H8    H     H_    0.483422 0.185408 0.648798 0.145674
H9    H     H_    0.482591 0.839553 0.718683 0.158320
H10   H     H_    0.522062 0.161367 0.281313 0.162027
H11   H     H_    0.526102 0.971357 0.262603 0.138864
H12   H     H_    0.478573 0.029438 0.737139 0.133461
N1    N     N_R   0.514530 0.519260 0.788680 -0.190108
N2    N     N_R   0.485470 0.480740 0.211320 -0.185706
C29   C     C_R   0.411993 0.421045 0.045800 -0.359135
C30   C     C_R   0.579483 0.591667 0.958472 -0.357617
C31   C     C_R   0.421448 0.429069 0.163032 0.059281
C32   C     C_R   0.571751 0.583149 0.840784 0.062033
C33   C     C_R   0.543100 0.525641 0.141996 0.238286
C34   C     C_R   0.458863 0.467158 0.854140 0.245646
C35   C     C_R   0.529074 0.532196 0.026019 0.031302
C36   C     C_R   0.465506 0.473716 0.974980 0.043390
H13   H     H_    0.611948 0.627739 0.790730 0.133948
H14   H     H_    0.378302 0.390484 0.214750 0.128940
H15   H     H_    0.361464 0.373928 0.013770 0.157065
H16   H     H_    0.625639 0.644979 0.995397 0.155625
C37   C     C_3   0.264877 0.295416 0.417040 -0.437774
C38   C     C_3   0.271472 0.211828 0.493189 -0.365461
C39   C     C_3   0.295418 0.108039 0.422113 -0.819259
H17   H     H_    0.247508 0.074137 0.365860 0.244320
H18   H     H_    0.349727 0.119700 0.367855 0.264714
H19   H     H_    0.306666 0.051946 0.479995 0.248015
H20   H     H_    0.316521 0.239076 0.556804 0.209626
H21   H     H_    0.214130 0.198452 0.540295 0.222510
H22   H     H_    0.230523 0.262549 0.341410 0.197325
H23   H     H_    0.324601 0.315847 0.382423 0.205523
C40   C     C_3   0.730097 0.311770 0.377327 -0.399224
C41   C     C_3   0.779846 0.216238 0.335413 -0.369149
C42   C     C_3   0.727514 0.118111 0.299862 -0.835283
H24   H     H_    0.689630 0.099505 0.374470 0.266986
H25   H     H_    0.689698 0.129625 0.230411 0.250684
H26   H     H_    0.764858 0.050770 0.267930 0.237591
H27   H     H_    0.819070 0.230625 0.260304 0.215417
H28   H     H_    0.816323 0.201920 0.405284 0.225023
H29   H     H_    0.688765 0.292875 0.448495 0.197250
H30   H     H_    0.694427 0.324558 0.305959 0.199081
N3    N     N_2   0.032422 0.579943 0.407032 -0.426600
H31   H     H_    0.009206 0.650462 0.401159 0.251095
C43   C     C_3   0.055761 0.523592 0.295112 -0.686431
H32   H     H_    0.096850 0.574318 0.249337 0.227797
H33   H     H_    0.003275 0.501108 0.243726 0.217917
H34   H     H_    0.086454 0.452137 0.303102 0.233074
N4    N     N_2   0.966777 0.407255 0.623583 -0.444887
H35   H     H_    0.909859 0.430321 0.642724 0.263478
C44   C     C_3   0.002217 0.375655 0.719625 -0.711440
H36   H     H_    0.957917 0.330015 0.766643 0.225940
H37   H     H_    0.023074 0.445722 0.779400 0.223368
H38   H     H_    0.052114 0.324776 0.689189 0.239490
C45   C     C_3   0.389481 0.401148 0.801543 -0.371235
C46   C     C_3   0.311518 0.457724 0.831367 -0.344809
C47   C     C_3   0.240130 0.384311 0.800699 -0.869860
H39   H     H_    0.244224 0.350268 0.708566 0.261173
H40   H     H_    0.236432 0.320046 0.852515 0.245251
H41   H     H_    0.185522 0.428504 0.818763 0.248820
H42   H     H_    0.304780 0.490179 0.923990 0.211253
H43   H     H_    0.310892 0.525705 0.785980 0.241659
H44   H     H_    0.397367 0.376096 0.709275 0.239068
H45   H     H_    0.385544 0.324437 0.831993 0.150377
C48   C     C_3   0.628752 0.544781 0.173504 -0.349153
C49   C     C_3   0.647593 0.655549 0.238337 -0.319662
C50   C     C_3   0.736228 0.681416 0.236264 -0.887458
H46   H     H_    0.767077 0.621279 0.270801 0.273651
H47   H     H_    0.759694 0.684661 0.147128 0.249344
H48   H     H_    0.748249 0.758865 0.289712 0.244381
H49   H     H_    0.618942 0.714525 0.198729 0.195203
H50   H     H_    0.625568 0.663310 0.328771 0.249362
H51   H     H_    0.649348 0.480325 0.211637 0.202871
H52   H     H_    0.668301 0.532887 0.094611 0.163940

loop_
_geom_bond_atom_site_label_1
_geom_bond_atom_site_label_2
_geom_bond_distance
_ccdc_geom_bond_type
C24   H9    1.083096 S    
C43   H32   1.110267 S    
C1    C20   1.454492 S    
C44   H36   1.110528 S    
O7    Cu2   1.919320 S    
C45   C46   1.546196 S    
C42   H24   1.110920 S    
C49   C50   1.526915 S    
O5    C3    1.308894 A    
C8    C40   1.525370 S    
C25   H8    1.084672 S    
O1    C1    1.307436 A    
C9    C11   1.395527 A    
C14   C16   1.385994 A    
C50   H47   1.110787 S    
C40   H30   1.111618 S    
C5    C15   1.400280 A    
C34   C36   1.430892 A    
C46   H42   1.108715 S    
C31   H14   1.080103 S    
C37   H22   1.112956 S    
C2    C19   1.456093 S    
N1    C32   1.353636 A    
C49   H50   1.101894 S    
O4    Cu1   1.960963 S    
C19   C26   1.400069 A    
Cu1   N1    2.047646 S    
C3    C5    1.453295 S    
Cu2   N2    2.047645 S    
C4    C6    1.451056 S    
C38   H21   1.112169 S    
C48   C49   1.538960 S    
C17   N4    1.437893 S    
N2    C31   1.354461 A    
C45   H44   1.088808 S    
C42   H25   1.110937 S    
C38   C39   1.525877 S    
C11   C17   1.469812 S    
C35   C36   1.396733 A    
C44   H37   1.111187 S    
C12   C18   1.466804 S    
Cu1   Cu2   2.725372 S    
C25   C27   1.388102 A    
C20   C25   1.399109 A    
O2    C2    1.307829 A    
C34   C45   1.522887 S    
C26   C28   1.388901 A    
C29   C36   1.421354 A    
C30   C35   1.418308 A    
C29   C31   1.394037 A    
C6    C16   1.399463 A    
C30   C32   1.393929 A    
N3    C43   1.446297 S    
C39   H17   1.111257 S    
C41   C42   1.526878 S    
O4    C2    1.306227 A    
C50   H48   1.110525 S    
C41   H28   1.111819 S    
N4    H35   1.030849 S    
N3    H31   1.031360 S    
C9    H6    1.084464 S    
C37   H23   1.106268 S    
C39   H18   1.109164 S    
C26   H7    1.084195 S    
C13   H3    1.083187 S    
C49   H49   1.111237 S    
C40   C41   1.536391 S    
C14   H4    1.083342 S    
N4    C44   1.448570 S    
C21   H11   1.083785 S    
C38   H20   1.111967 S    
O6    C4    1.307362 A    
N1    C34   1.400504 A    
O7    C3    1.302421 A    
C48   H51   1.097897 S    
O3    Cu2   1.960960 S    
O8    C4    1.302052 A    
C10   H5    1.081156 S    
C33   C48   1.525414 S    
C10   C12   1.401972 A    
C37   C38   1.533952 S    
C44   H38   1.110357 S    
C11   C13   1.397138 A    
C27   C28   1.413329 A    
C12   C14   1.393759 A    
O1    Cu1   1.959911 S    
C45   H45   1.110240 S    
C18   N3    1.427198 S    
C42   H26   1.110344 S    
C15   H2    1.083682 S    
C5    C7    1.418241 A    
O6    Cu2   1.946579 S    
C47   H40   1.110878 S    
C20   C23   1.403637 A    
O3    C1    1.305956 A    
O8    Cu1   1.919322 S    
C41   H27   1.111720 S    
C22   H12   1.083888 S    
C7    C37   1.516606 S    
C47   H39   1.106261 S    
C39   H19   1.111090 S    
C21   C28   1.398633 A    
C43   H33   1.111775 S    
C19   C24   1.403708 A    
C22   C27   1.398227 A    
C21   C23   1.389428 A    
C50   H46   1.110169 S    
C22   C24   1.389043 A    
C29   H15   1.078296 S    
C40   H29   1.112501 S    
C30   H16   1.081131 S    
C46   H43   1.107058 S    
C7    C9    1.398449 A    
C8    C10   1.407618 A    
C13   C15   1.389790 A    
O2    Cu2   1.959914 S    
C48   H52   1.110251 S    
C33   C35   1.426355 A    
N2    C33   1.401784 A    
O5    Cu1   1.946581 S    
C47   H41   1.110706 S    
C16   H1    1.084016 S    
C6    C8    1.413792 A    
C46   C47   1.525086 S    
C43   H34   1.109971 S    
C17   C18   1.358787 D    
C32   H13   1.081753 S    
C23   H10   1.083006 S    
