data_mof_unit_56410.cif
_audit_creation_date              2012-12-10T20:53:53-0500
_audit_creation_method            fapswitch 2.2
_symmetry_space_group_name_H-M    P1
_symmetry_Int_Tables_number       1
_space_group_crystal_system       triclinic
_cell_length_a                    10.326694
_cell_length_b                    15.849605
_cell_length_c                    15.059544
_cell_angle_alpha                 89.669942
_cell_angle_beta                  101.780063
_cell_angle_gamma                 90.009364
_cell_volume                      2412.90119315

loop_
_atom_site_label
_atom_site_type_symbol
_atom_type_description
_atom_site_fract_x
_atom_site_fract_y
_atom_site_fract_z
_atom_type_partial_charge
C1    C     C_R   0.500011 0.338952 0.500259 0.955150
C2    C     C_1   0.500538 0.500268 0.192922 0.144656
C3    C     C_R   0.255649 0.497193 0.464047 0.841801
C4    C     C_R   0.744452 0.496681 0.535966 0.837898
C5    C     C_2   0.113389 0.480654 0.447824 0.164664
C6    C     C_2   0.886618 0.478596 0.552140 0.169836
C7    C     C_2   0.071111 0.418998 0.497449 0.390613
C8    C     C_2   0.927940 0.419105 0.500025 0.397849
C9    C     C_R   0.606882 0.955179 0.549740 0.356987
C10   C     C_R   0.386019 0.045266 0.454066 0.356809
C11   C     C_R   0.497036 0.913182 0.498689 -0.257545
C12   C     C_R   0.499618 0.661114 0.499710 0.868775
C13   C     C_R   0.497061 0.087257 0.503683 -0.257818
C14   C     C_R   0.386954 0.957426 0.450097 0.344525
C15   C     C_R   0.607665 0.043060 0.551737 0.344361
C16   C     C_1   0.496953 0.824150 0.498263 0.103355
C17   C     C_1   0.498472 0.176143 0.502515 0.099593
C18   C     C_1   0.499302 0.250839 0.501105 -0.179052
C19   C     C_1   0.498060 0.749372 0.498837 -0.200748
C20   C     C_3   0.887764 0.321515 0.381096 -0.279856
C21   C     C_3   0.109876 0.315447 0.611630 -0.268728
C22   C     C_3   0.946590 0.605423 0.625828 0.076855
C23   C     C_R   0.380675 0.504627 0.936371 -0.357988
C24   C     C_3   0.068143 0.651544 0.676862 -0.795263
C25   C     C_3   0.055110 0.612777 0.385159 0.085235
C26   C     C_3   0.933240 0.662716 0.340336 -0.791400
C27   C     C_3   0.702708 0.117966 0.678097 0.132404
C28   C     C_3   0.837101 0.130189 0.740344 -0.814705
C29   C     C_3   0.300553 0.889825 0.317974 0.120595
C30   C     C_3   0.169842 0.867043 0.256107 -0.818028
C31   C     C_3   0.702279 0.884478 0.678974 0.134797
C32   C     C_3   0.800928 0.814566 0.713091 -0.837490
C33   C     C_3   0.280413 0.120449 0.329625 0.137069
C34   C     C_R   0.619271 0.496049 0.063679 -0.358256
C35   C     C_3   0.194145 0.198841 0.308799 -0.827942
C36   C     C_3   0.207542 0.430629 0.064832 0.066893
C37   C     C_3   0.097408 0.435893 0.118129 -0.772862
C38   C     C_3   0.791780 0.570817 0.935443 0.070417
C39   C     C_3   0.905271 0.565603 0.885172 -0.782321
C40   C     C_R   0.499967 0.500125 0.905069 -0.098798
C41   C     C_R   0.500005 0.500428 0.094964 -0.098949
C42   C     C_R   0.620055 0.496806 0.969770 0.506377
C43   C     C_R   0.379932 0.503961 0.030307 0.506987
C44   C     C_1   0.499449 0.499975 0.807087 0.143508
H1    H     H_    0.287532 0.508599 0.887927 0.177995
H2    H     H_    0.915200 0.636218 0.558093 0.132479
H3    H     H_    0.150456 0.645516 0.639941 0.255865
H4    H     H_    0.045242 0.719423 0.682594 0.211255
H5    H     H_    0.099718 0.624283 0.746023 0.255009
H6    H     H_    0.134068 0.623048 0.345876 0.163738
H7    H     H_    0.088482 0.637231 0.455414 0.131562
H8    H     H_    0.851547 0.651356 0.376844 0.254644
H9    H     H_    0.956218 0.731152 0.342429 0.210795
H10   H     H_    0.900732 0.643093 0.268546 0.251450
H11   H     H_    0.642293 0.076158 0.713509 0.093355
H12   H     H_    0.712412 0.492163 0.112133 0.179415
H13   H     H_    0.653712 0.180568 0.666965 0.154281
H14   H     H_    0.898306 0.173986 0.708317 0.254764
H15   H     H_    0.824223 0.157242 0.805852 0.202808
H16   H     H_    0.888953 0.068602 0.753576 0.256464
H17   H     H_    0.365033 0.833035 0.326031 0.150419
H18   H     H_    0.348140 0.940326 0.283909 0.097402
H19   H     H_    0.102464 0.922439 0.246761 0.257989
H20   H     H_    0.187275 0.847285 0.188892 0.204220
H21   H     H_    0.122622 0.814186 0.286227 0.253225
H22   H     H_    0.601291 0.859521 0.679064 0.121168
H23   H     H_    0.924518 0.365204 0.333756 0.186796
H24   H     H_    0.722614 0.937959 0.727044 0.141122
H25   H     H_    0.903331 0.838080 0.717524 0.260000
H26   H     H_    0.789545 0.793147 0.781425 0.200089
H27   H     H_    0.783091 0.760286 0.665902 0.247576
H28   H     H_    0.242383 0.072096 0.277817 0.147497
H29   H     H_    0.382959 0.137950 0.323547 0.113504
H30   H     H_    0.229121 0.248422 0.359938 0.261813
H31   H     H_    0.199137 0.223720 0.240486 0.198356
H32   H     H_    0.089758 0.183067 0.310104 0.253028
H33   H     H_    0.282663 0.384843 0.100836 0.130129
H34   H     H_    0.807584 0.283208 0.340145 0.190142
H35   H     H_    0.165468 0.406536 0.995682 0.148154
H36   H     H_    0.019436 0.480438 0.084579 0.266014
H37   H     H_    0.052567 0.372622 0.121908 0.201848
H38   H     H_    0.137993 0.458114 0.188126 0.264552
H39   H     H_    0.830350 0.596104 0.004603 0.146137
H40   H     H_    0.716917 0.615546 0.897181 0.129880
H41   H     H_    0.868856 0.540211 0.816003 0.265377
H42   H     H_    0.947271 0.629430 0.879391 0.203970
H43   H     H_    0.984348 0.523556 0.922150 0.267786
H44   H     H_    0.966813 0.277223 0.413836 0.176049
H45   H     H_    0.029659 0.273106 0.577135 0.176835
H46   H     H_    0.074514 0.356829 0.661136 0.185822
H47   H     H_    0.189393 0.274847 0.650476 0.190341
H48   H     H_    0.866590 0.611308 0.664823 0.156905
N1    N     N_1   0.499960 0.500020 0.270540 -0.082855
N2    N     N_1   0.500040 0.499980 0.729460 -0.083590
O1    O     O_R   0.500000 0.378020 0.573650 -0.593099
O2    O     O_3   0.163138 0.363441 0.548502 -0.629428
O3    O     O_3   0.979477 0.519766 0.617926 -0.643833
O4    O     O_3   0.021507 0.526416 0.385107 -0.645965
O5    O     O_3   0.721290 0.084478 0.594702 -0.554651
O6    O     O_3   0.276571 0.915599 0.402962 -0.557529
O7    O     O_3   0.718013 0.910548 0.591855 -0.551101
O8    O     O_3   0.271990 0.089464 0.416522 -0.550104
O9    O     O_3   0.261543 0.511828 0.058866 -0.612161
O10   O     O_3   0.738611 0.489377 0.941361 -0.609969
O11   O     O_R   0.500000 0.621980 0.426350 -0.612735
O12   O     O_R   0.500060 0.378020 0.426320 -0.594851
O13   O     O_R   0.499940 0.621980 0.573680 -0.615636
O14   O     O_R   0.317790 0.500010 0.546150 -0.567298
O15   O     O_R   0.682210 0.499990 0.453850 -0.564341
O16   O     O_R   0.317850 0.500010 0.398830 -0.618031
O17   O     O_R   0.682150 0.499990 0.601170 -0.617394
O18   O     O_3   0.835048 0.366431 0.446199 -0.623702
Zn1   Zn    Zn3+2 0.499960 0.500000 0.598370 0.993339
Zn2   Zn    Zn3+2 0.500040 0.500000 0.401630 0.994649

loop_
_geom_bond_atom_site_label_1
_geom_bond_atom_site_label_2
_ccdc_geom_bond_type
C31   H22   S    
C4    O15   A    
C35   H30   S    
C34   H12   S    
C23   H1    S    
C30   H20   S    
C38   H39   S    
C20   H23   S    
C34   C42   A    
C39   H43   S    
C7    C8    S    
C21   H45   S    
C7    O2    S    
C27   O5    S    
C1    C18   S    
O12   Zn2   S    
C36   O9    S    
C31   O7    S    
C36   C37   S    
C36   H33   S    
C8    O18   S    
C12   O11   A    
C11   C14   A    
C27   H11   S    
C3    O16   A    
C23   C40   A    
C23   C43   A    
C25   H6    S    
O13   Zn1   S    
C38   O10   S    
C33   H28   S    
C20   O18   S    
O16   Zn2   S    
C1    O12   A    
C40   C42   A    
C22   O3    S    
C30   H19   S    
C41   C43   A    
C37   H37   S    
C34   C41   A    
C26   H10   S    
N2    Zn1   S    
C32   H27   S    
C21   H46   S    
C28   H16   S    
C31   H24   S    
C37   H36   S    
C29   H17   S    
C35   H32   S    
C33   O8    S    
C24   H4    S    
C6    O3    S    
O11   Zn2   S    
C10   O8    S    
C4    C6    S    
C10   C14   A    
C5    C7    D    
C6    C8    D    
C25   C26   S    
C36   H35   S    
O14   Zn1   S    
C25   H7    S    
C29   C30   S    
C26   H8    S    
C11   C16   S    
C31   C32   S    
C1    O1    A    
C35   H31   S    
C17   C18   T    
O17   Zn1   S    
C9    C11   A    
O15   Zn2   S    
C33   H29   S    
C22   H2    S    
C4    O17   A    
C13   C15   A    
C27   H13   S    
C22   C24   S    
C37   H38   S    
C39   H41   S    
C26   H9    S    
C21   H47   S    
C28   H15   S    
C24   H5    S    
C29   H18   S    
C29   O6    S    
C38   H40   S    
C24   H3    S    
C2    N1    T    
C15   O5    S    
C3    C5    S    
C10   C13   A    
C42   O10   S    
C12   O13   A    
C32   H26   S    
C14   O6    S    
C32   H25   S    
C21   O2    S    
C28   H14   S    
C3    O14   A    
C20   H34   S    
C9    C15   A    
C38   C39   S    
O1    Zn1   S    
C16   C19   T    
C20   H44   S    
C12   C19   S    
C33   C35   S    
N1    Zn2   S    
C43   O9    S    
C30   H21   S    
C44   N2    T    
C13   C17   S    
C25   O4    S    
C40   C44   S    
C5    O4    S    
C9    O7    S    
C27   C28   S    
C22   H48   S    
C2    C41   S    
C39   H42   S    
