data_mof_unit_29144.cif
_audit_creation_date              2012-10-26T19:35:16-0400
_audit_creation_method            fapswitch 2.2
_symmetry_space_group_name_H-M    P1
_symmetry_Int_Tables_number       1
_space_group_crystal_system       triclinic
_cell_length_a                    10.778316
_cell_length_b                    10.814112
_cell_length_c                    9.529502
_cell_angle_alpha                 90.21
_cell_angle_beta                  91.291006
_cell_angle_gamma                 89.791284
_cell_volume                      1110.44244572

loop_
_atom_site_label
_atom_site_type_symbol
_atom_type_description
_atom_site_fract_x
_atom_site_fract_y
_atom_site_fract_z
_atom_type_partial_charge
C1    C     C_R   0.506496 0.262211 0.499533 0.533472
C2    C     C_R   0.550452 0.932202 0.377290 -0.169110
C3    C     C_R   0.521303 0.870008 0.501247 -0.011188
C4    C     C_R   0.262506 0.500098 0.498192 0.534770
C5    C     C_R   0.518249 0.937057 0.626138 0.012844
C6    C     C_3   0.430336 0.933114 0.744863 -0.265877
C7    C     C_3   0.433804 0.073669 0.744580 -0.263673
C8    C     C_R   0.557226 0.592748 0.075378 0.153430
C9    C     C_R   0.432792 0.416046 0.072430 0.019483
C10   C     C_R   0.432901 0.415924 0.923414 0.021438
C11   C     C_R   0.556978 0.592856 0.927956 0.152230
C12   C     C_R   0.071063 0.380296 0.537951 0.021138
C13   C     C_3   0.690637 0.627301 0.924877 -0.270617
C14   C     C_3   0.691247 0.626681 0.084224 -0.273278
C15   C     C_R   0.503825 0.737595 0.500365 0.546931
C16   C     C_R   0.737427 0.489778 0.502346 0.542050
C17   C     C_R   0.140111 0.270443 0.559002 -0.110388
C18   C     C_R   0.083298 0.163909 0.606269 -0.142139
C19   C     C_R   0.960179 0.167845 0.645077 -0.118387
C20   C     C_R   0.890198 0.276488 0.629432 -0.012748
C21   C     C_R   0.941401 0.381115 0.560211 0.007006
C22   C     C_1   0.782857 0.283093 0.716201 0.200829
C23   C     C_R   0.129145 0.489383 0.493634 0.011036
C24   C     C_1   0.583421 0.119552 0.243455 0.211823
C25   C     C_R   0.059906 0.591340 0.449479 -0.154003
C26   C     C_R   0.932036 0.587701 0.453005 -0.153536
C27   C     C_R   0.871932 0.485429 0.509280 -0.002092
C28   C     C_R   0.520502 0.063926 0.624861 0.025697
C29   C     C_R   0.525783 0.128901 0.498649 -0.009700
C30   C     C_R   0.554125 0.061401 0.374914 -0.046048
Cu1   Cu    Cu3+1 0.499990 0.499980 0.640670 0.958257
Cu2   Cu    Cu3+1 0.500010 0.500020 0.359330 0.954215
H1    H     H_    0.105163 0.673926 0.412195 0.116460
H2    H     H_    0.705809 0.719827 0.131340 0.117524
H3    H     H_    0.237785 0.265379 0.535871 0.117677
H4    H     H_    0.136492 0.079552 0.619818 0.107947
H5    H     H_    0.921186 0.087243 0.694896 0.117302
H6    H     H_    0.879343 0.666722 0.414547 0.117568
H7    H     H_    0.565230 0.880905 0.281033 0.132061
H8    H     H_    0.338235 0.894693 0.713313 0.135462
H9    H     H_    0.473562 0.891903 0.840944 0.143835
H10   H     H_    0.343763 0.117201 0.714468 0.121473
H11   H     H_    0.479805 0.113170 0.840137 0.171875
H12   H     H_    0.380452 0.346592 0.126789 0.122939
H13   H     H_    0.380601 0.346408 0.865872 0.113892
H14   H     H_    0.749839 0.553429 0.879876 0.171325
H15   H     H_    0.704170 0.720899 0.879987 0.125248
H16   H     H_    0.750723 0.552196 0.129872 0.170654
N1    N     N_R   0.500790 0.500930 0.147930 -0.226754
N2    N     N_R   0.500790 0.500890 0.852020 -0.219802
N3    N     N_1   0.700046 0.286007 0.791288 -0.255703
N4    N     N_1   0.607264 0.165531 0.137982 -0.301441
O1    O     O_R   0.500000 0.319640 0.618810 -0.490837
O2    O     O_R   0.500010 0.319680 0.381230 -0.498460
O3    O     O_R   0.319640 0.499980 0.618820 -0.505479
O4    O     O_R   0.319650 0.500020 0.381230 -0.504842
O5    O     O_R   0.499990 0.680320 0.618770 -0.498802
O6    O     O_R   0.500000 0.680360 0.381190 -0.508630
O7    O     O_R   0.680350 0.499980 0.618770 -0.496199
O8    O     O_R   0.680360 0.500020 0.381180 -0.500159

loop_
_geom_bond_atom_site_label_1
_geom_bond_atom_site_label_2
_ccdc_geom_bond_type
C12   C17   A    
C24   N4    T    
C14   H16   S    
C1    O2    A    
C14   H2    S    
C6    C7    S    
C7    H11   S    
C5    C28   A    
C15   O5    A    
C9    C10   A    
C19   C20   A    
Cu2   O6    S    
C2    C30   A    
Cu1   O5    S    
C16   C27   S    
C1    C29   S    
C17   C18   A    
C21   C27   A    
C3    C15   S    
C11   N2    A    
C13   C14   S    
Cu1   O1    S    
C11   C13   S    
C12   C23   A    
C26   C27   A    
C29   C30   A    
C10   H13   S    
C8    C11   A    
C12   C21   A    
Cu2   O2    S    
C28   C29   A    
C20   C22   S    
C2    C3    A    
C24   C30   S    
C23   C25   A    
C4    O3    A    
C5    C6    S    
C15   O6    A    
C6    H8    S    
Cu2   N1    S    
C8    N1    A    
Cu2   O8    S    
Cu1   N2    S    
C10   N2    A    
C17   H3    S    
C9    N1    A    
C20   C21   A    
C18   C19   A    
C16   O8    A    
C7    H10   S    
Cu1   O7    S    
C13   H15   S    
C4    C23   S    
C1    O1    A    
C13   H14   S    
C26   H6    S    
C9    H12   S    
C8    C14   S    
C19   H5    S    
Cu1   O3    S    
C25   C26   A    
C16   O7    A    
C18   H4    S    
C2    H7    S    
Cu2   O4    S    
C4    O4    A    
C7    C28   S    
Cu1   Cu2   S    
C25   H1    S    
C22   N3    T    
C3    C5    A    
C6    H9    S    
