data_mof_unit_33410.cif
_audit_creation_date              2012-12-11T17:23:14-0500
_audit_creation_method            fapswitch 2.2
_symmetry_space_group_name_H-M    P1
_symmetry_Int_Tables_number       1
_space_group_crystal_system       triclinic
_cell_length_a                    8.339042
_cell_length_b                    16.478737
_cell_length_c                    26.954318
_cell_angle_alpha                 96.509783
_cell_angle_beta                  92.481418
_cell_angle_gamma                 86.518865
_cell_volume                      3670.82989261

loop_
_atom_site_label
_atom_site_type_symbol
_atom_type_description
_atom_site_fract_x
_atom_site_fract_y
_atom_site_fract_z
_atom_type_partial_charge
Ba1   Ba    Ba6+2 0.851940 0.461560 0.523510 1.669105
Ba2   Ba    Ba6+2 0.337880 0.538370 0.476480 1.651314
C1    C     C_3   0.657130 0.166745 0.649158 -0.386820
C2    C     C_R   0.898509 0.569847 0.176678 0.577992
C3    C     C_2   0.747789 0.525574 0.269807 -0.078758
C4    C     C_3   0.104275 0.278045 0.660730 0.271824
C5    C     C_3   0.704620 0.520451 0.323348 -0.042753
C6    C     C_1   0.984049 0.486017 0.342800 0.041839
C7    C     C_2   0.024356 0.483250 0.295178 -0.108757
C8    C     C_2   0.900583 0.505132 0.255425 0.195342
C9    C     C_R   0.017621 0.499468 0.100993 -0.078495
C10   C     C_R   0.062302 0.432664 0.127912 -0.035956
C11   C     C_R   0.144238 0.364054 0.103280 -0.057448
C12   C     C_3   0.672576 0.251663 0.633260 0.333908
C13   C     C_R   0.935308 0.568456 0.125762 -0.032663
C14   C     C_2   0.850142 0.525313 0.358267 -0.289941
C15   C     C_2   0.363081 0.493936 0.640802 -0.193458
C16   C     C_3   0.046547 0.255499 0.710193 -0.432270
C17   C     C_R   0.171440 0.424050 0.972835 0.020370
C18   C     C_R   0.047637 0.563636 0.971365 0.020085
C19   C     C_R   0.128076 0.492821 0.946580 0.051500
C20   C     C_R   0.248586 0.354672 0.945973 -0.098416
C21   C     C_R   0.283946 0.353365 0.895794 -0.058690
C22   C     C_R   0.244510 0.421056 0.869697 -0.028988
C23   C     C_3   0.576761 0.671021 0.633873 0.228888
C24   C     C_R   0.165950 0.490860 0.894958 -0.080471
C25   C     C_R   0.125845 0.558857 0.868629 -0.035189
C26   C     C_R   0.167090 0.556895 0.818034 0.618325
C27   C     C_R   0.282503 0.420268 0.818849 0.580534
C28   C     C_3   0.180344 0.289850 0.416571 0.296447
C29   C     C_2   0.448445 0.474488 0.729714 -0.055954
C30   C     C_3   0.502110 0.487218 0.678122 -0.023995
C31   C     C_1   0.217556 0.517787 0.656079 0.038832
C32   C     C_2   0.171534 0.510619 0.701911 -0.108362
C33   C     C_2   0.292292 0.488602 0.741910 0.179795
C34   C     C_3   0.665604 0.700999 0.682865 -0.249139
C35   C     C_R   0.136331 0.426659 0.024628 0.019583
C36   C     C_R   0.054633 0.497204 0.049275 0.050926
C37   C     C_R   0.009265 0.565500 0.022804 0.019699
C38   C     C_R   0.180574 0.361018 0.053065 -0.098237
C39   C     C_R   0.890719 0.634955 0.099137 -0.053086
C40   C     C_3   0.190782 0.197631 0.402663 -0.357501
C41   C     C_R   0.008696 0.630554 0.943513 -0.099557
C42   C     C_R   0.047002 0.628092 0.893559 -0.046928
C43   C     C_R   0.926469 0.633662 0.049058 -0.097942
C44   C     C_R   0.385238 0.266936 0.519307 -0.252682
C45   C     C_3   0.107442 0.700890 0.339823 0.262000
C46   C     C_R   0.526808 0.241433 0.495276 0.013198
C47   C     C_R   0.581129 0.158617 0.491554 -0.129585
C48   C     C_R   0.491837 0.100763 0.511941 0.243314
C49   C     C_R   0.345242 0.127605 0.534166 -0.178997
C50   C     C_R   0.291238 0.210306 0.537085 0.043703
C51   C     C_R   0.622192 0.852963 0.508223 -0.123710
C52   C     C_3   0.010247 0.710568 0.583539 0.304578
C53   C     C_R   0.670188 0.769720 0.504827 0.012084
C54   C     C_R   0.718776 0.909195 0.489030 0.247277
C55   C     C_R   0.812493 0.741404 0.482102 -0.316202
C56   C     C_3   0.054698 0.713531 0.286005 -0.211376
C57   C     C_R   0.913856 0.795632 0.465154 0.025775
C58   C     C_R   0.866408 0.879537 0.468031 -0.105161
C59   C     C_3   0.997113 0.802539 0.598620 -0.374763
C60   C     C_3   0.685228 0.349220 0.373652 0.300466
C61   C     C_3   0.715565 0.314508 0.319860 -0.357976
C62   C     C_2   0.643270 0.648278 0.723382 0.427976
C63   C     C_2   0.152033 0.773276 0.264372 0.559912
C64   C     C_2   0.720140 0.759970 0.364404 0.541367
C65   C     C_2   0.279294 0.291314 0.666336 0.399919
C66   C     C_3   0.543143 0.751452 0.358195 0.241093
C67   C     C_3   0.460173 0.830732 0.342554 -0.287214
C68   C     C_R   0.023348 0.435398 0.178848 0.594535
H1    H     H_    0.792612 0.255184 0.618450 0.082711
H2    H     H_    0.801150 0.366653 0.392072 0.024562
H3    H     H_    0.599782 0.403587 0.374130 0.038518
H4    H     H_    0.684653 0.119821 0.617282 0.101281
H5    H     H_    0.792192 0.256884 0.319272 0.147672
H6    H     H_    0.778467 0.358094 0.300324 0.073384
H7    H     H_    0.599600 0.301587 0.299529 0.126377
H8    H     H_    0.583169 0.258922 0.602378 0.065963
H9    H     H_    0.532712 0.159833 0.660372 0.111712
H10   H     H_    0.450899 0.658820 0.641238 -0.008830
H11   H     H_    0.639291 0.613756 0.617176 0.050737
H12   H     H_    0.269432 0.181563 0.370378 0.140494
H13   H     H_    0.619541 0.764104 0.696095 0.088771
H14   H     H_    0.795635 0.703140 0.675977 0.137859
H15   H     H_    0.741569 0.155676 0.680873 0.131541
H16   H     H_    0.079332 0.302418 0.741318 0.121392
H17   H     H_    0.233101 0.678152 0.341018 0.097218
H18   H     H_    0.032057 0.653380 0.350605 0.010383
H19   H     H_    0.070622 0.653994 0.262616 0.032968
H20   H     H_    0.925223 0.733201 0.284000 0.179423
H21   H     H_    0.494110 0.742824 0.394736 0.043132
H22   H     H_    0.492962 0.883913 0.369457 0.114698
H23   H     H_    0.241481 0.166198 0.434470 0.054399
H24   H     H_    0.328807 0.828559 0.342942 0.133401
H25   H     H_    0.039242 0.335903 0.653052 0.101463
H26   H     H_    0.494995 0.841008 0.304522 0.151968
H27   H     H_    0.146914 0.465970 0.284832 0.136115
H28   H     H_    0.181121 0.311734 0.122885 0.126966
H29   H     H_    0.539485 0.461923 0.758282 0.113915
H30   H     H_    0.343529 0.298512 0.877430 0.122041
H31   H     H_    0.283287 0.299469 0.962451 0.070859
H32   H     H_    0.244729 0.305831 0.037837 0.072251
H33   H     H_    0.652926 0.538202 0.242420 0.113749
H34   H     H_    0.068959 0.175794 0.392549 0.132144
H35   H     H_    0.826995 0.688957 0.117032 0.133325
H36   H     H_    0.949095 0.686776 0.959138 0.072237
H37   H     H_    0.014439 0.681444 0.874425 0.129609
H38   H     H_    0.047609 0.525200 0.711616 0.171151
H39   H     H_    0.886021 0.687630 0.032082 0.074042
H40   H     H_    0.843945 0.558286 0.395445 0.074480
H41   H     H_    0.388086 0.485125 0.601302 0.085893
H42   H     H_    0.512324 0.873472 0.526933 0.110684
H43   H     H_    0.272674 0.084001 0.548688 0.095728
H44   H     H_    0.690193 0.139665 0.472027 0.123316
H45   H     H_    0.888999 0.688707 0.574060 -0.003731
H46   H     H_    0.942797 0.921360 0.453424 0.105513
H47   H     H_    0.343303 0.330648 0.521585 0.085099
H48   H     H_    0.914569 0.253422 0.709039 0.156597
H49   H     H_    0.848138 0.676856 0.479600 0.068539
H50   H     H_    0.100898 0.194885 0.718193 0.128793
H51   H     H_    0.302452 0.310729 0.425947 0.011144
H52   H     H_    0.102875 0.304294 0.449266 0.055946
H53   H     H_    0.524494 0.644614 0.737621 0.005807
H54   H     H_    0.277118 0.757456 0.256376 0.007384
H55   H     H_    0.793634 0.709505 0.376870 -0.133963
H56   H     H_    0.087625 0.697586 0.550744 0.061246
H57   H     H_    0.352772 0.269457 0.696841 0.073372
H58   H     H_    0.918794 0.816858 0.631115 0.128972
H59   H     H_    0.944909 0.835058 0.567510 0.054387
H60   H     H_    0.118268 0.825104 0.608903 0.129418
N1    N     N_R   0.942550 0.503716 0.203002 -0.424896
N2    N     N_R   0.245001 0.488080 0.793535 -0.426591
N3    N     N_2   0.540382 0.015559 0.509633 -0.231712
N4    N     N_2   0.673699 0.994947 0.490938 -0.224580
O1    O     O_2   0.915540 0.542930 0.617950 -0.475876
O2    O     O_2   0.251700 0.789499 0.458973 -0.498499
O3    O     O_3   0.091982 0.774007 0.372111 -0.569922
O4    O     O_3   0.147530 0.542870 0.557780 -0.490147
O5    O     O_3   0.552080 0.402920 0.475380 -0.484460
O6    O     O_2   0.387280 0.697260 0.523450 -0.449828
O7    O     O_3   0.573608 0.734657 0.603428 -0.636689
O8    O     O_2   0.378591 0.549998 0.326414 -0.502328
O9    O     O_3   0.513835 0.685678 0.321180 -0.628796
O10   O     O_2   0.059046 0.376143 0.201351 -0.592038
O11   O     O_2   0.348582 0.358978 0.797097 -0.609540
O12   O     O_3   0.618111 0.288934 0.397236 -0.629712
O13   O     O_2   0.827793 0.630458 0.197613 -0.599109
O14   O     O_2   0.136035 0.617230 0.796096 -0.573061
O15   O     O_3   0.664390 0.396160 0.588360 -0.487037
O16   O     O_2   0.828286 0.435629 0.672937 -0.497455
O17   O     O_3   0.077295 0.673351 0.624135 -0.627512
O18   O     O_3   0.647357 0.312335 0.673961 -0.585437
O19   O     O_2   0.802410 0.302720 0.476520 -0.465853
O20   O     O_3   0.070880 0.354870 0.564040 -0.469584
O21   O     O_2   0.958903 0.208479 0.529838 -0.497207
O22   O     O_2   0.758009 0.610528 0.741240 -0.551301
O23   O     O_3   0.073730 0.214877 0.622201 -0.618438
O24   O     O_2   0.090945 0.839119 0.254733 -0.525441
O25   O     O_2   0.782036 0.822033 0.355807 -0.564595
O26   O     O_2   0.340671 0.326463 0.635492 -0.652723
O27   O     O_2   0.274150 0.457040 0.382020 -0.452717
O28   O     O_3   0.042160 0.457070 0.442220 -0.497650
O29   O     O_3   0.525310 0.603770 0.411640 -0.483712
O30   O     O_3   0.115488 0.326594 0.375433 -0.624647
O31   O     O_3   0.637620 0.597020 0.524620 -0.481762
O32   O     O_3   0.118810 0.645070 0.435950 -0.496405
P1    P     P_3+3 0.086060 0.566890 0.610430 1.006046
P2    P     P_3+3 0.625290 0.314770 0.461990 0.990263
P3    P     P_3+3 0.096434 0.247506 0.562818 0.980724
P4    P     P_3+3 0.103630 0.433040 0.389570 0.996695
P5    P     P_3+3 0.097963 0.751617 0.434493 0.977525
P6    P     P_3+3 0.660212 0.409383 0.653543 1.025301
P7    P     P_3+3 0.569761 0.699538 0.539584 0.960178
P8    P     P_3+3 0.534106 0.590789 0.346192 0.928241

loop_
_geom_bond_atom_site_label_1
_geom_bond_atom_site_label_2
_ccdc_geom_bond_type
C6    C7    D    
O7    P7    S    
C19   C24   A    
C3    H33   S    
C23   O7    S    
C23   H10   S    
C1    H15   S    
O15   P6    S    
C12   H1    S    
O30   P4    S    
C40   H12   S    
C28   O30   S    
C67   H26   S    
C1    H9    S    
Ba2   O28   S    
C14   H40   S    
O8    P8    D    
C52   H56   S    
C24   C25   A    
C16   H16   S    
C20   H31   S    
C39   H35   S    
Ba2   O5    S    
C17   C19   A    
C22   C24   A    
C32   C33   S    
C35   C38   A    
C27   O11   D    
C36   C37   A    
O18   P6    S    
C43   H39   S    
C55   C57   A    
C27   N2    Am   
C61   H6    S    
Ba1   P1    S    
C34   H13   S    
O31   P7    S    
C40   H23   S    
C5    P8    S    
C44   C50   A    
C66   H21   S    
C66   O9    S    
Ba1   Ba2   S    
C63   H54   S    
C11   H28   S    
C1    H4    S    
C22   C27   A    
C53   P7    S    
C11   C38   A    
C10   C68   A    
C17   C35   A    
O23   P3    S    
C8    N1    S    
C9    C13   A    
C25   C42   A    
O16   P6    D    
C28   H52   S    
O6    P7    D    
O28   P4    S    
C21   C22   A    
C28   H51   S    
C60   H3    S    
Ba1   O15   S    
C65   O26   D    
C29   H29   S    
C67   H22   S    
C7    C8    S    
Ba2   O32   S    
Ba1   O5    S    
C59   H59   S    
C37   C43   A    
C34   C62   S    
C47   H44   S    
C30   P6    S    
O32   P5    S    
C6    C14   D    
C23   H11   S    
C31   P1    S    
Ba1   O20   S    
C15   C31   D    
C57   P5    S    
C15   H41   S    
Ba2   O27   S    
C64   O25   D    
C6    P4    S    
C31   C32   D    
C2    N1    Am   
C51   C53   A    
C4    C16   S    
C44   C46   A    
C26   O14   D    
C64   C66   S    
C49   C50   A    
Ba2   O4    S    
C17   C20   A    
C13   C39   A    
C67   H24   S    
C3    C5    S    
C18   C37   A    
C66   C67   S    
Ba1   P2    S    
C2    O13   D    
C54   C58   A    
O20   P3    S    
O4    P1    S    
C26   N2    Am   
C41   H36   S    
C45   H17   S    
C50   P3    S    
C9    C36   A    
C41   C42   A    
C35   C36   A    
C65   H57   S    
C42   H37   S    
O21   P3    D    
C56   C63   S    
C29   C30   S    
C46   P2    S    
O2    P5    D    
Ba1   O31   S    
C52   H45   S    
C45   O3    S    
C60   C61   S    
C48   C49   A    
C60   H2    S    
C49   H43   S    
C10   C11   A    
Ba1   O19   S    
C56   H20   S    
Ba2   O31   S    
C1    C12   S    
C59   H60   S    
Ba2   P4    S    
O27   P4    D    
C51   H42   S    
C46   C47   A    
Ba1   O28   S    
C47   C48   A    
C53   C55   A    
O19   P2    D    
N3    N4    D    
C29   C33   D    
C58   H46   S    
C16   H50   S    
C4    O23   S    
C61   H7    S    
C51   C54   A    
O12   P2    S    
C4    C65   S    
C7    H27   S    
C5    C14   S    
C63   O24   D    
C48   N3    S    
C40   H34   S    
Ba2   O29   S    
C54   N4    S    
C9    C10   A    
C52   O17   S    
C52   C59   S    
C62   H53   S    
C62   O22   D    
C68   O10   D    
C64   H55   S    
C55   H49   S    
Ba2   O6    S    
C45   H18   S    
C2    C13   A    
C32   H38   S    
C3    C8    D    
C39   C43   A    
C45   C56   S    
C16   H48   S    
C61   H5    S    
C34   H14   S    
O17   P1    S    
C68   N1    Am   
C21   H30   S    
C59   H58   S    
C12   H8    S    
O5    P2    S    
C56   H19   S    
C18   C41   A    
O3    P5    S    
C23   C34   S    
C38   H32   S    
C57   C58   A    
C18   C19   A    
C44   H47   S    
C4    H25   S    
C60   O12   S    
C12   O18   S    
C25   C26   A    
C15   C30   S    
O1    P1    D    
C20   C21   A    
C28   C40   S    
O9    P8    S    
Ba1   O1    S    
O29   P8    S    
C33   N2    S    
Ba1   O4    S    
