data_mof_unit_58117.cif
_audit_creation_date              2012-10-26T21:00:44-0400
_audit_creation_method            fapswitch 2.2
_symmetry_space_group_name_H-M    P1
_symmetry_Int_Tables_number       1
_space_group_crystal_system       triclinic
_cell_length_a                    10.833358
_cell_length_b                    9.540503
_cell_length_c                    10.81142
_cell_angle_alpha                 90.124333
_cell_angle_beta                  90.832452
_cell_angle_gamma                 89.585272
_cell_volume                      1117.27212449

loop_
_atom_site_label
_atom_site_type_symbol
_atom_type_description
_atom_site_fract_x
_atom_site_fract_y
_atom_site_fract_z
_atom_type_partial_charge
C1    C     C_R   0.262421 0.500112 0.504095 0.650751
C2    C     C_R   0.494820 0.500351 0.737364 0.588495
C3    C     C_R   0.277719 0.610522 0.127121 0.417692
C4    C     C_R   0.281226 0.624787 0.869785 0.357100
C5    C     C_R   0.179479 0.671415 0.062248 -0.104294
C6    C     C_R   0.181644 0.679398 0.934479 -0.115142
C7    C     C_R   0.383864 0.563160 0.933251 -0.019664
C8    C     C_R   0.383017 0.558943 0.064613 -0.001173
C9    C     C_R   0.485614 0.498581 0.128601 0.033621
C10   C     C_R   0.485312 0.501049 0.870896 0.029128
C11   C     C_R   0.581472 0.434733 0.064348 -0.146380
C12   C     C_R   0.737801 0.499378 0.503857 0.514607
C13   C     C_R   0.580867 0.435078 0.936759 -0.122331
C14   C     C_R   0.066609 0.395424 0.578120 0.138588
C15   C     C_R   0.938159 0.394354 0.577129 0.115886
C16   C     C_R   0.871852 0.498561 0.510532 -0.001378
C17   C     C_R   0.128855 0.500350 0.511847 0.047329
C18   C     C_R   0.934756 0.606354 0.451496 -0.152776
C19   C     C_R   0.062299 0.607646 0.452676 -0.106279
C20   C     C_R   0.428779 0.074763 0.417094 0.444397
C21   C     C_R   0.569142 0.073686 0.584535 0.439997
C22   C     C_R   0.428383 0.926209 0.417441 0.454221
C23   C     C_R   0.570380 0.925223 0.583543 0.459891
C24   C     C_R   0.496399 0.499754 0.262406 0.604941
Cu1   Cu    Cu3+1 0.500000 0.640660 0.500000 1.194147
Cu2   Cu    Cu3+1 0.500000 0.359340 0.500000 1.108925
F1    F     F_    0.264893 0.596194 0.250330 -0.618704
F2    F     F_    0.273144 0.630998 0.745292 -0.650750
F3    F     F_    0.356227 0.144678 0.334397 -0.559490
F4    F     F_    0.635599 0.142158 0.672321 -0.599602
F5    F     F_    0.355294 0.857409 0.335159 -0.546555
F6    F     F_    0.641894 0.855365 0.667164 -0.564821
H1    H     H_    0.658559 0.386387 0.113552 0.131285
H2    H     H_    0.835393 0.218544 0.584265 0.295787
H3    H     H_    0.657273 0.386318 0.888849 0.154982
H4    H     H_    0.099913 0.710453 0.111467 0.154500
H5    H     H_    0.104058 0.725580 0.884714 0.170475
H6    H     H_    0.885122 0.688375 0.402054 0.149223
H7    H     H_    0.108833 0.691167 0.404738 0.214205
H8    H     H_    0.175665 0.221243 0.590994 0.267932
H9    H     H_    0.196010 0.340280 0.708007 0.253656
H10   H     H_    0.812128 0.334156 0.703550 0.265617
N1    N     N_R   0.500000 0.852070 0.500000 -0.304520
N2    N     N_R   0.500000 0.147940 0.500000 -0.308459
N3    N     N_3   0.131142 0.291188 0.650269 -0.555512
N4    N     N_3   0.877839 0.287555 0.646413 -0.524762
O1    O     O_R   0.319640 0.618740 0.499990 -0.391316
O2    O     O_R   0.680360 0.618740 0.500010 -0.485165
O3    O     O_R   0.319620 0.381170 0.499990 -0.490903
O4    O     O_R   0.680380 0.381170 0.500010 -0.511210
O5    O     O_R   0.500000 0.618810 0.319650 -0.437976
O6    O     O_R   0.500000 0.618810 0.680350 -0.406098
O7    O     O_R   0.499970 0.381240 0.319640 -0.455763
O8    O     O_R   0.500030 0.381240 0.680360 -0.476351

loop_
_geom_bond_atom_site_label_1
_geom_bond_atom_site_label_2
_ccdc_geom_bond_type
C7    C10   A    
C12   O4    A    
Cu1   O5    S    
C9    C24   S    
H2    N4    S    
C21   N2    A    
C11   C13   A    
C21   F4    S    
Cu1   O1    S    
C1    C17   S    
C22   N1    A    
C14   C17   A    
C12   O2    A    
C23   F6    S    
Cu1   N1    S    
C24   O5    A    
C3    F1    S    
C18   H6    S    
C6    H5    S    
Cu2   N2    S    
C7    C8    A    
Cu1   Cu2   S    
C9    C11   A    
Cu1   O2    S    
C5    C6    A    
C2    O6    A    
C4    C7    A    
Cu2   O8    S    
C4    C6    A    
C4    F2    S    
C20   C22   A    
C13   H3    S    
C14   N3    S    
C20   F3    S    
Cu2   O4    S    
C21   C23   A    
H10   N4    S    
H8    N3    S    
Cu1   O6    S    
C22   F5    S    
C19   H7    S    
C17   C19   A    
C15   C16   A    
C2    C10   S    
C5    H4    S    
C11   H1    S    
Cu2   O7    S    
C23   N1    A    
C3    C8    A    
C16   C18   A    
C18   C19   A    
C2    O8    A    
Cu2   O3    S    
H9    N3    S    
C14   C15   A    
C1    O1    A    
C15   N4    S    
C20   N2    A    
C24   O7    A    
C1    O3    A    
C12   C16   S    
C8    C9    A    
C3    C5    A    
C10   C13   A    
