data_mof_unit_64670.cif
_audit_creation_date              2012-12-11T15:44:57-0500
_audit_creation_method            fapswitch 2.2
_symmetry_space_group_name_H-M    P1
_symmetry_Int_Tables_number       1
_space_group_crystal_system       triclinic
_cell_length_a                    22.728433
_cell_length_b                    30.491993
_cell_length_c                    19.012911
_cell_angle_alpha                 89.999977
_cell_angle_beta                  123.84587
_cell_angle_gamma                 90.000163
_cell_volume                      10943.6921947

loop_
_atom_site_label
_atom_site_type_symbol
_atom_type_description
_atom_site_fract_x
_atom_site_fract_y
_atom_site_fract_z
_atom_type_partial_charge
C1    C     C_R   0.117633 0.383463 0.065622 0.422536
C2    C     C_R   0.117631 0.616538 0.065622 0.422430
C3    C     C_R   0.617633 0.883463 0.065622 0.422534
C4    C     C_R   0.617631 0.116538 0.065622 0.422428
C5    C     C_R   0.870248 0.387800 0.932931 -0.091968
C6    C     C_R   0.870249 0.612200 0.932931 -0.091732
C7    C     C_R   0.370245 0.887802 0.932930 -0.091955
C8    C     C_R   0.370246 0.112198 0.932930 -0.091721
C9    C     C_R   0.942910 0.610759 0.075346 -0.083815
C10   C     C_R   0.942910 0.389241 0.075346 -0.083581
C11   C     C_R   0.442908 0.110758 0.075346 -0.083816
C12   C     C_R   0.442908 0.889242 0.075346 -0.083583
C13   C     C_R   0.007348 0.500000 0.260274 0.070439
C14   C     C_R   0.507348 0.000000 0.260274 0.070439
C15   C     C_R   0.765045 0.500004 0.732062 0.072624
C16   C     C_R   0.265070 0.000004 0.732012 0.072638
C17   C     C_R   0.882721 0.369084 0.006559 0.064413
C18   C     C_R   0.882720 0.630915 0.006559 0.064400
C19   C     C_R   0.382717 0.869086 0.006558 0.064409
C20   C     C_R   0.382717 0.130913 0.006558 0.064395
C21   C     C_3   0.489545 0.540644 0.373700 -0.412936
C22   C     C_3   0.488308 0.458408 0.376031 -0.412183
C23   C     C_3   0.989554 0.040644 0.373632 -0.412928
C24   C     C_3   0.988319 0.958408 0.375964 -0.412189
C25   C     C_3   0.564252 0.458361 0.456417 -0.404011
C26   C     C_3   0.565586 0.540611 0.453977 -0.402810
C27   C     C_3   0.064274 0.958363 0.456334 -0.403988
C28   C     C_3   0.065603 0.040613 0.453898 -0.402802
C29   C     C_1   0.703177 0.500019 0.650424 0.064739
C30   C     C_1   0.203216 0.000019 0.650354 0.064792
C31   C     C_3   0.448510 0.500149 0.374067 0.120367
C32   C     C_3   0.948526 0.000148 0.374014 0.120353
C33   C     C_3   0.576778 0.500141 0.509639 0.111379
C34   C     C_3   0.076812 0.000141 0.509566 0.111371
C35   C     C_R   0.057029 0.611282 0.927160 -0.173339
C36   C     C_R   0.057030 0.388718 0.927161 -0.173211
C37   C     C_R   0.557029 0.111282 0.927160 -0.173339
C38   C     C_R   0.557030 0.888718 0.927161 -0.173210
C39   C     C_3   0.523206 0.501468 0.537299 0.445035
C40   C     C_3   0.023253 0.001464 0.537247 0.445027
C41   C     C_3   0.444751 0.501406 0.454460 0.446054
C42   C     C_3   0.944790 0.001405 0.454423 0.446068
C43   C     C_1   0.648087 0.500065 0.584020 0.036799
C44   C     C_1   0.148128 0.000065 0.583942 0.036784
C45   C     C_1   0.377370 0.500074 0.299276 0.023920
C46   C     C_1   0.877375 0.000073 0.299237 0.023918
C47   C     C_1   0.315301 0.500022 0.249079 0.062944
C48   C     C_1   0.815303 0.000022 0.249058 0.062947
C49   C     C_1   0.147973 0.672982 0.993555 0.082459
C50   C     C_1   0.147975 0.327019 0.993555 0.082424
C51   C     C_1   0.647975 0.172981 0.993555 0.082458
C52   C     C_1   0.647976 0.827020 0.993556 0.082424
C53   C     C_1   0.182569 0.703765 0.995444 0.039536
C54   C     C_1   0.182571 0.296235 0.995444 0.039487
C55   C     C_1   0.682571 0.203764 0.995445 0.039536
C56   C     C_1   0.682573 0.796237 0.995445 0.039487
C57   C     C_1   0.225383 0.739083 0.999779 0.023581
C58   C     C_1   0.225384 0.260918 0.999778 0.023597
C59   C     C_1   0.725386 0.239081 0.999780 0.023580
C60   C     C_1   0.725387 0.760919 0.999779 0.023598
C61   C     C_1   0.762628 0.268787 0.003890 0.027436
C62   C     C_1   0.762628 0.731213 0.003889 0.027552
C63   C     C_1   0.262624 0.768790 0.003889 0.027437
C64   C     C_1   0.262624 0.231210 0.003888 0.027552
C65   C     C_1   0.806235 0.303497 0.007887 0.032320
C66   C     C_1   0.806235 0.696503 0.007886 0.032494
C67   C     C_1   0.306230 0.803500 0.007885 0.032321
C68   C     C_1   0.306230 0.196500 0.007885 0.032494
C69   C     C_R   0.969407 0.463441 0.767992 0.388863
C70   C     C_R   0.969407 0.536559 0.767992 0.388796
C71   C     C_R   0.469407 0.963441 0.767992 0.388851
C72   C     C_R   0.469406 0.036559 0.767992 0.388784
C73   C     C_1   0.842276 0.333204 0.009198 -0.008349
C74   C     C_1   0.842275 0.666796 0.009198 -0.008134
C75   C     C_1   0.342271 0.833207 0.009196 -0.008346
C76   C     C_1   0.342270 0.166793 0.009196 -0.008132
C77   C     C_1   0.998588 0.500000 0.329870 -0.009908
C78   C     C_1   0.498588 0.000000 0.329870 -0.009914
C79   C     C_1   0.990264 0.500000 0.387411 0.031153
C80   C     C_1   0.490264 0.000000 0.387411 0.031148
C81   C     C_1   0.980480 0.500000 0.454875 0.029678
C82   C     C_1   0.480479 0.000000 0.454875 0.029673
C83   C     C_1   0.973223 0.500000 0.513252 0.019714
C84   C     C_1   0.473222 0.000000 0.513251 0.019709
C85   C     C_1   0.967161 0.500000 0.583574 0.037210
C86   C     C_1   0.467160 0.000000 0.583574 0.037205
C87   C     C_1   0.965389 0.500000 0.645980 0.170447
C88   C     C_1   0.465389 0.000000 0.645979 0.170443
C89   C     C_R   0.199699 0.535753 0.187520 -0.059207
C90   C     C_R   0.199705 0.464250 0.187524 -0.060811
C91   C     C_R   0.699699 0.035753 0.187518 -0.059213
C92   C     C_R   0.699705 0.964250 0.187522 -0.060817
C93   C     C_R   0.110387 0.364972 0.995147 -0.054404
C94   C     C_R   0.110385 0.635029 0.995147 -0.054400
C95   C     C_R   0.610387 0.864972 0.995147 -0.054406
C96   C     C_R   0.610385 0.135029 0.995146 -0.054401
C97   C     C_R   0.968991 0.500000 0.724328 -0.160822
C98   C     C_R   0.468990 0.000000 0.724328 -0.160815
C99   C     C_R   0.241258 0.500004 0.203440 0.012141
C100  C     C_R   0.741259 0.000004 0.203438 0.012161
C101  C     C_R   0.013739 0.463241 0.221773 -0.093468
C102  C     C_R   0.013739 0.536759 0.221773 -0.093393
C103  C     C_R   0.513739 0.963241 0.221773 -0.093473
C104  C     C_R   0.513739 0.036759 0.221773 -0.093398
C105  C     C_R   0.804315 0.536076 0.775569 -0.076382
C106  C     C_R   0.804312 0.463927 0.775559 -0.078078
C107  C     C_R   0.304330 0.036075 0.775541 -0.076368
C108  C     C_R   0.304328 0.963928 0.775532 -0.078061
H1    H     H_    0.491686 0.539874 0.316615 0.186023
H2    H     H_    0.490595 0.457470 0.319053 0.186051
H3    H     H_    0.991681 0.039871 0.316537 0.186019
H4    H     H_    0.990586 0.957469 0.318973 0.186047
H5    H     H_    0.460145 0.428200 0.374274 0.218065
H6    H     H_    0.462387 0.571640 0.370433 0.218079
H7    H     H_    0.960162 0.928199 0.374221 0.218065
H8    H     H_    0.962397 0.071638 0.370370 0.218074
H9    H     H_    0.572963 0.428153 0.493771 0.217038
H10   H     H_    0.575463 0.571658 0.489572 0.217109
H11   H     H_    0.072998 0.928153 0.493690 0.217037
H12   H     H_    0.075482 0.071658 0.489495 0.217112
H13   H     H_    0.032579 0.620075 0.861956 0.206545
H14   H     H_    0.032580 0.379925 0.861957 0.206594
H15   H     H_    0.532580 0.120075 0.861956 0.206546
H16   H     H_    0.532581 0.879925 0.861957 0.206595
H17   H     H_    0.216852 0.569277 0.197327 0.173483
H18   H     H_    0.216863 0.430728 0.197332 0.172830
H19   H     H_    0.716852 0.069277 0.197319 0.173478
H20   H     H_    0.716863 0.930728 0.197325 0.172826
H21   H     H_    0.017859 0.429691 0.242145 0.117384
H22   H     H_    0.017859 0.570309 0.242145 0.117372
H23   H     H_    0.517859 0.929691 0.242145 0.117383
H24   H     H_    0.517860 0.070309 0.242145 0.117371
H25   H     H_    0.794459 0.569734 0.753940 0.135593
H26   H     H_    0.794454 0.430271 0.753921 0.135065
H27   H     H_    0.294485 0.069733 0.753911 0.135622
H28   H     H_    0.294480 0.930272 0.753892 0.135096
H29   H     H_    0.831361 0.377770 0.868512 0.121764
H30   H     H_    0.831361 0.622230 0.868512 0.122217
H31   H     H_    0.331356 0.877775 0.868510 0.121773
H32   H     H_    0.331356 0.122226 0.868511 0.122224
H33   H     H_    0.970252 0.621263 0.140453 0.121458
H34   H     H_    0.970252 0.378737 0.140452 0.121487
H35   H     H_    0.470249 0.121262 0.140452 0.121456
H36   H     H_    0.470249 0.878738 0.140452 0.121485
H37   H     H_    0.604045 0.539758 0.435194 0.189759
H38   H     H_    0.602812 0.457280 0.437799 0.189897
H39   H     H_    0.104051 0.039762 0.435099 0.189755
H40   H     H_    0.102819 0.957286 0.437694 0.189894
N1    N     N_R   0.075400 0.419050 0.040930 -0.092689
N2    N     N_R   0.075400 0.580950 0.040930 -0.092833
N3    N     N_R   0.575400 0.919050 0.040930 -0.092689
N4    N     N_R   0.575400 0.080950 0.040930 -0.092833
N5    N     N_R   0.035610 0.578860 0.956800 -0.066184
N6    N     N_R   0.035610 0.421140 0.956800 -0.066197
N7    N     N_R   0.535610 0.078860 0.956800 -0.066183
N8    N     N_R   0.535610 0.921140 0.956800 -0.066196
N9    N     N_R   0.976800 0.476930 0.840160 -0.108464
N10   N     N_R   0.976800 0.523070 0.840160 -0.108478
N11   N     N_R   0.476800 0.976930 0.840160 -0.108464
N12   N     N_R   0.476800 0.023070 0.840160 -0.108478
N13   N     N_R   0.134210 0.520980 0.157560 -0.048435
N14   N     N_R   0.134210 0.479020 0.157560 -0.048207
N15   N     N_R   0.634210 0.020980 0.157560 -0.048436
N16   N     N_R   0.634210 0.979020 0.157560 -0.048208
N17   N     N_R   0.020160 0.476910 0.158980 -0.048736
N18   N     N_R   0.020160 0.523090 0.158980 -0.048737
N19   N     N_R   0.520160 0.976910 0.158980 -0.048735
N20   N     N_R   0.520160 0.023090 0.158980 -0.048735
N21   N     N_R   0.864590 0.520950 0.843300 -0.052471
N22   N     N_R   0.864590 0.479050 0.843300 -0.052219
N23   N     N_R   0.364590 0.020950 0.843300 -0.052479
N24   N     N_R   0.364590 0.979050 0.843300 -0.052227
N25   N     N_R   0.919150 0.419020 0.955970 -0.048159
N26   N     N_R   0.919150 0.580980 0.955970 -0.048276
N27   N     N_R   0.419150 0.919020 0.955970 -0.048160
N28   N     N_R   0.419150 0.080980 0.955970 -0.048276
N29   N     N_R   0.965610 0.578840 0.046310 -0.049784
N30   N     N_R   0.965610 0.421160 0.046310 -0.049793
N31   N     N_R   0.465610 0.078840 0.046310 -0.049782
N32   N     N_R   0.465610 0.921160 0.046310 -0.049791
Ni1   Ni    Ni4+2 0.047340 0.448440 0.099050 0.273514
Ni2   Ni    Ni4+2 0.047340 0.551560 0.099050 0.273577
Ni3   Ni    Ni4+2 0.547340 0.948440 0.099050 0.273514
Ni4   Ni    Ni4+2 0.547340 0.051560 0.099050 0.273577
Ni5   Ni    Ni4+2 0.950540 0.549450 0.900950 0.253623
Ni6   Ni    Ni4+2 0.950540 0.450550 0.900950 0.253619
Ni7   Ni    Ni4+2 0.450540 0.049450 0.900950 0.253613
Ni8   Ni    Ni4+2 0.450540 0.950550 0.900950 0.253610
Cl1   Cl    Cl    0.151968 0.355920 0.162269 -0.642075
Cl2   Cl    Cl    0.151964 0.644083 0.162267 -0.640563
Cl3   Cl    Cl    0.651968 0.855920 0.162269 -0.642070
Cl4   Cl    Cl    0.651964 0.144083 0.162267 -0.640561
Br1   Br    Br    0.388039 0.552500 0.447011 -0.392157
Br2   Br    Br    0.386725 0.451842 0.450001 -0.393303
Br3   Br    Br    0.888088 0.052500 0.446996 -0.392158
Br4   Br    Br    0.886769 0.951843 0.449984 -0.393293
Br5   Br    Br    0.544341 0.552682 0.611452 -0.413844
Br6   Br    Br    0.542837 0.452063 0.614711 -0.413766
Br7   Br    Br    0.044402 0.052675 0.611412 -0.413859
Br8   Br    Br    0.042899 0.952056 0.614657 -0.413789
Cl5   Cl    Cl    0.933455 0.412718 0.718850 -0.666394
Cl6   Cl    Cl    0.933454 0.587282 0.718850 -0.666416
Cl7   Cl    Cl    0.433455 0.912718 0.718850 -0.666412
Cl8   Cl    Cl    0.433454 0.087282 0.718850 -0.666435

loop_
_geom_bond_atom_site_label_1
_geom_bond_atom_site_label_2
_ccdc_geom_bond_type
C2    N2    A    
N1    Ni1   S    
C21   C26   S    
C103  N19   A    
N17   N18   A    
C55   C59   S    
N21   N22   A    
C4    Cl4   S    
N15   N16   A    
N18   Ni2   S    
C24   C27   S    
C38   N8    A    
N23   N24   A    
C30   C44   T    
N13   N14   A    
C67   C75   T    
C36   N6    A    
C39   C41   S    
C72   C98   A    
C71   Cl7   S    
N6    Ni6   S    
N9    N10   A    
C105  N21   A    
C89   C99   A    
C34   C40   S    
C64   C68   S    
C15   C106  A    
C84   C86   S    
C108  H28   S    
C1    N1    A    
N26   Ni5   S    
C11   C20   A    
C86   C88   T    
C5    C17   A    
C10   C17   A    
C16   C30   S    
N29   Ni2   S    
C66   C74   T    
C47   C99   S    
C20   C76   S    
C52   C95   S    
C60   C62   T    
C10   H34   S    
C45   C47   T    
N13   Ni2   S    
C37   N7    A    
C41   Br1   S    
C16   C107  A    
N27   Ni8   S    
C37   H15   S    
C36   C93   A    
C33   C39   S    
C22   H5    S    
N19   Ni3   S    
C27   H40   S    
C22   H2    S    
C22   C25   S    
C7    N27   A    
C38   C95   A    
C107  H27   S    
C15   C29   S    
C25   H38   S    
C69   C97   A    
C91   C100  A    
N4    Ni4   S    
C3    N3    A    
C51   C55   T    
C70   C97   A    
C51   C96   S    
C72   Cl8   S    
C32   C46   S    
C92   N16   A    
C40   C42   S    
C23   H8    S    
C28   C34   S    
C102  N18   A    
C4    C96   A    
C29   C43   T    
C17   C73   S    
C106  N22   A    
C107  N23   A    
C91   N15   A    
C6    C18   A    
C4    N4    A    
C92   H20   S    
C89   N13   A    
C81   C83   T    
C57   C63   T    
C46   C48   T    
N8    Ni8   S    
C27   C34   S    
C58   C64   T    
C69   Cl5   S    
C48   C100  S    
C71   C98   A    
C13   C77   S    
N25   Ni6   S    
C59   C61   T    
C22   C31   S    
C62   C66   S    
C85   C87   T    
C33   C43   S    
C2    Cl2   S    
C2    C94   A    
C34   C44   S    
N9    Ni6   S    
N14   Ni1   S    
N2    Ni2   S    
C28   H12   S    
C65   C73   T    
N19   N20   A    
C79   C81   S    
C53   C57   S    
C89   H17   S    
C6    N26   A    
N20   Ni4   S    
N3    N8    A    
C70   Cl6   S    
N2    N5    A    
C1    C93   A    
C12   H36   S    
C37   C96   A    
C70   N10   A    
C10   N30   A    
N11   Ni8   S    
C6    H30   S    
C26   H37   S    
C36   H14   S    
N1    N6    A    
C24   C32   S    
C63   C67   S    
C41   Br2   S    
C3    Cl3   S    
C104  N20   A    
C21   C31   S    
C26   C33   S    
C14   C104  A    
N11   N12   A    
N4    N7    A    
C35   H13   S    
N22   Ni6   S    
C8    N28   A    
C90   H18   S    
C77   C79   T    
C8    C20   A    
C23   C28   S    
C101  N17   A    
N26   N29   A    
C91   H19   S    
C69   N9    A    
C42   Br4   S    
C71   N11   A    
C80   C82   S    
C83   C85   S    
C39   Br6   S    
C90   N14   A    
C82   C84   T    
C108  N24   A    
C31   C45   S    
C49   C94   S    
C11   N31   A    
C13   C101  A    
N10   Ni5   S    
C90   C99   A    
C9    N29   A    
C92   C100  A    
N28   Ni7   S    
C105  H25   S    
N31   Ni4   S    
C54   C58   S    
C35   C94   A    
C28   H39   S    
C40   Br8   S    
C31   C41   S    
C12   N32   A    
N15   Ni4   S    
C5    N25   A    
C103  H23   S    
C35   N5    A    
C21   H6    S    
C25   H9    S    
C21   H1    S    
N32   Ni3   S    
C50   C93   S    
N3    Ni3   S    
N27   N32   A    
C40   Br7   S    
C27   H11   S    
C68   C76   T    
C23   H3    S    
C7    C19   A    
C72   N12   A    
C26   H10   S    
N23   Ni7   S    
C8    H32   S    
N17   Ni1   S    
C23   C32   S    
N28   N31   A    
C19   C75   S    
N21   Ni5   S    
C5    H29   S    
C50   C54   T    
N16   Ni3   S    
N7    Ni7   S    
C7    H31   S    
C15   C105  A    
C14   C103  A    
N5    Ni5   S    
N25   N30   A    
N24   Ni8   S    
C49   C53   T    
C12   C19   A    
C78   C80   T    
C14   C78   S    
C39   Br5   S    
C42   Br3   S    
C38   H16   S    
C24   H4    S    
N30   Ni1   S    
C9    H33   S    
C16   C108  A    
C61   C65   S    
C9    C18   A    
C106  H26   S    
C56   C60   S    
C24   H7    S    
C18   C74   S    
C104  H24   S    
C25   C33   S    
C32   C42   S    
C102  H22   S    
C3    C95   A    
N12   Ni7   S    
C13   C102  A    
C11   H35   S    
C88   C98   S    
C52   C56   T    
C101  H21   S    
C87   C97   S    
C1    Cl1   S    
