data_mof_unit_42751.cif
_audit_creation_date              2012-12-10T19:00:11-0500
_audit_creation_method            fapswitch 2.2
_symmetry_space_group_name_H-M    P1
_symmetry_Int_Tables_number       1
_space_group_crystal_system       triclinic
_cell_length_a                    9.561663
_cell_length_b                    10.795678
_cell_length_c                    13.399141
_cell_angle_alpha                 91.068429
_cell_angle_beta                  72.648225
_cell_angle_gamma                 90.21194
_cell_volume                      1319.94587585

loop_
_atom_site_label
_atom_site_type_symbol
_atom_type_description
_atom_site_fract_x
_atom_site_fract_y
_atom_site_fract_z
_atom_type_partial_charge
C1    C     C_R   0.498828 0.737321 0.503344 0.807007
C2    C     C_R   0.442116 0.437913 0.975262 0.084911
C3    C     C_R   0.487203 0.433402 0.864481 0.092979
C4    C     C_R   0.549948 0.457028 0.027514 0.067479
C5    C     C_R   0.699776 0.458137 0.968677 0.109146
C6    C     C_R   0.741504 0.423651 0.863564 -0.267016
C7    C     C_R   0.636473 0.408941 0.812335 -0.208877
C8    C     C_R   0.514021 0.476760 0.135787 -0.320959
C9    C     C_R   0.769907 0.509958 0.123838 0.433310
C10   C     C_R   0.380772 0.449903 0.810684 -0.108081
C11   C     C_R   0.399771 0.933142 0.467694 0.127406
C12   C     C_R   0.422922 0.484130 0.698814 0.787104
C13   C     C_R   0.494380 0.870417 0.510257 -0.087193
C14   C     C_R   0.582725 0.937669 0.558779 -0.221820
C15   C     C_R   0.583576 0.067013 0.556100 -0.230625
C16   C     C_R   0.498495 0.128943 0.503002 -0.095855
C17   C     C_R   0.404838 0.060344 0.460830 0.064339
C18   C     C_3   0.389913 0.052997 0.351677 -0.216862
C19   C     C_3   0.379643 0.913200 0.362721 -0.500028
C20   C     C_R   0.957673 0.436517 0.424488 0.275840
C21   C     C_R   0.898029 0.576384 0.565435 -0.212712
C22   C     C_R   0.047872 0.576092 0.566993 0.520038
C23   C     C_R   0.500580 0.262320 0.498464 0.796426
C24   C     C_R   0.104507 0.436971 0.424235 0.169418
C25   C     C_3   0.120448 0.302150 0.398740 -0.517264
C26   C     C_3   0.961322 0.301395 0.399433 -0.473615
C27   C     C_R   0.578339 0.501297 0.299755 0.815605
C28   C     C_R   0.806785 0.490119 0.015920 -0.299515
C29   C     C_R   0.622910 0.496600 0.184980 -0.134644
C30   C     C_R   0.232240 0.434624 0.866143 -0.220212
C31   C     C_R   0.190371 0.412660 0.973150 -0.142273
C32   C     C_R   0.292114 0.420880 0.028353 -0.192620
Cu1   Cu    Cu3+1 0.359330 0.500020 0.500010 0.973414
Cu2   Cu    Cu3+1 0.640670 0.499980 0.499990 0.943221
H1    H     H_    0.653122 0.118155 0.592944 0.152800
H2    H     H_    0.284416 0.091584 0.348105 0.149855
H3    H     H_    0.268873 0.875995 0.369388 0.195013
H4    H     H_    0.471165 0.859677 0.308203 0.184178
H5    H     H_    0.818521 0.637808 0.616894 0.161423
H6    H     H_    0.198358 0.284857 0.319689 0.186444
H7    H     H_    0.139392 0.247422 0.462952 0.217487
H8    H     H_    0.947591 0.282122 0.321094 0.205768
H9    H     H_    0.855781 0.408215 0.820763 0.133731
H10   H     H_    0.889753 0.246316 0.464100 0.207150
H11   H     H_    0.918587 0.502097 0.968131 0.135326
H12   H     H_    0.401387 0.476498 0.183496 0.170677
H13   H     H_    0.148833 0.437078 0.826497 0.139390
H14   H     H_    0.250899 0.408275 0.111661 0.130141
H15   H     H_    0.078203 0.391335 0.015007 0.168746
H16   H     H_    0.674608 0.374425 0.732745 0.180678
H17   H     H_    0.653002 0.890559 0.596157 0.154734
N1    N     N_R   0.852320 0.499070 0.499340 -0.212953
N2    N     N_R   0.148230 0.499110 0.499340 -0.220196
O1    O     O_R   0.381190 0.680360 0.500000 -0.526902
O2    O     O_R   0.618780 0.680320 0.499990 -0.590859
O3    O     O_R   0.323230 0.500000 0.650990 -0.552323
O4    O     O_R   0.560820 0.499960 0.650980 -0.593068
O5    O     O_R   0.381220 0.319680 0.500010 -0.586519
O6    O     O_R   0.618810 0.319640 0.500000 -0.593620
O7    O     O_R   0.439180 0.500040 0.349020 -0.593565
O8    O     O_R   0.676770 0.500000 0.349010 -0.532325
O9    O     O_3   0.879000 0.537879 0.168847 -0.611722
C33   C     C_3   0.898874 0.667549 0.166892 0.069096
H18   H     H_    0.796410 0.715352 0.213726 0.134577
H19   H     H_    0.930413 0.701175 0.085003 0.131915
C34   C     C_3   0.021562 0.700534 0.214001 -0.297424
H20   H     H_    0.993047 0.666773 0.295478 0.222112
H21   H     H_    0.124779 0.654446 0.167353 0.218017
C35   C     C_3   0.045507 0.840350 0.214852 -0.948605
H22   H     H_    0.070133 0.876929 0.134509 0.255429
H23   H     H_    0.139499 0.861502 0.244621 0.255580
H24   H     H_    0.946360 0.887309 0.266533 0.254683
C36   C     C_R   0.521254 0.092471 0.262170 0.171418
C37   C     C_R   0.666948 0.071853 0.262169 -0.150155
C38   C     C_R   0.784342 0.103573 0.175738 -0.162891
C39   C     C_R   0.758124 0.151390 0.086913 -0.101270
C40   C     C_R   0.614450 0.168078 0.084628 -0.118052
C41   C     C_R   0.496680 0.141027 0.172246 -0.156673
H25   H     H_    0.690530 0.029756 0.327917 0.143672
H26   H     H_    0.895755 0.089055 0.176920 0.132954
H27   H     H_    0.849031 0.174059 0.019378 0.126287
H28   H     H_    0.594185 0.201307 0.014573 0.143211
H29   H     H_    0.386123 0.154762 0.168704 0.114412
O10   O     O_3   0.099085 0.660321 0.627618 -0.574572
C42   C     C_3   0.006759 0.671304 0.731899 0.025836
H30   H     H_    0.075219 0.656187 0.784587 0.169990
H31   H     H_    0.917952 0.601498 0.753202 0.121012
C43   C     C_3   0.942082 0.802024 0.752696 -0.349161
H32   H     H_    0.032517 0.870697 0.738489 0.228593
H33   H     H_    0.877196 0.821218 0.698370 0.204966
C44   C     C_3   0.843391 0.817282 0.865149 -0.911429
H34   H     H_    0.906999 0.801482 0.920888 0.247309
H35   H     H_    0.750981 0.750502 0.880674 0.265922
H36   H     H_    0.797967 0.912781 0.877979 0.256274

loop_
_geom_bond_atom_site_label_1
_geom_bond_atom_site_label_2
_ccdc_geom_bond_type
C23   O5    A    
C34   H21   S    
C24   C25   S    
C33   H19   S    
Cu1   O5    S    
C27   C29   S    
C36   C37   A    
C4    C8    A    
C26   H10   S    
C40   C41   A    
C23   O6    A    
C11   C19   S    
C8    C29   A    
C3    C7    A    
C27   O7    A    
C25   H6    S    
C30   C31   A    
C34   C35   S    
C15   C16   A    
C2    C32   A    
C18   C19   S    
C35   H23   S    
C19   H3    S    
C41   H29   S    
C20   C24   A    
C16   C17   A    
Cu2   O4    S    
C36   C41   A    
C27   O8    A    
C38   H26   S    
C9    C29   A    
Cu1   O3    S    
C34   H20   S    
C33   C34   S    
Cu2   O2    S    
C21   C22   A    
C32   H14   S    
C31   H15   S    
C15   H1    S    
C17   C18   S    
C22   N2    A    
C42   H31   S    
Cu1   N2    S    
C28   H11   S    
C37   C38   A    
C9    O9    S    
C30   H13   S    
O10   C42   S    
C25   H7    S    
C44   H34   S    
C24   N2    A    
C42   H30   S    
Cu2   O8    S    
C22   O10   S    
C35   H24   S    
C2    C4    A    
C38   C39   A    
O9    C33   S    
C19   H4    S    
C44   H35   S    
C5    C28   A    
C10   C30   A    
C31   C32   A    
C21   H5    S    
C43   C44   S    
Cu1   Cu2   S    
C39   C40   A    
Cu1   O7    S    
C12   O3    A    
C10   C12   S    
C1    O1    A    
C12   O4    A    
C43   H33   S    
C16   C23   S    
C37   H25   S    
Cu2   O6    S    
C1    C13   S    
C26   H8    S    
C42   C43   S    
Cu1   O1    S    
C11   C17   A    
C7    H16   S    
C4    C5    A    
C39   H27   S    
C6    C7    A    
C18   C36   S    
Cu2   N1    S    
C6    H9    S    
C2    C3    A    
C25   C26   S    
C20   N1    A    
C3    C10   A    
C44   H36   S    
C11   C13   A    
C5    C6    A    
C20   C26   S    
C40   H28   S    
C1    O2    A    
C35   H22   S    
C8    H12   S    
C33   H18   S    
C43   H32   S    
C14   H17   S    
C14   C15   A    
C13   C14   A    
C18   H2    S    
C21   N1    A    
C9    C28   A    
