data_mof_unit_18136.cif
_audit_creation_date              2012-12-11T17:37:52-0500
_audit_creation_method            fapswitch 2.2
_symmetry_space_group_name_H-M    P1
_symmetry_Int_Tables_number       1
_space_group_crystal_system       triclinic
_cell_length_a                    13.085802
_cell_length_b                    13.025547
_cell_length_c                    15.438095
_cell_angle_alpha                 117.291202
_cell_angle_beta                  63.310553
_cell_angle_gamma                 97.938054
_cell_volume                      2081.71072801

loop_
_atom_site_label
_atom_site_type_symbol
_atom_type_description
_atom_site_fract_x
_atom_site_fract_y
_atom_site_fract_z
_atom_type_partial_charge
C1    C     C_R   0.000620 0.833404 0.055954 -0.120792
C2    C     C_R   0.299766 0.591927 0.789197 -0.139075
C3    C     C_R   0.258001 0.423673 0.054907 -0.222225
C4    C     C_R   0.679402 0.477370 0.219306 -0.134662
C5    C     C_R   0.040441 0.277487 0.683469 -0.135707
C6    C     C_R   0.361273 0.449216 0.989815 0.106734
C7    C     C_R   0.023961 0.166540 0.676204 0.056441
C8    C     C_R   0.300949 0.553519 0.689620 0.050410
C9    C     C_R   0.011670 0.149598 0.038370 0.044584
C10   C     C_R   0.440696 0.912371 0.115592 -0.122766
C11   C     C_R   0.360076 0.896540 0.205201 -0.139231
C12   C     C_R   0.672732 0.556833 0.319934 0.036100
C13   C     C_R   0.263485 0.976454 0.282463 0.116193
C14   C     C_R   0.248093 0.071141 0.267708 -0.179840
C15   C     C_R   0.328059 0.085694 0.177432 -0.113925
C16   C     C_R   0.756542 0.515531 0.891553 -0.165955
C17   C     C_R   0.424494 0.006656 0.101671 -0.090660
C18   C     C_R   0.153620 0.060797 0.481689 -0.235482
C19   C     C_R   0.067810 0.057747 0.576579 0.063480
C20   C     C_R   0.027500 0.950261 0.573005 0.019283
C21   C     C_R   0.073496 0.851553 0.475709 -0.215278
C22   C     C_R   0.128561 0.862040 0.379005 0.044126
C23   C     C_R   0.665085 0.452757 0.923721 0.155977
C24   C     C_R   0.181501 0.964716 0.381120 0.028706
C25   C     C_R   0.925435 0.885736 0.718319 -0.188177
C26   C     C_R   0.823828 0.869188 0.794876 -0.127529
C27   C     C_R   0.717633 0.902207 0.810110 -0.103762
C28   C     C_R   0.025880 0.694020 0.296465 -0.142115
C29   C     C_R   0.712667 0.953924 0.750175 -0.126370
C30   C     C_R   0.814036 0.971768 0.674301 -0.137883
C31   C     C_R   0.921031 0.937750 0.658063 0.107568
C32   C     C_R   0.858469 0.361711 0.358259 -0.112916
C33   C     C_R   0.743462 0.397657 0.400496 -0.109628
C34   C     C_R   0.090774 0.786746 0.294850 0.072039
C35   C     C_R   0.701711 0.512591 0.478751 0.114572
C36   C     C_R   0.771968 0.587273 0.522740 -0.195851
C37   C     C_R   0.887741 0.552090 0.477359 -0.132585
C38   C     C_R   0.931609 0.440487 0.393142 -0.109129
C39   C     C_R   0.499357 0.567717 0.592299 -0.250095
C40   C     C_R   0.679328 0.417267 0.988365 -0.126121
C41   C     C_R   0.389242 0.575492 0.602810 0.071258
C42   C     C_R   0.370551 0.588484 0.524654 0.025228
C43   C     C_R   0.465355 0.592048 0.435870 -0.255003
C44   C     C_R   0.575921 0.575631 0.422237 0.076194
C45   C     C_R   0.338836 0.531363 0.965485 0.349119
C46   C     C_R   0.592247 0.559411 0.500007 0.019289
C47   C     C_R   0.238036 0.472099 0.450343 -0.172705
C48   C     C_R   0.127258 0.436169 0.473992 -0.159699
C49   C     C_R   0.034495 0.506931 0.569603 -0.115353
C50   C     C_R   0.051233 0.617018 0.637897 -0.130461
C51   C     C_R   0.162148 0.653135 0.615309 -0.147245
C52   C     C_R   0.103185 0.796329 0.204976 -0.148537
C53   C     C_R   0.256711 0.577292 0.524929 0.124316
C54   C     C_2   0.470728 0.412068 0.970516 -0.192721
C55   C     C_2   0.568192 0.429510 0.898969 -0.208284
C56   C     C_R   0.963861 0.178632 0.780972 -0.126344
C57   C     C_2   0.834502 0.958818 0.094793 -0.194949
C58   C     C_2   0.825530 0.045313 0.189140 -0.172776
C59   C     C_R   0.783099 0.576003 0.309101 -0.089543
C60   C     C_R   0.900231 0.748197 0.959574 -0.162081
C61   C     C_R   0.912935 0.853221 0.036035 0.138662
C62   C     C_3   0.413882 0.624052 0.946341 -1.100937
C63   C     C_R   0.206391 0.492794 0.689934 -0.123595
C64   C     C_R   0.054601 0.253960 0.083911 -0.122934
C65   C     C_R   0.952902 0.170348 0.991283 -0.120869
H1    H     H_    0.029725 0.895312 0.114396 0.096589
H2    H     H_    0.516112 0.851940 0.057140 0.112664
H3    H     H_    0.373906 0.823477 0.215370 0.118932
H4    H     H_    0.609221 0.441169 0.198965 0.097937
H5    H     H_    0.173950 0.133410 0.325953 0.104146
H6    H     H_    0.315612 0.158715 0.166611 0.098794
H7    H     H_    0.194234 0.139760 0.484408 0.128790
H8    H     H_    0.042643 0.770679 0.476287 0.120926
H9    H     H_    0.007404 0.860313 0.707149 0.121961
H10   H     H_    0.827188 0.830574 0.842275 0.097950
H11   H     H_    0.639352 0.887280 0.868066 0.098969
H12   H     H_    0.937493 0.112727 0.807538 0.118741
H13   H     H_    0.630339 0.979520 0.762037 0.113826
H14   H     H_    0.809379 0.010775 0.627349 0.115280
H15   H     H_    0.022384 0.415315 0.353510 0.105904
H16   H     H_    0.778289 0.544180 0.830170 0.094225
H17   H     H_    0.892069 0.274819 0.294833 0.114803
H18   H     H_    0.689236 0.339014 0.366903 0.116171
H19   H     H_    0.740476 0.675989 0.583272 0.136295
H20   H     H_    0.944167 0.613307 0.504493 0.131659
H21   H     H_    0.513808 0.552077 0.649420 0.131285
H22   H     H_    0.453260 0.598605 0.373468 0.131934
H23   H     H_    0.179072 0.452392 0.627266 0.133279
H24   H     H_    0.309908 0.411970 0.381006 0.116078
H25   H     H_    0.114337 0.350645 0.421453 0.107251
H26   H     H_    0.949559 0.476406 0.590932 0.124634
H27   H     H_    0.979208 0.670782 0.711929 0.112680
H28   H     H_    0.013128 0.649149 0.343658 0.102305
H29   H     H_    0.175219 0.733727 0.674223 0.111405
H30   H     H_    0.468558 0.388040 0.029870 0.123738
H31   H     H_    0.570469 0.449087 0.837157 0.152502
H32   H     H_    0.777948 0.964556 0.062673 0.134077
H33   H     H_    0.877182 0.044320 0.227494 0.128384
H34   H     H_    0.093436 0.272539 0.137622 0.081558
H35   H     H_    0.635533 0.351939 0.013343 0.085957
H36   H     H_    0.157834 0.851041 0.170952 0.116191
H37   H     H_    0.808576 0.637865 0.370072 0.117676
H38   H     H_    0.835057 0.731016 0.931157 0.094811
H39   H     H_    0.467218 0.647923 0.990847 0.262092
H40   H     H_    0.470734 0.593877 0.858677 0.242805
H41   H     H_    0.360093 0.703527 0.978211 0.257977
H42   H     H_    0.897018 0.111771 0.960696 0.101502
H43   H     H_    0.350678 0.657647 0.820217 0.117478
H44   H     H_    0.246131 0.371204 0.095621 0.113122
H45   H     H_    0.078900 0.301234 0.617903 0.095446
H46   H     H_    0.486751 0.018985 0.032514 0.095850
N1    N     N_R   0.037320 0.720000 0.995830 -0.045621
N2    N     N_R   0.824900 0.517970 0.936430 -0.038378
N3    N     N_R   0.003190 0.648180 0.211390 -0.041565
N4    N     N_R   0.774330 0.457010 0.995830 -0.043063
N5    N     N_R   0.053760 0.709130 0.151980 -0.042234
N6    N     N_R   0.853840 0.498830 0.211390 -0.039642
N7    N     N_R   0.974250 0.667320 0.936430 -0.038423
N8    N     N_R   0.225670 0.542990 0.004170 -0.060270
N9    N     N_R   0.946240 0.290870 0.848020 -0.042702
N10   N     N_R   0.146160 0.501170 0.788610 -0.042213
N11   N     N_R   0.025750 0.332680 0.063570 -0.034812
N12   N     N_R   0.962680 0.280000 0.004170 -0.043939
N13   N     N_R   0.209230 0.553860 0.848010 -0.039234
N14   N     N_R   0.175100 0.482030 0.063570 -0.052018
N15   N     N_R   0.996810 0.351820 0.788610 -0.038122
N16   N     N_R   0.790770 0.446140 0.151990 -0.042675
Ni1   Ni    Ni4+2 0.130310 0.630310 0.000000 0.208347
Ni2   Ni    Ni4+2 0.869690 0.369690 0.000000 0.212420
Ni3   Ni    Ni4+2 0.985660 0.509480 0.863750 0.213434
Ni4   Ni    Ni4+2 0.014340 0.490520 0.136250 0.215648

loop_
_geom_bond_atom_site_label_1
_geom_bond_atom_site_label_2
_ccdc_geom_bond_type
C25   C31   A    
C6    C45   A    
C63   H23   S    
C27   C29   A    
C9    C64   A    
C14   H5    S    
C41   C42   A    
C35   C36   A    
C58   H33   S    
N10   Ni3   S    
C3    C6    A    
C16   N2    A    
C39   C41   A    
C62   H40   S    
C10   H2    S    
C26   C27   A    
C29   C30   A    
C18   C24   A    
C37   H20   S    
C36   C37   A    
C6    C54   S    
C18   C19   A    
C1    N1    A    
C30   C31   A    
N9    N15   A    
C40   N4    A    
C5    H45   S    
N15   Ni3   S    
C10   C17   A    
C23   C40   A    
C21   H8    S    
C45   C62   S    
C25   H9    S    
N3    Ni4   S    
N10   N13   A    
C12   C59   A    
C64   H34   S    
C29   H13   S    
C19   C20   A    
C5    N15   A    
C60   N7    A    
C32   C38   A    
C4    C12   A    
C60   H38   S    
C47   C53   A    
N8    Ni1   S    
C45   N8    A    
C28   C34   A    
C59   N6    A    
C48   H25   S    
C13   C14   A    
N12   Ni2   S    
C56   N9    A    
C7    C56   A    
C49   H26   S    
C17   H46   S    
C4    H4    S    
C63   N10   A    
C44   C46   A    
C1    H1    S    
C62   H39   S    
C52   N5    A    
C18   H7    S    
C22   C34   S    
C52   H36   S    
N2    Ni3   S    
N9    Ni2   S    
C8    C41   S    
C5    C7    A    
C8    C63   A    
C25   C26   A    
C56   H12   S    
C13   C24   S    
C60   C61   A    
C51   C53   A    
C43   C44   A    
N16   Ni2   S    
C37   C38   A    
N7    Ni3   S    
C33   H18   S    
N14   Ni4   S    
C47   C48   A    
C57   H32   S    
C50   C51   A    
C57   C61   S    
N6    N16   A    
C54   H30   S    
C28   N3    A    
C39   C46   A    
C30   H14   S    
N8    N14   A    
C50   H27   S    
C48   C49   A    
C47   H24   S    
C16   C23   A    
C7    C19   S    
C22   C24   A    
C42   C43   A    
C27   H11   S    
N11   Ni4   S    
C15   H6    S    
C11   H3    S    
N4    Ni2   S    
C15   C17   A    
C54   C55   D    
C4    N16   A    
C59   H37   S    
C28   H28   S    
C2    C8    A    
C36   H19   S    
C55   H31   S    
C1    C61   A    
C40   H35   S    
N3    N5    A    
C3    N14   A    
C23   C55   S    
C62   H41   S    
C2    N13   A    
C32   H17   S    
C34   C52   A    
N13   Ni1   S    
C43   H22   S    
C32   C33   A    
C42   C53   S    
N1    N7    A    
C11   C13   A    
C57   C58   D    
C38   H15   S    
C3    H44   S    
C64   N11   A    
C2    H43   S    
C16   H16   S    
C33   C35   A    
C65   N12   A    
N6    Ni4   S    
C9    C65   A    
N1    Ni1   S    
C10   C11   A    
C51   H29   S    
C20   C21   A    
C26   H10   S    
C49   C50   A    
N5    Ni1   S    
C14   C15   A    
C12   C44   S    
C39   H21   S    
N11   N12   A    
C21   C22   A    
C35   C46   S    
C65   H42   S    
N2    N4    A    
C20   C31   S    
