data_mof_unit_30504.cif
_audit_creation_date              2012-10-26T19:30:07-0400
_audit_creation_method            fapswitch 2.2
_symmetry_space_group_name_H-M    P1
_symmetry_Int_Tables_number       1
_space_group_crystal_system       triclinic
_cell_length_a                    15.866364
_cell_length_b                    10.686852
_cell_length_c                    9.489188
_cell_angle_alpha                 88.775341
_cell_angle_beta                  90.529827
_cell_angle_gamma                 90.332288
_cell_volume                      1608.53923562

loop_
_atom_site_label
_atom_site_type_symbol
_atom_type_description
_atom_site_fract_x
_atom_site_fract_y
_atom_site_fract_z
_atom_type_partial_charge
C1    C     C_R   0.503777 0.260324 0.501457 0.596197
C2    C     C_3   0.445752 0.422604 0.951993 0.192988
C3    C     C_3   0.481936 0.611272 0.945428 0.024572
C4    C     C_3   0.517951 0.388597 0.054639 -0.012122
C5    C     C_3   0.571966 0.468743 0.953537 0.150980
C6    C     C_3   0.428120 0.531330 0.046414 0.188387
C7    C     C_R   0.340216 0.499328 0.499491 0.578771
C8    C     C_R   0.659786 0.500626 0.500497 0.573845
C9    C     C_3   0.971293 0.422165 0.597480 0.061845
C10   C     C_3   0.028722 0.578282 0.402235 0.062399
C11   C     C_3   0.025539 0.384497 0.472549 0.265875
C12   C     C_R   0.497134 0.739777 0.498519 0.600223
C13   C     C_3   0.974470 0.615961 0.527166 0.255401
C14   C     C_1   0.250682 0.497803 0.498719 0.092320
C15   C     C_1   0.749321 0.502303 0.501196 0.077297
C16   C     C_3   0.029734 0.534663 0.628675 -0.111738
C17   C     C_3   0.970275 0.465788 0.371040 -0.113714
C18   C     C_3   0.083707 0.497145 0.500773 -0.005403
C19   C     C_3   0.916298 0.503308 0.498945 -0.009129
C20   C     C_1   0.175240 0.496861 0.499307 0.065834
C21   C     C_1   0.824762 0.503430 0.500503 0.055870
C22   C     C_3   0.544055 0.034015 0.616008 0.240450
C23   C     C_3   0.579497 0.954083 0.496665 0.158000
C24   C     C_3   0.458367 0.966039 0.383727 0.252740
C25   C     C_3   0.422756 0.045875 0.502830 0.171271
C26   C     C_3   0.497567 0.875892 0.495425 -0.056087
C27   C     C_3   0.504624 0.124247 0.504362 -0.066737
C28   C     C_3   0.462370 0.956289 0.613507 0.014573
C29   C     C_3   0.539938 0.043874 0.386292 0.014077
C30   C     C_3   0.554176 0.577487 0.048039 0.197980
Cu1   Cu    Cu3+1 0.500020 0.499990 0.643150 1.077738
Cu2   Cu    Cu3+1 0.499980 0.500010 0.356850 1.081466
H1    H     H_    0.946257 0.439010 0.265592 0.162321
H2    H     H_    0.096357 0.733240 0.346225 0.280568
H3    H     H_    0.760855 0.039811 0.400774 0.347018
H4    H     H_    0.213269 0.001576 0.423378 0.408748
H5    H     H_    0.659645 0.962402 0.941795 0.368899
H6    H     H_    0.349229 0.035364 0.051305 0.366432
H7    H     H_    0.400483 0.984385 0.796466 0.282300
H8    H     H_    0.364902 0.861908 0.704784 0.260370
H9    H     H_    0.604047 0.016743 0.205043 0.288295
H10   H     H_    0.635290 0.143016 0.294751 0.219274
H11   H     H_    0.640382 0.716310 0.020318 0.263797
H12   H     H_    0.053751 0.561438 0.734124 0.166819
H13   H     H_    0.665749 0.611763 0.146935 0.248881
H14   H     H_    0.348617 0.300793 0.980732 0.264964
H15   H     H_    0.411967 0.265919 0.847560 0.292183
H16   H     H_    0.693609 0.418139 0.986868 0.217743
H17   H     H_    0.647654 0.353192 0.846765 0.302040
H18   H     H_    0.306225 0.580438 0.012906 0.235528
H19   H     H_    0.352093 0.647231 0.152042 0.296650
H20   H     H_    0.466780 0.703689 0.896752 0.184625
H21   H     H_    0.532984 0.296126 0.103273 0.189060
H22   H     H_    0.996784 0.059057 0.374181 0.394217
H23   H     H_    0.003525 0.941341 0.625602 0.402882
H24   H     H_    0.989617 0.292123 0.753741 0.277242
H25   H     H_    0.903615 0.267260 0.653494 0.290331
H26   H     H_    0.010428 0.708221 0.245848 0.273278
N1    N     N_3   0.500060 0.499970 0.858290 -0.242508
N2    N     N_3   0.345526 0.562832 0.099966 -0.539330
N3    N     N_3   0.499940 0.500030 0.141710 -0.241818
N4    N     N_3   0.938195 0.336419 0.705027 -0.560749
N5    N     N_3   0.061843 0.664012 0.294688 -0.563926
N6    N     N_3   0.419600 0.907697 0.738512 -0.543647
N7    N     N_3   0.582319 0.092996 0.261129 -0.546163
N8    N     N_3   0.615878 0.664506 0.105214 -0.495125
N9    N     N_3   0.381361 0.339700 0.895245 -0.527881
N10   N     N_3   0.654503 0.437034 0.899894 -0.549153
O1    O     O_R   0.500040 0.316850 0.620870 -0.473428
O2    O     O_2   0.105499 0.177604 0.565075 -0.225738
O3    O     O_3   0.973756 0.139672 0.405563 -0.513478
O4    O     O_2   0.895134 0.823235 0.434185 -0.226504
O5    O     O_2   0.884119 0.769233 0.686395 -0.196058
O6    O     O_3   0.026488 0.860508 0.594760 -0.506948
O7    O     O_2   0.696458 0.799908 0.609311 -0.161891
O8    O     O_2   0.693324 0.823091 0.352331 -0.290781
O9    O     O_3   0.755105 0.006500 0.498401 -0.409185
O10   O     O_2   0.307943 0.178765 0.642791 -0.257385
O11   O     O_2   0.303483 0.192763 0.385016 -0.207560
O12   O     O_R   0.499960 0.683150 0.379130 -0.439418
O13   O     O_3   0.248601 0.987505 0.508771 -0.457897
O14   O     O_2   0.679230 0.143935 0.733561 -0.261716
O15   O     O_2   0.547689 0.144522 0.868219 -0.331751
O16   O     O_3   0.629805 0.935995 0.855143 -0.443524
O17   O     O_2   0.459265 0.851081 0.135064 -0.282890
O18   O     O_2   0.324429 0.857796 0.260486 -0.299781
O19   O     O_3   0.379173 0.062356 0.137603 -0.459687
O20   O     O_R   0.500000 0.316860 0.379090 -0.480677
O21   O     O_R   0.500000 0.683140 0.620910 -0.487151
O22   O     O_R   0.379090 0.499980 0.620870 -0.491280
O23   O     O_R   0.620910 0.500020 0.379130 -0.521248
O24   O     O_R   0.379060 0.499990 0.379090 -0.463807
O25   O     O_R   0.620940 0.500010 0.620910 -0.458569
O26   O     O_2   0.115680 0.231532 0.312731 -0.228280
S1    S     S_3+6 0.058802 0.229299 0.438508 0.036364
S2    S     S_3+6 0.941363 0.771264 0.561087 0.061185
S3    S     S_3+6 0.683192 0.890748 0.488297 0.107362
S4    S     S_3+6 0.318380 0.106696 0.510035 0.095035
S5    S     S_3+6 0.601687 0.070068 0.772236 0.066645
S6    S     S_3+6 0.403660 0.928894 0.225178 0.059710

loop_
_geom_bond_atom_site_label_1
_geom_bond_atom_site_label_2
_ccdc_geom_bond_type
C11   C18   S    
H17   N10   S    
C4    H21   S    
C27   C29   S    
O14   S5    D    
O11   S4    D    
C10   N5    S    
C3    C6    S    
H25   N4    S    
C25   C28   S    
H7    N6    S    
C23   C29   S    
C6    N3    S    
C19   C21   S    
C9    C16   S    
C24   C26   S    
Cu2   N3    S    
O19   S6    S    
Cu2   O23   S    
O3    S1    S    
O13   S4    S    
C10   C17   S    
Cu2   O20   S    
O7    S3    D    
C14   C20   T    
C23   C26   S    
Cu1   N1    S    
C24   C29   S    
H23   O6    S    
C9    C19   S    
C7    C14   S    
H22   O3    S    
Cu1   O21   S    
O10   S4    D    
H10   N7    S    
H5    O16   S    
O9    S3    S    
O18   S6    D    
C16   H12   S    
C1    O20   A    
C22   C28   S    
C2    C6    S    
C17   H1    S    
C5    N10   S    
H15   N9    S    
C13   C19   S    
C13   S2    S    
C9    N4    S    
O6    S2    S    
C12   O21   A    
C24   C25   S    
C2    N9    S    
C5    N1    S    
C2    N1    S    
H9    N7    S    
O8    S3    D    
Cu1   O25   S    
C7    O22   A    
C4    N3    S    
H3    O9    S    
C1    O1    A    
C12   C26   S    
C3    C30   S    
C2    C4    S    
C6    N2    S    
Cu2   O12   S    
Cu1   Cu2   S    
Cu1   O1    S    
H4    O13   S    
Cu1   O22   S    
C8    O23   A    
H16   N10   S    
C9    C11   S    
C30   N8    S    
C29   N7    S    
C28   N6    S    
C23   S3    S    
C8    C15   S    
C22   C27   S    
H24   N4    S    
C30   N3    S    
C5    C30   S    
C11   S1    S    
H26   N5    S    
C11   C17   S    
C22   S5    S    
C24   S6    S    
O16   S5    S    
C8    O25   A    
C4    C5    S    
C10   C13   S    
C3    H20   S    
C25   C27   S    
C26   C28   S    
H8    N6    S    
H6    O19   S    
H18   N2    S    
O2    S1    D    
H14   N9    S    
O17   S6    D    
Cu2   O24   S    
C10   C18   S    
H11   N8    S    
C7    O24   A    
C12   O12   A    
H2    N5    S    
C17   C19   S    
C18   C20   S    
O26   S1    D    
O4    S2    D    
C25   S4    S    
C15   C21   T    
C16   C18   S    
C13   C16   S    
H13   N8    S    
C1    C27   S    
C22   C23   S    
O15   S5    D    
H19   N2    S    
O5    S2    D    
C3    N1    S    
