data_mof_unit_29990.cif
_audit_creation_date              2012-12-11T16:23:58-0500
_audit_creation_method            fapswitch 2.2
_symmetry_space_group_name_H-M    P1
_symmetry_Int_Tables_number       1
_space_group_crystal_system       triclinic
_cell_length_a                    14.735195
_cell_length_b                    14.735615
_cell_length_c                    33.276301
_cell_angle_alpha                 96.043274
_cell_angle_beta                  96.306234
_cell_angle_gamma                 61.273273
_cell_volume                      6286.30549556

loop_
_atom_site_label
_atom_site_type_symbol
_atom_type_description
_atom_site_fract_x
_atom_site_fract_y
_atom_site_fract_z
_atom_type_partial_charge
C1    C     C_R   0.391200 0.698818 0.445645 0.577661
C2    C     C_R   0.331205 0.349248 0.308386 0.119470
C3    C     C_R   0.411533 0.264641 0.328162 0.212449
C4    C     C_R   0.430298 0.274128 0.370291 -0.124169
C5    C     C_R   0.395576 0.254321 0.165514 -0.090378
C6    C     C_R   0.386032 0.235414 0.123744 -0.112705
C7    C     C_R   0.210545 0.378687 0.121503 -0.113476
C8    C     C_R   0.220303 0.397294 0.163307 -0.094530
C9    C     C_R   0.311591 0.333017 0.185399 0.028621
C10   C     C_1   0.316318 0.341588 0.228662 0.036225
C11   C     C_1   0.321537 0.345690 0.264981 0.134515
C12   C     C_R   0.405752 0.386427 0.433973 0.550873
C13   C     C_R   0.291960 0.294927 0.101575 0.015313
C14   C     C_R   0.759388 0.373820 0.410556 0.007615
C15   C     C_R   0.771796 0.447325 0.391316 -0.155524
C16   C     C_R   0.797616 0.429439 0.351378 -0.125226
C17   C     C_R   0.811804 0.337578 0.329527 -0.013192
C18   C     C_R   0.810050 0.259306 0.349595 -0.040010
C19   C     C_R   0.786613 0.275310 0.390218 0.234950
C20   C     C_R   0.829522 0.313511 0.203847 0.369489
C21   C     C_R   0.821772 0.327297 0.285527 0.336229
C22   C     C_R   0.831179 0.391132 0.141412 -0.132847
C23   C     C_R   0.702128 0.409408 0.447805 0.535368
C24   C     C_R   0.853086 0.384057 0.101091 -0.025409
C25   C     C_R   0.885835 0.204062 0.095174 -0.010537
C26   C     C_R   0.856256 0.215562 0.135366 0.264170
C27   C     C_R   0.839606 0.305745 0.159614 0.021439
C28   C     C_R   0.894142 0.286004 0.079326 -0.086574
C29   C     C_R   0.373254 0.749921 0.407357 -0.003077
C30   C     C_R   0.286218 0.766983 0.380269 0.222666
C31   C     C_R   0.284346 0.791658 0.340073 0.198492
C32   C     C_R   0.371343 0.792458 0.326938 0.083761
C33   C     C_R   0.453725 0.783974 0.354472 0.186251
C34   C     C_R   0.393174 0.702645 0.560921 0.520650
C35   C     C_R   0.453283 0.764197 0.394734 -0.186263
C36   C     C_R   0.367859 0.815278 0.203209 0.347536
C37   C     C_R   0.376748 0.797684 0.283681 0.441614
C38   C     C_R   0.256451 0.842878 0.138346 -0.026404
C39   C     C_R   0.234521 0.872735 0.098478 -0.149936
C40   C     C_R   0.392464 0.885686 0.100940 -0.049602
C41   C     C_R   0.419905 0.850080 0.139907 0.232555
C42   C     C_R   0.349403 0.833032 0.159792 0.027925
C43   C     C_R   0.298387 0.900657 0.080562 -0.038706
C44   C     C_R   0.368973 0.369247 0.584695 0.058994
C45   C     C_R   0.407078 0.388663 0.548963 0.568838
C46   C     C_R   0.290656 0.454074 0.605455 -0.172794
C47   C     C_R   0.268079 0.444647 0.643761 -0.126046
C48   C     C_R   0.322538 0.349949 0.662105 0.001153
C49   C     C_R   0.393593 0.262364 0.639998 -0.111140
C50   C     C_R   0.417652 0.271101 0.601275 0.243438
C51   C     C_R   0.316018 0.337672 0.786576 0.319723
C52   C     C_R   0.313232 0.345184 0.705377 0.348757
C53   C     C_R   0.227493 0.404125 0.850350 -0.146715
C54   C     C_R   0.215770 0.393143 0.890438 -0.003781
C55   C     C_R   0.386047 0.240997 0.892039 -0.106553
C56   C     C_R   0.702448 0.413037 0.562568 0.568185
C57   C     C_R   0.399864 0.255055 0.852656 0.006173
C58   C     C_R   0.316177 0.332980 0.830586 -0.010244
C59   C     C_R   0.292167 0.304511 0.910323 0.006777
C60   C     C_R   0.759759 0.378478 0.602339 0.022299
C61   C     C_R   0.779867 0.448703 0.628562 -0.151398
C62   C     C_R   0.814672 0.428509 0.669103 -0.018217
C63   C     C_R   0.827405 0.336594 0.683985 -0.015287
C64   C     C_R   0.816701 0.260272 0.657210 0.017151
C65   C     C_R   0.785306 0.280713 0.615790 0.206393
C66   C     C_R   0.918498 0.208108 0.820751 -0.098041
C67   C     C_R   0.369991 0.367125 0.392398 -0.044021
C68   C     C_R   0.940829 0.196999 0.862200 -0.147288
C69   C     C_R   0.845378 0.384613 0.874919 0.003161
C70   C     C_R   0.825132 0.394455 0.832894 -0.144050
C71   C     C_R   0.863799 0.306735 0.806013 0.026769
C72   C     C_1   0.850733 0.317521 0.763159 0.022213
C73   C     C_1   0.841093 0.325684 0.727163 0.031082
C74   C     C_R   0.909344 0.284465 0.889713 0.038789
C75   C     C_R   0.378692 0.755429 0.601843 -0.047880
C76   C     C_R   0.279783 0.824393 0.616115 -0.008800
C77   C     C_R   0.271964 0.852985 0.657781 -0.116688
C78   C     C_R   0.284935 0.447999 0.372567 -0.137483
C79   C     C_R   0.360325 0.815811 0.684677 0.039329
C80   C     C_R   0.458779 0.753427 0.670424 0.254414
C81   C     C_R   0.467317 0.724053 0.629014 -0.127013
C82   C     C_R   0.408628 0.851586 0.834139 0.188003
C83   C     C_R   0.391200 0.874805 0.876130 -0.013849
C84   C     C_R   0.210366 0.916242 0.859746 -0.156069
C85   C     C_R   0.227046 0.895064 0.818524 0.196086
C86   C     C_R   0.325089 0.866360 0.805906 0.105849
C87   C     C_1   0.339599 0.850120 0.763257 0.152857
C88   C     C_1   0.349087 0.836171 0.727417 0.092620
C89   C     C_R   0.265362 0.439868 0.330442 0.209813
C90   C     C_R   0.289277 0.912224 0.888583 -0.023153
C91   C     C_R   0.959883 0.265455 0.044722 0.528548
C92   C     C_R   0.272892 0.259577 0.059975 0.546093
C93   C     C_R   0.259454 0.959314 0.043745 0.565491
C94   C     C_R   0.960953 0.268220 0.931049 0.570672
C95   C     C_R   0.271324 0.265044 0.945612 0.554903
C96   C     C_R   0.256757 0.963562 0.929195 0.583867
Cr1   Cr    Cr6+3 0.576280 0.580550 0.506370 1.027024
Cr2   Cr    Cr6+3 0.346780 0.572400 0.496520 1.053991
Cr3   Cr    Cr6+3 0.576960 0.347070 0.497150 1.119417
Cr4   Cr    Cr6+3 0.087320 0.083240 0.984860 1.047759
Cr5   Cr    Cr6+3 0.087720 0.316210 0.996740 1.106113
Cr6   Cr    Cr6+3 0.317350 0.090340 0.995890 1.076042
H1    H     H_    0.450116 0.170541 0.109264 0.150215
H2    H     H_    0.801224 0.490230 0.337072 0.165815
H3    H     H_    0.824528 0.186207 0.333566 0.176243
H4    H     H_    0.807592 0.464359 0.158832 0.199357
H5    H     H_    0.519491 0.752622 0.415463 0.137087
H6    H     H_    0.162189 0.883094 0.082649 0.185897
H7    H     H_    0.466657 0.204493 0.182523 0.155786
H8    H     H_    0.443922 0.904757 0.087116 0.174290
H9    H     H_    0.251030 0.530048 0.593287 0.156629
H10   H     H_    0.211398 0.513040 0.659783 0.166087
H11   H     H_    0.434590 0.188252 0.653620 0.133528
H12   H     H_    0.165496 0.467345 0.834040 0.133929
H13   H     H_    0.447906 0.177025 0.907979 0.185580
H14   H     H_    0.989026 0.119611 0.872438 0.131008
H15   H     H_    0.947777 0.139745 0.800096 0.166468
H16   H     H_    0.763869 0.522188 0.617819 0.184451
H17   H     H_    0.779770 0.470626 0.821028 0.112577
H18   H     H_    0.495524 0.210987 0.385359 0.152828
H19   H     H_    0.543372 0.671372 0.618461 0.132140
H20   H     H_    0.132969 0.942256 0.868896 0.132237
H21   H     H_    0.196726 0.903105 0.669570 0.191586
H22   H     H_    0.237458 0.519939 0.389355 0.147938
H23   H     H_    0.155074 0.458577 0.178591 0.154192
H24   H     H_    0.137104 0.425861 0.105286 0.157377
H25   H     H_    0.754510 0.522414 0.406103 0.151558
N1    N     N_R   0.806343 0.404247 0.225596 -0.231627
N2    N     N_R   0.267583 0.433697 0.729356 -0.210737
N3    N     N_R   0.358455 0.252803 0.722727 -0.218828
N4    N     N_R   0.358976 0.249149 0.762502 -0.221863
N5    N     N_R   0.802227 0.411079 0.265527 -0.207066
N6    N     N_R   0.845156 0.236300 0.263939 -0.205660
N7    N     N_R   0.849627 0.229468 0.223931 -0.101622
N8    N     N_R   0.363305 0.734608 0.217255 -0.179455
N9    N     N_R   0.367194 0.726285 0.256866 -0.153925
N10   N     N_R   0.384865 0.876453 0.269730 -0.146452
N11   N     N_R   0.380074 0.885285 0.230066 -0.179860
N12   N     N_R   0.268414 0.430051 0.769179 -0.208315
O1    O     O_R   0.679450 0.499830 0.463150 -0.519358
O2    O     O_R   0.356040 0.477400 0.534170 -0.523535
O3    O     O_R   0.495910 0.323070 0.537100 -0.425874
O4    O     O_R   0.663920 0.359620 0.542290 -0.428229
O5    O     O_3   0.500010 0.500010 0.500010 -0.268884
O6    O     O_R   0.170070 0.978950 0.027680 -0.489851
O7    O     O_R   0.001760 0.175230 0.026640 -0.499968
O8    O     O_R   0.984760 0.333570 0.037150 -0.507802
O9    O     O_R   0.183410 0.309240 0.041890 -0.489583
O10   O     O_R   0.340240 0.172500 0.045430 -0.513664
O11   O     O_R   0.309670 0.000990 0.032050 -0.492185
O12   O     O_R   0.480650 0.664000 0.464630 -0.515640
O13   O     O_R   0.168330 0.982130 0.939200 -0.523102
O14   O     O_R   0.000140 0.178170 0.944610 -0.518643
O15   O     O_R   0.983010 0.336750 0.948660 -0.465044
O16   O     O_R   0.181800 0.312190 0.959860 -0.451896
O17   O     O_R   0.338500 0.175680 0.956950 -0.526910
O18   O     O_R   0.308050 0.003930 0.950020 -0.458965
O19   O     O_3   0.164130 0.163270 0.992500 -0.269948
O20   O     O_R   0.323930 0.675950 0.455370 -0.439088
O21   O     O_R   0.354700 0.475360 0.451930 -0.499229
O22   O     O_R   0.494470 0.320860 0.448390 -0.495736
O23   O     O_R   0.662580 0.357570 0.460050 -0.483424
O24   O     O_R   0.680900 0.502040 0.551870 -0.536187
O25   O     O_R   0.481990 0.666040 0.546870 -0.496533
O26   O     O_R   0.325370 0.678160 0.544080 -0.520098
O27   O     O_3   0.788369 0.194402 0.408244 -0.672005
H26   H     H_    0.806550 0.200754 0.437576 0.341332
C97   C     C_2   0.830325 0.480618 0.082265 0.278417
H27   H     H_    0.819498 0.484623 0.049603 0.159383
O28   O     O_2   0.820964 0.557730 0.103016 -0.473564
C98   C     C_2   0.908968 0.106367 0.070399 0.253775
H28   H     H_    0.882907 0.109064 0.038543 0.119619
O29   O     O_2   0.958693 0.022191 0.085123 -0.495168
O30   O     O_3   0.843008 0.140498 0.151593 -0.623190
H29   H     H_    0.815339 0.107387 0.129851 0.353239
O31   O     O_3   0.207396 0.753589 0.392891 -0.671662
H30   H     H_    0.176789 0.727947 0.369415 0.329248
O32   O     O_3   0.199479 0.814377 0.312817 -0.644542
H31   H     H_    0.136026 0.845698 0.327957 0.349957
O33   O     O_3   0.536121 0.789562 0.340892 -0.664251
H32   H     H_    0.587854 0.781012 0.363912 0.331097
C99   C     C_2   0.174631 0.832364 0.156662 0.297642
H33   H     H_    0.123391 0.810008 0.137367 0.133171
O34   O     O_2   0.158968 0.854321 0.192524 -0.408691
O35   O     O_3   0.514476 0.836506 0.157728 -0.652582
H34   H     H_    0.534174 0.793178 0.181198 0.348701
O36   O     O_3   0.490429 0.186060 0.580014 -0.656550
H35   H     H_    0.516935 0.124075 0.595998 0.327253
C100  C     C_2   0.122499 0.475800 0.909488 0.261757
H36   H     H_    0.051056 0.517243 0.890992 0.097178
O37   O     O_2   0.126196 0.503256 0.945276 -0.465346
O38   O     O_3   0.473265 0.175617 0.305546 -0.668018
H37   H     H_    0.526047 0.124063 0.323977 0.345436
C101  C     C_2   0.502126 0.188671 0.835428 0.264555
H38   H     H_    0.521327 0.209716 0.808536 0.141335
O39   O     O_2   0.567185 0.110280 0.851487 -0.488837
C102  C     C_2   0.830447 0.162593 0.672486 0.249402
H39   H     H_    0.785695 0.125745 0.658164 0.131407
O40   O     O_2   0.893024 0.121170 0.700655 -0.475189
O41   O     O_3   0.777115 0.207868 0.588015 -0.664957
H40   H     H_    0.826744 0.137504 0.596598 0.335527
C103  C     C_2   0.797137 0.480344 0.901689 0.256217
H41   H     H_    0.770299 0.555352 0.889584 0.108458
O42   O     O_2   0.782027 0.477357 0.936756 -0.468983
C104  C     C_2   0.833463 0.506138 0.695972 0.245081
H42   H     H_    0.858208 0.493281 0.727720 0.122079
O43   O     O_2   0.822594 0.585381 0.682856 -0.489912
C105  C     C_2   0.478417 0.861584 0.906129 0.247506
H43   H     H_    0.536395 0.881835 0.899093 0.125959
O44   O     O_2   0.487820 0.825190 0.938589 -0.470332
O45   O     O_3   0.505182 0.814851 0.819368 -0.664624
H44   H     H_    0.560125 0.783016 0.841106 0.324524
O46   O     O_3   0.544811 0.718775 0.697622 -0.652075
H45   H     H_    0.607744 0.674851 0.682684 0.346544
C106  C     C_2   0.184999 0.868549 0.588188 0.259164
H46   H     H_    0.190782 0.860848 0.555688 0.137360
O47   O     O_2   0.098831 0.915879 0.601199 -0.487053
O48   O     O_3   0.147928 0.904686 0.789884 -0.679484
H47   H     H_    0.083717 0.926221 0.803701 0.333090
O49   O     O_3   0.185680 0.520763 0.310050 -0.670185
H48   H     H_    0.147134 0.578487 0.329929 0.332227

loop_
_geom_bond_atom_site_label_1
_geom_bond_atom_site_label_2
_ccdc_geom_bond_type
Cr4   O14   S    
C8    C9    A    
C7    C13   A    
C66   C68   A    
C98   H28   S    
Cr5   O9    S    
C40   C41   A    
C54   C100  S    
C55   C59   A    
C92   O9    A    
C41   C42   A    
C74   C94   S    
Cr3   O3    S    
C36   C42   S    
C84   C90   A    
C106  H46   S    
Cr6   O19   S    
C91   O8    A    
O32   H31   S    
O35   H34   S    
C7    C8    A    
Cr1   O5    S    
O46   H45   S    
Cr4   O13   S    
C25   C28   A    
C98   O29   D    
C56   O24   A    
C26   C27   A    
C105  H43   S    
C103  O42   D    
C52   N2    A    
Cr3   O4    S    
C24   C97   S    
C38   C42   A    
C34   O25   A    
C106  O47   D    
C30   C31   A    
C26   O30   S    
C68   C74   A    
C15   C16   A    
C96   O13   A    
C18   C19   A    
C100  O37   D    
C95   O17   A    
C49   H11   S    
C30   O31   S    
C102  O40   D    
O30   H29   S    
C79   C88   S    
C75   C76   A    
C47   H10   S    
C43   C93   S    
C12   O22   A    
Cr3   O22   S    
C56   O4    A    
C84   C85   A    
C16   H2    S    
C40   C43   A    
C66   C71   A    
C53   C54   A    
Cr4   O7    S    
O41   H40   S    
Cr1   O24   S    
C66   H15   S    
C93   O6    A    
C70   C71   A    
C19   O27   S    
C2    C3    A    
C102  H39   S    
C34   O26   A    
C78   H22   S    
C9    C10   S    
C70   H17   S    
C62   C104  S    
C34   C75   S    
C72   C73   T    
C23   O23   A    
C96   O18   A    
C25   C98   S    
C97   O28   D    
C101  H38   S    
C69   C103  S    
C37   N10   A    
C46   H9    S    
C33   O33   S    
C45   O2    A    
C36   N11   A    
C93   O11   A    
C61   C62   A    
C67   C78   A    
C59   C95   S    
C50   O36   S    
N1    N5    A    
Cr6   O18   S    
C21   N6    A    
O49   H48   S    
C44   C46   A    
C17   C18   A    
C57   C58   A    
C54   C59   A    
C104  O43   D    
C78   C89   A    
C39   H6    S    
C12   C67   S    
C37   N9    A    
C32   C37   S    
C103  H41   S    
C31   O32   S    
C47   C48   A    
C23   O1    A    
N8    N9    A    
C38   C39   A    
C76   C77   A    
C51   N4    A    
C86   C87   S    
C16   C17   A    
C40   H8    S    
C63   C73   S    
C83   C105  S    
O45   H44   S    
C25   C26   A    
C85   C86   A    
C17   C21   S    
C56   C60   S    
C81   H19   S    
C60   C61   A    
C14   C23   S    
C2    C89   A    
C85   O48   S    
C21   N5    A    
C5    C9    A    
C62   C63   A    
C77   H21   S    
Cr3   O23   S    
Cr3   O5    S    
C31   C32   A    
N2    N12   A    
C1    O20   A    
Cr4   O6    S    
C94   O15   A    
Cr1   O25   S    
C1    C29   S    
C101  O39   D    
Cr1   O12   S    
C77   C79   A    
C41   O35   S    
C69   C74   A    
C51   C58   S    
C6    H1    S    
C12   O21   A    
C2    C11   S    
C90   C96   S    
C68   H14   S    
C22   H4    S    
C97   H27   S    
Cr6   O11   S    
Cr5   O19   S    
C49   C50   A    
C22   C27   A    
C55   C57   A    
Cr2   O2    S    
N6    N7    A    
C22   C24   A    
C3    C4    A    
C36   N8    A    
Cr6   O17   S    
C53   H12   S    
C82   O45   S    
C44   C50   A    
C100  H36   S    
C83   C90   A    
C104  H42   S    
C46   C47   A    
Cr5   O8    S    
Cr1   O1    S    
Cr2   O5    S    
C61   H16   S    
C14   C19   A    
C75   C81   A    
C44   C45   S    
C24   C28   A    
Cr2   O21   S    
C80   C81   A    
C60   C65   A    
C4    C67   A    
C39   C43   A    
C53   C58   A    
C20   N1    A    
C80   O46   S    
C20   C27   S    
N10   N11   A    
C29   C35   A    
C65   O41   S    
C38   C99   S    
C57   C101  S    
C52   N3    A    
C32   C33   A    
O31   H30   S    
N3    N4    A    
C18   H3    S    
C71   C72   S    
C13   C92   S    
C82   C86   A    
C3    O38   S    
O38   H37   S    
C6    C13   A    
C76   C106  S    
O48   H47   S    
C5    C6    A    
O27   H26   S    
C55   H13   S    
Cr5   O15   S    
C94   O14   A    
C48   C49   A    
C64   C65   A    
C63   C64   A    
C33   C35   A    
C45   O3    A    
C1    O12   A    
C28   C91   S    
C95   O16   A    
C7    H24   S    
C69   C70   A    
C99   O34   D    
Cr2   O26   S    
C35   H5    S    
C10   C11   T    
Cr6   O10   S    
C29   C30   A    
C79   C80   A    
Cr4   O19   S    
C8    H23   S    
C48   C52   S    
Cr2   O20   S    
O36   H35   S    
C87   C88   T    
C105  O44   D    
C82   C83   A    
C92   O10   A    
Cr5   O16   S    
C14   C15   A    
C4    H18   S    
C15   H25   S    
C5    H7    S    
C20   N7    A    
C64   C102  S    
C84   H20   S    
C91   O7    A    
O33   H32   S    
C99   H33   S    
C89   O49   S    
C51   N12   A    
