data_mof_unit_64991.cif
_audit_creation_date              2012-12-10T18:09:17-0500
_audit_creation_method            fapswitch 2.2
_symmetry_space_group_name_H-M    P1
_symmetry_Int_Tables_number       1
_space_group_crystal_system       triclinic
_cell_length_a                    18.364056
_cell_length_b                    18.364341
_cell_length_c                    21.430476
_cell_angle_alpha                 89.923266
_cell_angle_beta                  89.990864
_cell_angle_gamma                 90.070797
_cell_volume                      7227.28278067

loop_
_atom_site_label
_atom_site_type_symbol
_atom_type_description
_atom_site_fract_x
_atom_site_fract_y
_atom_site_fract_z
_atom_type_partial_charge
C1    C     C_R   0.500050 0.139890 0.500065 0.870975
C2    C     C_R   0.499980 0.860110 0.499951 0.881518
C3    C     C_R   0.000049 0.639890 0.000067 0.870497
C4    C     C_R   0.999981 0.360110 0.999951 0.881686
C5    C     C_1   0.500090 0.282723 0.500095 -0.143441
C6    C     C_1   0.499946 0.717278 0.499924 -0.150941
C7    C     C_1   0.000090 0.782723 0.000097 -0.143680
C8    C     C_1   0.999948 0.217278 0.999924 -0.150929
C9    C     C_R   0.639867 0.000036 0.999987 0.839107
C10   C     C_R   0.139867 0.500035 0.499985 0.839368
C11   C     C_R   0.499850 0.000111 0.879545 0.938299
C12   C     C_R   0.500604 0.999917 0.120439 0.936312
C13   C     C_R   0.999796 0.500110 0.379545 0.938308
C14   C     C_R   0.000618 0.499920 0.620439 0.936415
C15   C     C_R   0.360029 0.999964 0.000018 0.853838
C16   C     C_R   0.860028 0.499964 0.500020 0.853710
C17   C     C_R   0.639721 0.499976 0.500000 0.835085
C18   C     C_R   0.139721 0.999976 1.000000 0.835053
C19   C     C_R   0.500036 0.360270 0.500033 0.834871
C20   C     C_R   0.499992 0.639731 0.499970 0.833251
C21   C     C_R   0.000036 0.860270 0.000033 0.834869
C22   C     C_R   0.999993 0.139731 0.999970 0.833254
C23   C     C_R   0.360273 0.500020 0.500001 0.838441
C24   C     C_R   0.860273 0.000021 0.000002 0.838487
C25   C     C_1   0.717409 0.000093 0.999989 -0.151199
C26   C     C_1   0.217409 0.500092 0.499987 -0.151100
C27   C     C_1   0.282719 0.500072 0.499997 -0.169464
C28   C     C_1   0.782718 0.000073 0.999998 -0.169421
C29   C     C_1   0.282523 0.999903 0.000019 -0.143765
C30   C     C_1   0.782523 0.499903 0.500022 -0.143802
C31   C     C_R   0.500008 0.000484 0.620426 0.958737
C32   C     C_R   0.500072 0.999909 0.379560 0.949141
C33   C     C_R   0.000002 0.500478 0.120426 0.958721
C34   C     C_R   0.000072 0.499929 0.879559 0.948956
C35   C     C_1   0.717237 0.499921 0.500010 -0.172397
C36   C     C_1   0.217237 0.999921 0.000008 -0.172336
C37   C     C_3   0.440279 0.035083 0.729912 0.240869
C38   C     C_3   0.567284 0.982318 0.270056 0.257616
C39   C     C_3   0.450827 0.952112 0.269987 0.247641
C40   C     C_3   0.560544 0.033199 0.730070 0.236658
C41   C     C_3   0.939679 0.534140 0.229899 0.240933
C42   C     C_3   0.067524 0.483233 0.770049 0.257847
C43   C     C_3   0.951478 0.451465 0.769988 0.247834
C44   C     C_3   0.059960 0.534133 0.230077 0.236505
C45   C     C_3   0.501000 0.069315 0.769608 0.244250
C46   C     C_3   0.517955 0.933095 0.230441 0.242105
C47   C     C_3   0.999853 0.569320 0.269602 0.244331
C48   C     C_3   0.018858 0.433352 0.730438 0.242000
C49   C     C_3   0.499711 0.000383 0.811266 -0.272322
C50   C     C_3   0.500898 0.999769 0.188695 -0.264006
C51   C     C_3   0.999620 0.500381 0.311265 -0.272323
C52   C     C_3   0.000908 0.499786 0.688694 -0.263968
C53   C     C_3   0.439302 0.965761 0.770539 0.250114
C54   C     C_3   0.549772 0.049182 0.229454 0.241773
C55   C     C_3   0.433916 0.019235 0.229199 0.254483
C56   C     C_3   0.558901 0.963968 0.770600 0.266459
C57   C     C_3   0.939770 0.464819 0.270529 0.250005
C58   C     C_3   0.049112 0.549854 0.729450 0.241620
C59   C     C_3   0.933665 0.518349 0.729193 0.254495
C60   C     C_3   0.059381 0.464887 0.270614 0.266478
C61   C     C_3   0.498709 0.929552 0.729783 0.268262
C62   C     C_3   0.482944 0.068496 0.270013 0.177187
C63   C     C_3   0.999752 0.429536 0.229787 0.268347
C64   C     C_3   0.982026 0.568269 0.770005 0.176673
C65   C     C_3   0.499976 0.999478 0.688711 -0.342620
C66   C     C_3   0.500305 0.000903 0.311254 -0.314237
C67   C     C_3   0.999942 0.499469 0.188711 -0.342584
C68   C     C_3   0.000298 0.500921 0.811251 -0.314165
C69   C     C_1   0.500111 0.217421 0.500106 -0.096772
C70   C     C_1   0.499931 0.782580 0.499926 -0.094176
C71   C     C_1   0.000110 0.717421 0.000109 -0.097244
C72   C     C_1   0.999932 0.282580 0.999926 -0.094016
Cu1   Cu    Cu3+1 0.427480 0.000000 0.500000 1.053652
Cu2   Cu    Cu3+1 0.927480 0.500000 0.000000 1.053662
Cu3   Cu    Cu3+1 0.572540 0.000000 0.500000 1.037807
Cu4   Cu    Cu3+1 0.072540 0.500000 0.000000 1.038008
Cu5   Cu    Cu3+1 0.499930 0.927480 0.000000 1.038030
Cu6   Cu    Cu3+1 0.499930 0.072520 0.000000 1.020002
Cu7   Cu    Cu3+1 0.999930 0.427480 0.500000 1.037983
Cu8   Cu    Cu3+1 0.999930 0.572520 0.500000 1.019809
Cu9   Cu    Cu3+1 0.500000 0.500000 0.562750 0.965845
Cu10  Cu    Cu3+1 0.500000 0.500000 0.437250 0.983877
Cu11  Cu    Cu3+1 0.000000 0.000000 0.062750 0.965935
Cu12  Cu    Cu3+1 0.000000 0.000000 0.937250 0.983559
O1    O     O_R   0.438760 0.105810 0.500000 -0.570942
O2    O     O_R   0.438760 0.894190 0.500000 -0.579952
O3    O     O_R   0.938760 0.605810 0.000000 -0.570622
O4    O     O_R   0.938760 0.394190 0.000000 -0.580521
O5    O     O_R   0.394180 0.500000 0.553000 -0.585929
O6    O     O_R   0.394180 0.500000 0.447000 -0.580074
O7    O     O_R   0.894180 0.000000 0.053000 -0.585840
O8    O     O_R   0.894180 0.000000 0.947000 -0.580105
O9    O     O_R   0.561260 0.105780 0.500000 -0.592424
O10   O     O_R   0.561260 0.894220 0.500000 -0.585257
O11   O     O_R   0.061260 0.605780 0.000000 -0.592581
O12   O     O_R   0.061260 0.394220 0.000000 -0.584841
O13   O     O_R   0.438760 0.000000 0.591570 -0.560963
O14   O     O_R   0.438760 0.000000 0.408430 -0.556558
O15   O     O_R   0.938760 0.500000 0.091570 -0.561226
O16   O     O_R   0.938760 0.500000 0.908430 -0.556271
O17   O     O_R   0.561260 0.000000 0.591560 -0.558832
O18   O     O_R   0.561260 0.000000 0.408440 -0.565579
O19   O     O_R   0.061260 0.500000 0.091560 -0.558491
O20   O     O_R   0.061260 0.500000 0.908440 -0.565811
O21   O     O_R   0.605760 0.938760 0.000000 -0.579326
O22   O     O_R   0.605760 0.061240 0.000000 -0.586830
O23   O     O_R   0.105760 0.438760 0.500000 -0.579117
O24   O     O_R   0.105760 0.561240 0.500000 -0.587009
O25   O     O_R   0.499930 0.938760 0.908410 -0.542781
O26   O     O_R   0.499930 0.938760 0.091590 -0.572347
O27   O     O_R   0.499930 0.061240 0.091590 -0.559359
O28   O     O_R   0.499930 0.061240 0.908410 -0.573631
O29   O     O_R   0.999930 0.438760 0.408410 -0.542777
O30   O     O_R   0.999930 0.438760 0.591590 -0.572393
O31   O     O_R   0.999930 0.561240 0.591590 -0.559488
O32   O     O_R   0.999930 0.561240 0.408410 -0.573605
O33   O     O_R   0.394110 0.938740 0.000000 -0.586286
O34   O     O_R   0.394110 0.061260 0.000000 -0.587146
O35   O     O_R   0.894110 0.438740 0.500000 -0.586236
O36   O     O_R   0.894110 0.561260 0.500000 -0.587213
O37   O     O_R   0.605830 0.500000 0.552990 -0.583700
O38   O     O_R   0.605830 0.500000 0.447010 -0.584077
O39   O     O_R   0.105830 0.000000 0.052990 -0.583674
O40   O     O_R   0.105830 0.000000 0.947010 -0.584122
O41   O     O_R   0.500010 0.394180 0.552980 -0.598662
O42   O     O_R   0.500010 0.394180 0.447020 -0.553148
O43   O     O_R   0.500010 0.605820 0.447020 -0.596136
O44   O     O_R   0.500010 0.605820 0.552980 -0.564683
O45   O     O_R   0.000010 0.894180 0.052980 -0.598587
O46   O     O_R   0.000010 0.894180 0.947020 -0.553449
O47   O     O_R   0.000010 0.105820 0.947020 -0.596066
O48   O     O_R   0.000010 0.105820 0.052980 -0.564681
O49   O     O_3   0.503106 0.140324 0.794794 -0.565245
C73   C     C_3   0.499114 0.192350 0.746283 0.082272
H1    H     H_    0.443266 0.194664 0.726725 0.180052
H2    H     H_    0.537946 0.180560 0.707742 0.167043
C74   C     C_3   0.517371 0.267097 0.772428 -0.807414
H3    H     H_    0.573469 0.267165 0.791786 0.245624
H4    H     H_    0.513916 0.308579 0.734790 0.206739
H5    H     H_    0.478299 0.281545 0.809978 0.256582
O50   O     O_3   0.536614 0.864611 0.205173 -0.568412
C75   C     C_3   0.544929 0.813002 0.253614 0.081036
H6    H     H_    0.491154 0.797201 0.272952 0.179375
H7    H     H_    0.579561 0.833714 0.292340 0.168808
C76   C     C_3   0.580758 0.744959 0.227442 -0.810540
H8    H     H_    0.635273 0.758562 0.208208 0.247970
H9    H     H_    0.587278 0.703780 0.265020 0.204948
H10   H     H_    0.546480 0.721518 0.189777 0.259330
O51   O     O_3   0.000845 0.640350 0.294786 -0.565155
C77   C     C_3   0.996054 0.692298 0.246270 0.082138
H11   H     H_    0.940232 0.693612 0.226585 0.180149
H12   H     H_    0.035215 0.681207 0.207821 0.166961
C78   C     C_3   0.012876 0.767354 0.272466 -0.807388
H13   H     H_    0.068911 0.768427 0.291941 0.245773
H14   H     H_    0.008772 0.808778 0.234831 0.206716
H15   H     H_    0.973435 0.781074 0.309937 0.256530
O52   O     O_3   0.038423 0.365141 0.705136 -0.568580
C79   C     C_3   0.047440 0.313623 0.753551 0.081183
H16   H     H_    0.993901 0.297198 0.772990 0.179440
H17   H     H_    0.081931 0.334727 0.792214 0.168925
C80   C     C_3   0.083975 0.246003 0.727297 -0.811258
H18   H     H_    0.138265 0.260245 0.707938 0.248273
H19   H     H_    0.091088 0.204901 0.764857 0.204863
H20   H     H_    0.049860 0.222160 0.689708 0.259411
O53   O     O_3   0.380052 0.071327 0.703216 -0.568800
C81   C     C_3   0.331469 0.093536 0.750565 0.097498
H21   H     H_    0.359882 0.120899 0.789997 0.172272
H22   H     H_    0.300883 0.046113 0.768929 0.181487
C82   C     C_3   0.276754 0.146916 0.723289 -0.821629
H23   H     H_    0.245781 0.120646 0.684900 0.262279
H24   H     H_    0.237973 0.164356 0.760101 0.205645
H25   H     H_    0.305370 0.195683 0.704789 0.245120
O54   O     O_3   0.635729 0.965128 0.296233 -0.564919
C83   C     C_3   0.685610 0.946994 0.248578 0.096412
H26   H     H_    0.684389 0.986299 0.209109 0.177984
H27   H     H_    0.674058 0.891759 0.230170 0.175354
C84   C     C_3   0.762194 0.946923 0.275482 -0.806681
H28   H     H_    0.766122 0.906392 0.313848 0.255066
H29   H     H_    0.802006 0.932506 0.238506 0.204263
H30   H     H_    0.775733 0.001776 0.293956 0.254524
O55   O     O_3   0.400747 0.902893 0.296972 -0.578579
C85   C     C_3   0.358770 0.869475 0.249821 0.097994
H31   H     H_    0.393001 0.848009 0.211143 0.175456
H32   H     H_    0.318948 0.908553 0.230282 0.181648
C86   C     C_3   0.316455 0.806197 0.277904 -0.828866
H33   H     H_    0.280765 0.825971 0.316127 0.261227
H34   H     H_    0.282059 0.780467 0.241455 0.206233
H35   H     H_    0.354674 0.764868 0.296814 0.245811
O56   O     O_3   0.623099 0.065941 0.703842 -0.567791
C87   C     C_3   0.667528 0.095054 0.751483 0.103761
H36   H     H_    0.674093 0.057187 0.791610 0.175985
H37   H     H_    0.644423 0.146983 0.768906 0.175251
C88   C     C_3   0.742751 0.110662 0.725001 -0.818031
H38   H     H_    0.738764 0.150825 0.686360 0.253841
H39   H     H_    0.778425 0.133196 0.762107 0.205805
H40   H     H_    0.767350 0.059612 0.707007 0.256337
O57   O     O_3   0.878895 0.569433 0.203195 -0.568396
C89   C     C_3   0.829964 0.590906 0.250531 0.097019
H41   H     H_    0.857943 0.618750 0.289943 0.172069
H42   H     H_    0.800136 0.543018 0.268924 0.181551
C90   C     C_3   0.774408 0.643386 0.223214 -0.820626
H43   H     H_    0.743924 0.616611 0.184794 0.262196
H44   H     H_    0.735287 0.660189 0.259984 0.205653
H45   H     H_    0.802250 0.692614 0.204741 0.244910
O58   O     O_3   0.136208 0.466969 0.796206 -0.564696
C91   C     C_3   0.186319 0.449517 0.748537 0.096223
H46   H     H_    0.184531 0.488780 0.709052 0.177982
H47   H     H_    0.175536 0.394118 0.730148 0.175243
C92   C     C_3   0.262912 0.450534 0.775409 -0.806153
H48   H     H_    0.267441 0.410066 0.813773 0.254993
H49   H     H_    0.302906 0.436686 0.738416 0.204380
H50   H     H_    0.275686 0.505571 0.793878 0.254529
O59   O     O_3   0.902064 0.401581 0.796985 -0.579041
C93   C     C_3   0.860537 0.367577 0.749845 0.098218
H51   H     H_    0.895040 0.346641 0.711128 0.175621
H52   H     H_    0.820132 0.406083 0.730351 0.181636
C94   C     C_3   0.819174 0.303662 0.777916 -0.828963
H53   H     H_    0.783195 0.322880 0.816149 0.261109
H54   H     H_    0.785162 0.277426 0.741466 0.206189
H55   H     H_    0.858000 0.262896 0.796811 0.245970
O60   O     O_3   0.121995 0.567835 0.203840 -0.568321
C95   C     C_3   0.166000 0.597601 0.251473 0.104315
H56   H     H_    0.172857 0.559999 0.291749 0.176010
H57   H     H_    0.142302 0.649365 0.268676 0.175008
C96   C     C_3   0.241128 0.613848 0.225079 -0.818546
H58   H     H_    0.236847 0.653896 0.186373 0.253925
H59   H     H_    0.276521 0.636764 0.262207 0.205711
H60   H     H_    0.266228 0.562993 0.207188 0.256322
O61   O     O_3   0.378371 0.934865 0.801062 -0.583514
C97   C     C_3   0.335119 0.895287 0.758708 0.140577
H61   H     H_    0.358630 0.840245 0.752292 0.229345
H62   H     H_    0.329673 0.923287 0.712743 0.177931
C98   C     C_3   0.259331 0.885093 0.786153 -0.818369
H63   H     H_    0.232794 0.938648 0.793558 0.243162
H64   H     H_    0.225359 0.852379 0.753719 0.214008
H65   H     H_    0.262909 0.856060 0.831555 0.264641
O62   O     O_3   0.600080 0.096207 0.199831 -0.585850
C99   C     C_3   0.638884 0.137790 0.244055 0.127049
H66   H     H_    0.647048 0.109139 0.289395 0.193158
H67   H     H_    0.609566 0.189639 0.252255 0.200928
C100  C     C_3   0.713453 0.156843 0.217670 -0.805578
H68   H     H_    0.707341 0.187407 0.173221 0.261298
H69   H     H_    0.743733 0.191255 0.251468 0.213273
H70   H     H_    0.745205 0.106520 0.208809 0.248120
O63   O     O_3   0.367868 0.035084 0.198181 -0.594096
C101  C     C_3   0.315560 0.061828 0.240359 0.133361
H71   H     H_    0.324721 0.120828 0.247850 0.234859
H72   H     H_    0.316380 0.032447 0.285918 0.178616
C102  C     C_3   0.240126 0.053462 0.211792 -0.800977
H73   H     H_    0.227751 0.995162 0.203240 0.236604
H74   H     H_    0.198550 0.075936 0.244071 0.216916
H75   H     H_    0.237268 0.083467 0.166810 0.266689
O64   O     O_3   0.618316 0.930039 0.800736 -0.577283
C103  C     C_3   0.666090 0.898541 0.756947 0.148069
H76   H     H_    0.668335 0.928596 0.711763 0.184305
H77   H     H_    0.649208 0.841418 0.748339 0.225523
C104  C     C_3   0.742547 0.896943 0.784252 -0.778525
H78   H     H_    0.742793 0.865479 0.828558 0.270618
H79   H     H_    0.780443 0.870704 0.750761 0.228029
H80   H     H_    0.761792 0.953186 0.793677 0.239051
O65   O     O_3   0.879306 0.432974 0.301020 -0.583141
C105  C     C_3   0.836712 0.392731 0.258637 0.140566
H81   H     H_    0.861078 0.338058 0.252247 0.229494
H82   H     H_    0.830885 0.420637 0.212666 0.177857
C106  C     C_3   0.761059 0.381375 0.286023 -0.817921
H83   H     H_    0.733703 0.434517 0.293423 0.243300
H84   H     H_    0.727620 0.348162 0.253553 0.214018
H85   H     H_    0.765036 0.352379 0.331417 0.264642
O66   O     O_3   0.098798 0.597548 0.699837 -0.585525
C107  C     C_3   0.137008 0.639673 0.744066 0.127084
H86   H     H_    0.145533 0.611155 0.789419 0.192952
H87   H     H_    0.106981 0.691121 0.752236 0.201177
C108  C     C_3   0.211331 0.659734 0.717711 -0.804862
H88   H     H_    0.204837 0.690185 0.673245 0.261271
H89   H     H_    0.241112 0.694580 0.751508 0.213256
H90   H     H_    0.243780 0.609850 0.708890 0.248081
O67   O     O_3   0.867417 0.533289 0.698155 -0.594327
C109  C     C_3   0.814736 0.559354 0.740306 0.133161
H91   H     H_    0.823097 0.618476 0.747769 0.234612
H92   H     H_    0.815934 0.530019 0.785881 0.178668
C110  C     C_3   0.739429 0.549954 0.711724 -0.801152
H93   H     H_    0.727836 0.491488 0.703203 0.236545
H94   H     H_    0.697540 0.571890 0.743978 0.216695
H95   H     H_    0.736179 0.579879 0.666723 0.266672
O68   O     O_3   0.119282 0.431878 0.300793 -0.577606
C111  C     C_3   0.167630 0.401204 0.257037 0.148744
H96   H     H_    0.169475 0.431349 0.211887 0.184322
H97   H     H_    0.151677 0.343832 0.248353 0.225400
C112  C     C_3   0.244049 0.400801 0.284452 -0.780206
H98   H     H_    0.244718 0.369237 0.328702 0.270583
H99   H     H_    0.282441 0.375277 0.250970 0.227366
H100  H     H_    0.262338 0.457332 0.294013 0.239182
S1    S     S_3+6 0.499292 0.840910 0.694942 -0.035273
O69   O     O_2   0.433147 0.831683 0.654431 -0.341838
O70   O     O_2   0.566002 0.832509 0.655010 -0.335375
O71   O     O_3   0.499363 0.777367 0.751454 -0.525931
H101  H     H_    0.499048 0.730222 0.729062 0.372053
S2    S     S_3+6 0.461680 0.155046 0.304099 -0.011042
O72   O     O_2   0.396218 0.147321 0.345644 -0.286994
O73   O     O_2   0.524429 0.181269 0.343037 -0.327878
O74   O     O_3   0.443621 0.216227 0.247767 -0.504011
H102  H     H_    0.479427 0.206100 0.214343 0.348950
S3    S     S_3+6 0.001759 0.340916 0.194955 -0.035232
O75   O     O_2   0.935773 0.330620 0.154441 -0.342468
O76   O     O_2   0.068605 0.333585 0.155029 -0.334769
O77   O     O_3   0.002848 0.277397 0.251479 -0.525853
H103  H     H_    0.003680 0.230250 0.229095 0.372025
S4    S     S_3+6 0.959599 0.654552 0.804046 -0.010866
O78   O     O_2   0.894197 0.646003 0.845544 -0.286361
O79   O     O_2   0.021965 0.681597 0.843022 -0.327952
O80   O     O_3   0.940807 0.715480 0.747688 -0.504394
H104  H     H_    0.976477 0.705514 0.714121 0.348917

loop_
_geom_bond_atom_site_label_1
_geom_bond_atom_site_label_2
_ccdc_geom_bond_type
O52   C79   S    
C82   H24   S    
C42   C58   S    
C76   H8    S    
C41   C67   S    
O74   H102  S    
C110  H95   S    
C31   O17   A    
C55   C62   S    
C96   H60   S    
C85   H31   S    
C103  H77   S    
C4    O12   A    
C14   C52   S    
Cu8   O32   S    
C43   C68   S    
C23   O5    A    
C57   C63   S    
C51   C57   S    
S4    O80   S    
Cu4   O19   S    
O63   C101  S    
C90   H45   S    
Cu1   Cu3   S    
C105  C106  S    
C80   H19   S    
C46   O50   S    
C63   C67   S    
C74   H5    S    
C99   H67   S    
S3    O76   D    
C34   C68   S    
C107  H86   S    
C91   H46   S    
Cu2   O16   S    
O55   C85   S    
C19   O41   A    
Cu9   O37   S    
C94   H55   S    
C85   C86   S    
O61   C97   S    
C11   C49   S    
S3    O75   D    
O77   H103  S    
C78   H15   S    
C97   H62   S    
C83   C84   S    
C52   C58   S    
O71   H101  S    
C40   C65   S    
Cu9   O44   S    
C79   H16   S    
C75   H7    S    
S2    O72   D    
C37   C45   S    
C76   H10   S    
Cu3   O9    S    
C31   C65   S    
O58   C91   S    
C111  C112  S    
C11   O28   A    
C86   H35   S    
C105  H82   S    
C32   O18   A    
Cu11  O7    S    
C45   O49   S    
C95   C96   S    
C15   O34   A    
Cu6   O22   S    
C110  H93   S    
Cu4   O12   S    
C111  H97   S    
O59   C93   S    
Cu12  O46   S    
C32   O14   A    
C64   S4    S    
C61   C65   S    
C17   O38   A    
C48   C52   S    
C1    O9    A    
C88   H38   S    
Cu3   O17   S    
C3    O11   A    
C104  H79   S    
C92   H50   S    
Cu10  O38   S    
C49   C53   S    
C87   H36   S    
C10   O24   A    
C108  H90   S    
C12   O26   A    
C102  H73   S    
O60   C95   S    
Cu2   Cu4   S    
C64   C68   S    
Cu6   O34   S    
Cu11  O45   S    
C16   O36   A    
O65   C105  S    
C93   H52   S    
C86   H34   S    
C16   C30   S    
C42   O58   S    
C100  H68   S    
C83   H26   S    
C53   C61   S    
C84   H29   S    
C37   C65   S    
C8    C22   S    
Cu6   O27   S    
Cu2   O3    S    
C98   H63   S    
C87   C88   S    
C43   C59   S    
C37   C53   S    
C13   C51   S    
O67   C109  S    
C81   H22   S    
C90   H44   S    
C97   H61   S    
C24   O8    A    
S4    O79   D    
C112  H98   S    
C58   C64   S    
Cu1   O14   S    
C62   C66   S    
C2    O10   A    
C20   O43   A    
C41   O57   S    
C37   O53   S    
C103  C104  S    
C94   H53   S    
C109  C110  S    
C33   O15   A    
C95   H57   S    
S1    O69   D    
Cu11  Cu12  S    
C88   H40   S    
Cu1   O1    S    
C92   H48   S    
C41   C47   S    
C42   C48   S    
Cu5   O25   S    
C106  H84   S    
C21   O45   A    
Cu7   O29   S    
C101  H71   S    
C102  H75   S    
Cu9   O41   S    
C75   H6    S    
C24   C28   S    
C12   C50   S    
C73   H1    S    
C4    O4    A    
C110  H94   S    
Cu8   O24   S    
C104  H80   S    
Cu11  O39   S    
C18   C36   S    
C96   H59   S    
C77   H12   S    
O57   C89   S    
C98   H65   S    
C85   H32   S    
C38   C46   S    
C109  H91   S    
C44   C67   S    
C51   C60   S    
Cu12  O8    S    
C101  C102  S    
Cu4   O20   S    
C22   O47   A    
C75   C76   S    
C73   C74   S    
C80   H18   S    
C9    C25   S    
Cu5   Cu6   S    
C25   C28   T    
C74   H4    S    
C99   C100  S    
C57   O65   S    
C26   C27   T    
C50   C54   S    
S1    O71   S    
C91   H47   S    
C14   O31   A    
C112  H100  S    
C60   O68   S    
C82   H23   S    
Cu10  O42   S    
C5    C69   T    
C79   C80   S    
C39   C55   S    
C40   O56   S    
C40   C56   S    
C77   C78   S    
Cu7   O35   S    
C34   O16   A    
C78   H14   S    
C18   O39   A    
Cu9   O5    S    
O66   C107  S    
C79   H17   S    
C107  C108  S    
S2    O73   D    
C76   H9    S    
C15   C29   S    
S3    O77   S    
C40   C45   S    
C8    C72   T    
C47   C51   S    
C54   C62   S    
C7    C21   S    
C1    C69   S    
C15   O33   A    
S2    O74   S    
C3    C71   S    
O68   C111  S    
C58   O66   S    
Cu8   O31   S    
C45   C49   S    
C23   O6    A    
Cu7   O23   S    
C105  H81   S    
C17   O37   A    
C61   S1    S    
C59   O67   S    
O49   C73   S    
C39   C66   S    
Cu12  O40   S    
C4    C72   S    
C80   H20   S    
C32   C66   S    
C6    C70   T    
C99   H66   S    
C87   H37   S    
C33   O19   A    
C54   O62   S    
C20   O44   A    
Cu2   O15   S    
C5    C19   S    
C6    C20   S    
C48   O52   S    
C19   O42   A    
Cu10  O6    S    
C100  H70   S    
Cu5   O21   S    
C41   C57   S    
Cu11  O48   S    
C14   O30   A    
O51   C77   S    
C86   H33   S    
O64   C103  S    
C44   C60   S    
C31   O13   A    
O56   C87   S    
C83   H27   S    
C13   O32   A    
C84   H28   S    
C56   C61   S    
C112  H99   S    
Cu6   O28   S    
Cu1   O2    S    
C17   C35   S    
Cu2   O4    S    
C2    C70   S    
C9    O21   A    
Cu3   O10   S    
C53   O61   S    
O80   H104  S    
Cu8   O36   S    
C63   S3    S    
O53   C81   S    
C11   O25   A    
C90   H43   S    
Cu9   Cu10  S    
O54   C83   S    
Cu1   O13   S    
C29   C36   T    
C59   C64   S    
C103  H76   S    
C30   C35   T    
C60   C63   S    
C104  H78   S    
Cu5   O33   S    
Cu4   O11   S    
C7    C71   T    
C111  H96   S    
C97   C98   S    
C108  H89   S    
C38   C66   S    
C88   H39   S    
C38   C54   S    
Cu3   O18   S    
C89   H41   S    
C23   C27   S    
C43   C48   S    
C44   C47   S    
C10   C26   S    
C56   O64   S    
C42   C68   S    
C10   O23   A    
Cu5   O26   S    
C1    O1    A    
Cu10  O43   S    
C101  H72   S    
C102  H74   S    
C3    O3    A    
C47   O51   S    
C16   O35   A    
C93   H51   S    
C38   O54   S    
C73   H2    S    
C9    O22   A    
C34   O20   A    
C100  H69   S    
C52   C59   S    
C84   H30   S    
C89   C90   S    
C96   H58   S    
C98   H64   S    
C39   O55   S    
C39   C46   S    
C81   H21   S    
C62   S2    S    
C82   H25   S    
C109  H92   S    
C43   O59   S    
C24   O7    A    
S4    O78   D    
C33   C67   S    
C106  H83   S    
C22   O48   A    
C77   H11   S    
C89   H42   S    
C93   C94   S    
C94   H54   S    
C49   C56   S    
C74   H3    S    
C46   C50   S    
Cu12  O47   S    
C50   C55   S    
S1    O70   D    
O50   C75   S    
C91   C92   S    
C92   H49   S    
C2    O2    A    
C107  H87   S    
C95   H56   S    
C106  H85   S    
C21   O46   A    
Cu7   Cu8   S    
C81   C82   S    
C55   O63   S    
Cu7   O30   S    
C44   O60   S    
C78   H13   S    
O62   C99   S    
C12   O27   A    
C13   O29   A    
C18   O40   A    
C108  H88   S    
