data_mof_unit_65806.cif
_audit_creation_date              2013-03-05T16:49:33-0500
_audit_creation_method            fapswitch 2.2
_symmetry_space_group_name_H-M    P1
_symmetry_Int_Tables_number       1
_space_group_crystal_system       triclinic
_cell_length_a                    11.162329
_cell_length_b                    19.487579
_cell_length_c                    18.172493
_cell_angle_alpha                 87.603687
_cell_angle_beta                  89.071855
_cell_angle_gamma                 98.339654
_cell_volume                      3906.79186365

loop_
_atom_site_label
_atom_site_type_symbol
_atom_site_description
_atom_site_fract_x
_atom_site_fract_y
_atom_site_fract_z
_atom_type_partial_charge
O1    O     O_R   0.500010 0.400130 0.561970 -0.530979
O2    O     O_R   0.499990 0.599870 0.438030 -0.530979
O3    O     O_R   0.500020 0.400160 0.438070 -0.552500
O4    O     O_R   0.499980 0.599840 0.561930 -0.552500
C1    C     C_R   0.503932 0.367277 0.501523 0.910606
C2    C     C_R   0.496068 0.632723 0.498477 0.910605
O5    O     O_R   0.319640 0.499990 0.561950 -0.494571
O6    O     O_R   0.680360 0.500010 0.438050 -0.494571
O7    O     O_R   0.319650 0.500020 0.438050 -0.616893
O8    O     O_R   0.680350 0.499980 0.561950 -0.616893
C3    C     C_R   0.261355 0.497985 0.500111 0.901921
C4    C     C_R   0.738645 0.502015 0.499889 0.901922
Cu1   Cu    Cu3+1 0.499990 0.499980 0.573360 1.108302
Cu2   Cu    Cu3+1 0.500010 0.500020 0.426640 1.108301
C5    C     C_R   0.220062 0.612399 0.263520 -0.207296
C6    C     C_R   0.779938 0.387601 0.736480 -0.207296
H1    H     H_    0.261812 0.663867 0.244663 0.241855
H2    H     H_    0.738187 0.336133 0.755337 0.241854
C7    C     C_R   0.188717 0.598521 0.338270 0.360206
C8    C     C_R   0.811283 0.401479 0.661729 0.360205
C9    C     C_R   0.130345 0.531128 0.361141 -0.059530
C10   C     C_R   0.869655 0.468872 0.638859 -0.059530
C11   C     C_R   0.104588 0.479563 0.308364 0.124384
C12   C     C_R   0.895412 0.520437 0.691636 0.124384
C13   C     C_R   0.136196 0.495332 0.233391 0.127881
C14   C     C_R   0.863804 0.504668 0.766609 0.127881
C15   C     C_R   0.192418 0.562436 0.211399 0.087881
C16   C     C_R   0.807581 0.437563 0.788601 0.087881
C17   C     C_R   0.944295 0.522954 0.437028 0.303697
C18   C     C_R   0.055705 0.477046 0.562972 0.303697
C19   C     C_R   0.872626 0.502613 0.500873 -0.186625
C20   C     C_R   0.127374 0.497387 0.499126 -0.186625
C21   C     C_R   0.931121 0.481739 0.565156 -0.024182
C22   C     C_R   0.068879 0.518261 0.434844 -0.024182
C23   C     C_R   0.477823 0.248568 0.569204 0.242719
C24   C     C_R   0.522172 0.751431 0.430796 0.242717
C25   C     C_R   0.476384 0.176358 0.568599 0.281576
C26   C     C_R   0.523603 0.823641 0.431400 0.281579
C27   C     C_R   0.509312 0.145617 0.504265 -0.160628
C28   C     C_R   0.490677 0.854382 0.495734 -0.160624
C29   C     C_R   0.549866 0.187633 0.442068 -0.195816
C30   C     C_R   0.450127 0.812366 0.557931 -0.195820
H3    H     H_    0.579746 0.164131 0.393327 0.224513
H4    H     H_    0.420248 0.835868 0.606673 0.224512
C31   C     C_R   0.555134 0.259808 0.441836 0.327015
C32   C     C_R   0.444863 0.740191 0.558165 0.327018
C33   C     C_R   0.513287 0.291367 0.504666 -0.273523
C34   C     C_R   0.486711 0.708633 0.495334 -0.273525
N1    N     N_R   0.585912 0.042217 0.460466 -0.175658
N2    N     N_R   0.414075 0.957782 0.539533 -0.175657
N3    N     N_R   0.581832 0.973764 0.458882 -0.134111
N4    N     N_R   0.418156 0.026235 0.541117 -0.134108
C35   C     C_R   0.495710 0.930245 0.498157 0.485374
C36   C     C_R   0.504277 0.069754 0.501842 0.485365
C37   C     C_R   0.565454 0.553916 0.272535 0.440305
C38   C     C_R   0.434546 0.446084 0.727465 0.440306
C39   C     C_R   0.544798 0.560488 0.195671 0.052537
C40   C     C_R   0.455202 0.439512 0.804329 0.052536
C41   C     C_R   0.488943 0.503635 0.158307 -0.099201
C42   C     C_R   0.511057 0.496365 0.841693 -0.099201
C43   C     C_R   0.431282 0.447299 0.201655 -0.273500
C44   C     C_R   0.568718 0.552701 0.798345 -0.273500
H5    H     H_    0.383602 0.403013 0.175011 0.216666
H6    H     H_    0.616398 0.596987 0.824989 0.216666
C45   C     C_R   0.431370 0.447659 0.279393 0.302948
C46   C     C_R   0.568631 0.552341 0.720607 0.302948
N5    N     N_R   0.500010 0.500050 0.316380 -0.260113
N6    N     N_R   0.499990 0.499950 0.683620 -0.260113
N7    N     N_R   0.403755 0.465109 0.037863 -0.188704
N8    N     N_R   0.596245 0.534891 0.962137 -0.188704
N9    N     N_R   0.409340 0.463755 0.964383 -0.162417
N10   N     N_R   0.590660 0.536245 0.035617 -0.162417
C47   C     C_R   0.505974 0.498118 0.924611 0.485981
C48   C     C_R   0.494026 0.501881 0.075389 0.485981
I1    I     I_    0.226294 0.595663 0.099222 -0.121758
I2    I     I_    0.773706 0.404336 0.900778 -0.121758
N11   N     N_R   0.609097 0.300065 0.378526 0.160275
O9    O     O_R   0.694952 0.351677 0.387030 -0.265134
O10   O     O_R   0.589765 0.277404 0.312784 -0.292623
N12   N     N_R   0.390903 0.699934 0.621475 0.160275
O11   O     O_R   0.305048 0.648321 0.612972 -0.265134
O12   O     O_R   0.410236 0.722595 0.687217 -0.292624
N13   N     N_R   0.668699 0.599063 0.298532 0.195457
O13   O     O_R   0.683804 0.611866 0.367137 -0.273078
O14   O     O_R   0.757172 0.623194 0.252705 -0.224788
N14   N     N_R   0.331301 0.400937 0.701468 0.195456
O15   O     O_R   0.316196 0.388133 0.632863 -0.273080
O16   O     O_R   0.242828 0.376806 0.747295 -0.224788
I3    I     I_    0.581804 0.660912 0.139605 0.016168
I4    I     I_    0.418196 0.339088 0.860395 0.016169
I5    I     I_    0.321699 0.359616 0.329355 -0.186359
I6    I     I_    0.678301 0.640384 0.670645 -0.186358
N15   N     N_R   0.205724 0.655160 0.387760 0.162524
O17   O     O_R   0.209455 0.644107 0.458647 -0.355193
O18   O     O_R   0.219384 0.719137 0.361725 -0.257788
N16   N     N_R   0.794276 0.344840 0.612240 0.162525
O19   O     O_R   0.790545 0.355893 0.541353 -0.355191
O20   O     O_R   0.780615 0.280863 0.638275 -0.257785
I7    I     I_    0.000903 0.380620 0.341267 -0.037609
I8    I     I_    0.999097 0.619380 0.658733 -0.037610
I9    I     I_    0.092368 0.419932 0.152293 -0.082655
I10   I     I_    0.907632 0.580067 0.847707 -0.082655
N17   N     N_R   0.893328 0.552020 0.373533 0.144850
O21   O     O_R   0.927701 0.617343 0.355598 -0.244454
O22   O     O_R   0.845852 0.510845 0.323835 -0.282587
N18   N     N_R   0.106672 0.447980 0.626467 0.144850
O23   O     O_R   0.072298 0.382657 0.644401 -0.244454
O24   O     O_R   0.154148 0.489155 0.676164 -0.282586
N19   N     N_R   0.447399 0.277227 0.637077 0.172510
O25   O     O_R   0.343734 0.254588 0.669723 -0.207354
O26   O     O_R   0.533158 0.310392 0.675021 -0.344919
N20   N     N_R   0.552599 0.722773 0.362923 0.172508
O27   O     O_R   0.656266 0.745410 0.330280 -0.207353
O28   O     O_R   0.466842 0.689608 0.324977 -0.344922
N21   N     N_R   0.450504 0.135091 0.635685 0.169585
O29   O     O_R   0.538070 0.111966 0.670894 -0.249930
O30   O     O_R   0.338848 0.113994 0.656816 -0.225253
N22   N     N_R   0.549473 0.864908 0.364312 0.169587
O31   O     O_R   0.461904 0.888049 0.329120 -0.249945
O32   O     O_R   0.661125 0.885997 0.343169 -0.225244

loop_
_geom_bond_atom_site_label_1
_geom_bond_atom_site_label_2
_geom_bond_distance
_ccdc_geom_bond_type
C6    C16   1.392762 A    
C46   N6    1.388654 A    
N15   O17   1.299502 A    
N21   O30   1.300960 A    
C11   I7    2.156081 S    
C23   C33   1.426611 A    
N20   O28   1.299511 A    
C27   C29   1.396911 A    
N11   O9    1.300813 A    
C5    C7    1.402588 A    
C1    C33   1.496806 S    
C39   I3    2.150277 S    
O1    C1    1.297634 A    
C23   C25   1.405470 A    
C12   C14   1.411780 A    
N19   O26   1.299511 A    
N14   O16   1.302238 A    
C39   C41   1.397682 A    
C27   C36   1.473822 S    
N18   O23   1.301345 A    
C40   C42   1.397682 A    
N1    C36   1.355389 A    
C42   C47   1.508973 S    
C17   N17   1.426878 S    
C42   C44   1.395116 A    
C30   C32   1.399025 A    
C31   C33   1.422972 A    
O4    Cu1   1.948445 S    
N7    N9    1.337301 A    
N22   O31   1.300704 A    
C44   H6    1.082852 S    
C5    C15   1.392762 A    
N1    N3    1.329665 A    
N16   O20   1.301815 A    
C24   N20   1.430958 S    
N2    N4    1.329667 A    
Cu2   N5    2.003675 S    
C19   C21   1.420728 A    
C18   C20   1.408093 A    
C23   N19   1.430960 S    
O6    C4    1.306771 A    
C28   C30   1.396910 A    
C8    N16   1.445987 S    
N15   O18   1.301813 A    
Cu1   Cu2   2.666234 S    
C18   N18   1.426877 S    
C29   H3    1.083620 S    
O2    C2    1.297636 A    
C30   H4    1.083620 S    
C15   I1    2.124020 S    
O8    C4    1.289152 A    
N20   O27   1.301286 A    
N4    C36   1.357727 A    
N11   O10   1.301431 A    
C32   C34   1.422973 A    
C41   C43   1.395116 A    
N2    C35   1.355387 A    
C44   C46   1.413014 A    
N10   C48   1.363474 A    
N9    C47   1.363474 A    
N14   O15   1.290593 A    
C46   I6    2.119246 S    
C9    C22   1.489874 S    
C45   N5    1.388655 A    
C38   N6    1.399698 A    
C17   C22   1.406866 A    
N3    C35   1.357728 A    
C20   C22   1.420727 A    
O5    C3    1.306771 A    
O7    Cu2   2.020542 S    
C40   I4    2.150277 S    
C38   N14   1.443495 S    
N13   O13   1.290592 A    
C6    C8    1.402588 A    
N16   O19   1.299502 A    
N8    C47   1.359259 A    
C43   H5    1.082853 S    
N7    C48   1.359260 A    
N17   O22   1.301190 A    
C6    H2    1.082160 S    
O7    C3    1.289152 A    
C41   C48   1.508973 S    
O3    Cu2   1.948445 S    
C2    C34   1.496807 S    
O4    C2    1.300051 A    
N13   O14   1.302239 A    
C8    C10   1.421082 A    
C3    C20   1.494299 S    
C9    C11   1.420568 A    
C4    C19   1.494299 S    
C10   C12   1.420568 A    
O1    Cu1   1.965433 S    
C37   N13   1.443495 S    
C16   I2    2.124020 S    
C45   I5    2.119245 S    
C10   C21   1.489874 S    
O6    Cu2   2.027143 S    
C18   C21   1.406866 A    
C7    C9    1.421081 A    
C12   I8    2.156080 S    
N12   O11   1.300812 A    
O3    C1    1.300052 A    
O8    Cu1   2.020545 S    
C7    N15   1.445987 S    
C37   N5    1.399697 A    
C5    H1    1.082161 S    
C25   N21   1.433755 S    
C13   C15   1.404904 A    
C14   C16   1.404906 A    
C37   C39   1.422917 A    
C25   C27   1.403321 A    
N19   O25   1.301287 A    
C14   I10   2.136874 S    
C26   C28   1.403320 A    
C13   I9    2.136876 S    
N18   O24   1.301191 A    
C24   C26   1.405470 A    
N12   O12   1.301431 A    
C38   C40   1.422918 A    
C24   C34   1.426611 A    
C11   C13   1.411778 A    
O2    Cu2   1.965433 S    
N22   O32   1.300963 A    
C26   N22   1.433759 S    
C43   C45   1.413014 A    
O5    Cu1   2.027142 S    
C17   C19   1.408093 A    
C28   C35   1.473821 S    
N17   O21   1.301345 A    
C29   C31   1.399025 A    
N8    N10   1.337303 A    
C32   N12   1.437676 S    
C31   N11   1.437676 S    
N21   O29   1.300703 A    
Cu1   N6    2.003675 S    
