data_mof_unit_33804.cif
_audit_creation_date              2013-03-05T16:05:41-0500
_audit_creation_method            fapswitch 2.2
_symmetry_space_group_name_H-M    P1
_symmetry_Int_Tables_number       1
_space_group_crystal_system       triclinic
_cell_length_a                    10.852819
_cell_length_b                    14.965126
_cell_length_c                    15.495916
_cell_angle_alpha                 80.64652
_cell_angle_beta                  93.455628
_cell_angle_gamma                 102.808551
_cell_volume                      2420.72669082

loop_
_atom_site_label
_atom_site_type_symbol
_atom_site_description
_atom_site_fract_x
_atom_site_fract_y
_atom_site_fract_z
_atom_type_partial_charge
O1    O     O_R   0.462770 0.383110 0.605620 -0.568664
O2    O     O_R   0.510160 0.531900 0.639510 -0.539184
C1    C     C_R   0.477798 0.441224 0.662877 1.011546
O3    O     O_R   0.661510 0.425600 0.483070 -0.547860
O4    O     O_R   0.708900 0.574390 0.516960 -0.568021
C2    C     C_R   0.742205 0.502440 0.494886 1.059185
Zn1   Zn    Zn3+2 0.468350 0.400660 0.477370 1.183064
Zn2   Zn    Zn3+2 0.531650 0.599340 0.522630 1.183124
O5    O     O_R   0.489840 0.468100 0.360490 -0.544280
O6    O     O_R   0.537230 0.616890 0.394380 -0.549949
O7    O     O_R   0.291100 0.425610 0.483040 -0.573326
O8    O     O_R   0.338490 0.574400 0.516930 -0.559242
C3    C     C_R   0.513326 0.558791 0.337757 1.050543
C4    C     C_R   0.258501 0.499706 0.500015 1.050295
C5    C     C_3   0.896833 0.404975 0.472329 0.734688
C6    C     C_3   0.040889 0.410326 0.462011 -0.126175
H1    H     H_    0.062170 0.346463 0.501634 0.247184
C7    C     C_3   0.954470 0.578606 0.419747 0.539766
C8    C     C_3   0.942550 0.515963 0.594821 0.244984
C9    C     C_3   0.879937 0.502386 0.495522 -0.626326
C10   C     C_3   0.122072 0.498538 0.501571 -0.584737
C11   C     C_3   0.096033 0.591453 0.445178 1.064290
C12   C     C_3   0.078685 0.487409 0.601120 0.216373
C13   C     C_R   0.443056 0.406057 0.756025 -0.322846
C14   C     C_R   0.506034 0.595570 0.244224 -0.449059
C15   C     C_R   0.350981 0.285623 0.875026 0.288167
C16   C     C_R   0.390875 0.312009 0.788093 0.178137
C17   C     C_R   0.455980 0.471117 0.813460 0.740948
C18   C     C_R   0.407068 0.447643 0.897755 -0.093983
C19   C     C_R   0.364307 0.352700 0.931317 -0.343955
C20   C     C_R   0.415193 0.516192 0.952861 -0.129701
C21   C     C_R   0.413101 0.488671 0.044465 -0.171433
C22   C     C_R   0.387755 0.392322 0.077415 0.686244
C23   C     C_R   0.349282 0.326916 0.021877 0.660634
C24   C     C_R   0.427614 0.611512 0.919252 0.741593
C25   C     C_R   0.472228 0.679635 0.972423 0.255542
C26   C     C_R   0.492609 0.652319 0.062608 -0.381192
C27   C     C_R   0.446207 0.558382 0.099117 -0.113117
C28   C     C_R   0.554669 0.715542 0.118279 0.680987
C29   C     C_R   0.565471 0.686007 0.208280 0.595636
C30   C     C_R   0.434486 0.537558 0.189594 0.705037
N1    N     N_R   0.573860 0.731700 0.552730 -0.237895
N2    N     N_R   0.426060 0.268290 0.447230 -0.269791
C31   C     C_R   0.723658 0.847824 0.617014 0.677119
C32   C     C_R   0.665624 0.755249 0.615279 0.243443
C33   C     C_R   0.524685 0.799506 0.500257 0.419214
C34   C     C_R   0.581161 0.895423 0.500171 -0.168022
C35   C     C_R   0.681982 0.917976 0.560570 -0.358425
C36   C     C_R   0.535887 0.970228 0.447294 -0.104708
C37   C     C_R   0.567226 0.059075 0.472989 -0.140273
C38   C     C_R   0.677675 0.080226 0.524995 0.640513
C39   C     C_R   0.735620 0.010926 0.566840 0.718577
C40   C     C_R   0.470376 0.963026 0.366474 0.678795
C41   C     C_R   0.411900 0.033933 0.324639 0.259590
C42   C     C_R   0.415067 0.112792 0.365181 -0.344791
C43   C     C_R   0.492293 0.125131 0.441052 -0.103128
C44   C     C_R   0.342643 0.179120 0.333298 0.626390
C45   C     C_R   0.353349 0.257367 0.373723 0.684316
C46   C     C_R   0.486284 0.200146 0.485576 0.338518
N3    N     N_R   0.822335 0.371972 0.394968 0.283216
O9    O     O_R   0.761132 0.423039 0.339927 -0.300945
O10   O     O_R   0.803595 0.284577 0.387611 -0.232621
N4    N     N_R   0.169749 0.544682 0.657396 0.246445
O11   O     O_R   0.182730 0.512207 0.739915 -0.265022
O12   O     O_R   0.226814 0.630083 0.631598 -0.197008
N5    N     N_R   0.911072 0.666653 0.398884 0.289201
O13   O     O_R   0.799594 0.664989 0.362779 -0.290155
O14   O     O_R   0.991750 0.746044 0.389314 -0.155686
F1    F     F_    0.131685 0.664396 0.490935 -0.548593
F2    F     F_    0.313085 0.236979 0.059127 -0.491268
F3    F     F_    0.339432 0.468666 0.224201 -0.490289
F4    F     F_    0.629533 0.746868 0.259859 -0.489728
N6    N     N_R   0.486829 0.775584 0.934930 0.297797
O15   O     O_R   0.429932 0.828947 0.969042 -0.186471
O16   O     O_R   0.539325 0.805833 0.859399 -0.197854
N7    N     N_R   0.300561 0.189452 0.905652 0.295747
O17   O     O_R   0.188654 0.150555 0.878754 -0.179854
O18   O     O_R   0.374302 0.137718 0.946412 -0.165118
N8    N     N_R   0.395098 0.240243 0.738724 0.261936
O19   O     O_R   0.304758 0.217260 0.682222 -0.230938
O20   O     O_R   0.464799 0.181330 0.769415 -0.200563
F5    F     F_    0.534114 0.554648 0.792166 -0.567599
F6    F     F_    0.855388 0.337619 0.542489 -0.518272
F7    F     F_    0.412668 0.358400 0.161679 -0.536611
F8    F     F_    0.388044 0.638632 0.836113 -0.530394
F9    F     F_    0.612710 0.803656 0.085884 -0.494198
F10   F     F_    0.840544 0.035395 0.617457 -0.469878
N9    N     N_R   0.519808 0.194219 0.576454 0.265716
O21   O     O_R   0.486197 0.115291 0.627537 -0.277839
O22   O     O_R   0.600172 0.261234 0.605409 -0.176089
F11   F     F_    0.290265 0.323278 0.338946 -0.487770
N10   N     N_R   0.353409 0.025653 0.239985 0.301252
O23   O     O_R   0.394421 0.087707 0.173176 -0.158129
O24   O     O_R   0.276641 0.948732 0.226660 -0.170921
F12   F     F_    0.818641 0.868657 0.676666 -0.477186
N11   N     N_R   0.694149 0.688599 0.686910 0.306895
O25   O     O_R   0.729752 0.615095 0.673631 -0.263464
O26   O     O_R   0.707822 0.710093 0.765578 -0.179323
N12   N     N_R   0.402406 0.774138 0.460457 0.273177
O27   O     O_R   0.311633 0.811021 0.479635 -0.238706
O28   O     O_R   0.386996 0.728412 0.394874 -0.202977
F13   F     F_    0.735243 0.168577 0.531913 -0.509442
F14   F     F_    0.479972 0.894836 0.321001 -0.541002
F15   F     F_    0.261186 0.169370 0.263801 -0.484138
N13   N     N_R   0.071784 0.402561 0.372117 0.298178
O29   O     O_R   0.146493 0.468683 0.323340 -0.157415
O30   O     O_R   0.042627 0.321563 0.346692 -0.189917
F16   F     F_    0.943322 0.546215 0.340405 -0.561001
F17   F     F_    0.166266 0.617856 0.370047 -0.514743
N14   N     N_R   0.960864 0.613839 0.611969 0.264585
O31   O     O_R   0.998990 0.634098 0.689227 -0.156385
O32   O     O_R   0.918640 0.677530 0.559386 -0.292932
N15   N     N_R   0.862219 0.459635 0.667330 0.284002
O33   O     O_R   0.901015 0.463244 0.748192 -0.204844
O34   O     O_R   0.750806 0.409437 0.654663 -0.283740
N16   N     N_R   0.077046 0.389311 0.642350 0.230946
O35   O     O_R   0.981459 0.333374 0.682644 -0.139661
O36   O     O_R   0.182719 0.361232 0.648647 -0.376759

loop_
_geom_bond_atom_site_label_1
_geom_bond_atom_site_label_2
_geom_bond_distance
_ccdc_geom_bond_type
N5    O14   1.302818 A    
C42   C43   1.414910 A    
N4    O12   1.299831 A    
C6    C10   1.605290 S    
N6    O15   1.301412 A    
C41   C42   1.417388 A    
C8    C9    1.668866 S    
C13   C16   1.414821 A    
C33   N12   1.428175 S    
C34   C36   1.436390 A    
C40   C41   1.405124 A    
C38   F13   1.349717 S    
Zn1   O7    2.048687 S    
N13   O30   1.301829 A    
C15   C16   1.407009 A    
C26   C27   1.418397 A    
C4    C10   1.478467 S    
C17   C18   1.401130 A    
Zn2   N1    2.055026 S    
C16   N8    1.426168 S    
C14   C29   1.403289 A    
O4    C2    1.309272 A    
O7    C4    1.305328 A    
C8    N15   1.489122 S    
C5    C6    1.564191 S    
N16   O35   1.299975 A    
N3    O10   1.301007 A    
N1    C33   1.376676 A    
O5    C3    1.316470 A    
N14   O31   1.303464 A    
N2    C45   1.357145 A    
C12   N16   1.499531 S    
C46   N9    1.426650 S    
C34   C35   1.415142 A    
C6    H1    1.110754 S    
N11   O26   1.302306 A    
C15   N7    1.433909 S    
Zn1   N2    2.055395 S    
C45   F11   1.346932 S    
C23   F2    1.356243 S    
C11   F1    1.369405 S    
N2    C46   1.368196 A    
C30   F3    1.352811 S    
C12   N4    1.495082 S    
N5    O13   1.298828 A    
O1    Zn1   1.964691 S    
C10   C11   1.589482 S    
N6    O16   1.301237 A    
C3    C14   1.468370 S    
C1    C13   1.494417 S    
O3    Zn1   2.045284 S    
C37   C38   1.408800 A    
C7    F16   1.382386 S    
C5    C9    1.607675 S    
C19   C23   1.403009 A    
C17   F5    1.349155 S    
C38   C39   1.383080 A    
N7    O17   1.300760 A    
C27   C30   1.393152 A    
O3    C2    1.313553 A    
C14   C30   1.390684 A    
C28   C29   1.398941 A    
N8    O20   1.300665 A    
C5    F6    1.379151 S    
C37   C43   1.425607 A    
N8    O19   1.300387 A    
N3    O9    1.302917 A    
O1    C1    1.319335 A    
N1    C32   1.376412 A    
C8    C12   1.619856 S    
C41   N10   1.434119 S    
C18   C19   1.414631 A    
C20   C21   1.412371 A    
Zn2   O8    2.045284 S    
C11   F17   1.384364 S    
N11   O25   1.293537 A    
N10   O24   1.301208 A    
C22   C23   1.386487 A    
C6    N13   1.480731 S    
Zn2   O6    1.964691 S    
N12   O28   1.297633 A    
N9    O22   1.295777 A    
C15   C19   1.412250 A    
C21   C27   1.420885 A    
C42   C44   1.409562 A    
C20   C24   1.416324 A    
C31   C32   1.392805 A    
N15   O33   1.303300 A    
C8    N14   1.498867 S    
Zn1   O5    1.925014 S    
C44   F15   1.357082 S    
C33   C34   1.430194 A    
C25   C26   1.409312 A    
C29   F4    1.356686 S    
C7    C11   1.540562 S    
C39   F10   1.358973 S    
O2    Zn2   1.925014 S    
C13   C17   1.402073 A    
N7    O18   1.301400 A    
O6    C3    1.309066 A    
O4    Zn2   2.048686 S    
C7    N5    1.476767 S    
C2    C9    1.494391 S    
N13   O29   1.297274 A    
C43   C46   1.424848 A    
C21   C22   1.420269 A    
C10   C12   1.611945 S    
O2    C1    1.319151 A    
O8    C4    1.307431 A    
C26   C28   1.416237 A    
C31   F12   1.360354 S    
N12   O27   1.301224 A    
C24   F8    1.359974 S    
C44   C45   1.395147 A    
C40   F14   1.355908 S    
C36   C40   1.410003 A    
N10   O23   1.300794 A    
N16   O36   1.299313 A    
C7    C9    1.613745 S    
C22   F7    1.355950 S    
N14   O32   1.295599 A    
C25   N6    1.436479 S    
N4    O11   1.302989 A    
C35   C39   1.400457 A    
N9    O21   1.301801 A    
C18   C20   1.422969 A    
C36   C37   1.413266 A    
C24   C25   1.399544 A    
C28   F9    1.357307 S    
C32   N11   1.434706 S    
C5    N3    1.494411 S    
C31   C35   1.391458 A    
N15   O34   1.296712 A    
