data_mof_unit_39968.cif
_audit_creation_date              2012-12-11T14:36:03-0500
_audit_creation_method            fapswitch 2.2
_symmetry_space_group_name_H-M    P1
_symmetry_Int_Tables_number       1
_space_group_crystal_system       triclinic
_cell_length_a                    13.475673
_cell_length_b                    13.484091
_cell_length_c                    27.51035
_cell_angle_alpha                 90.737089
_cell_angle_beta                  90.068778
_cell_angle_gamma                 60.043662
_cell_volume                      4330.57895677

loop_
_atom_site_label
_atom_site_type_symbol
_atom_type_description
_atom_site_fract_x
_atom_site_fract_y
_atom_site_fract_z
_atom_type_partial_charge
C1    C     C_R   0.620169 0.101405 0.570248 0.546051
C2    C     C_1   0.630830 0.732742 0.616546 -0.015995
C3    C     C_3   0.699212 0.561403 0.767810 -0.101562
C4    C     C_3   0.679233 0.654905 0.805559 0.052750
C5    C     C_3   0.589789 0.648976 0.740918 -0.099210
C6    C     C_3   0.663012 0.684126 0.710904 0.052705
C7    C     C_3   0.570021 0.742023 0.779387 -0.101967
C8    C     C_3   0.643046 0.777640 0.748645 -0.103026
C9    C     C_1   0.688165 0.633921 0.857933 -0.059128
C10   C     C_1   0.649074 0.705678 0.658588 -0.058708
C11   C     C_3   0.090723 0.133674 0.738172 -0.101820
C12   C     C_R   0.599561 0.779716 0.568837 0.545206
C13   C     C_3   0.182582 0.060272 0.776224 -0.100365
C14   C     C_1   0.096814 0.201323 0.901775 -0.016242
C15   C     C_1   0.229910 0.138072 0.617697 -0.016170
C16   C     C_3   0.055029 0.242307 0.769856 -0.101471
C17   C     C_3   0.147314 0.168735 0.807064 0.052723
C18   C     C_3   0.143884 0.263241 0.743197 -0.099062
C19   C     C_3   0.179185 0.154893 0.712278 0.052605
C20   C     C_3   0.235703 0.189931 0.781102 -0.101848
C21   C     C_3   0.271501 0.081279 0.749462 -0.103000
C22   C     C_1   0.124567 0.182104 0.859542 -0.058784
C23   C     C_R   0.277824 0.121848 0.569753 0.545597
C24   C     C_1   0.201997 0.147069 0.659859 -0.058826
C25   C     C_3   0.629244 0.277204 0.739999 -0.101741
C26   C     C_3   0.554966 0.259184 0.778015 -0.099972
C27   C     C_1   0.691478 0.207851 0.902912 -0.015821
C28   C     C_1   0.635209 0.133586 0.618417 -0.016345
C29   C     C_3   0.737307 0.204389 0.770964 -0.101528
C30   C     C_3   0.662872 0.186101 0.808151 0.052826
C31   C     C_3   0.758448 0.094583 0.743453 -0.099225
C32   C     C_3   0.650631 0.167547 0.713253 0.052597
C33   C     C_3   0.684253 0.076511 0.781354 -0.102079
C34   C     C_R   0.621804 0.098750 0.430835 0.546497
C35   C     C_3   0.576163 0.149259 0.750415 -0.103064
C36   C     C_1   0.674605 0.196817 0.860664 -0.058592
C37   C     C_1   0.643524 0.152561 0.660725 -0.058901
C38   C     C_R   0.736027 0.701884 0.359664 -0.137814
C39   C     C_R   0.748517 0.683494 0.309375 0.006311
C40   C     C_R   0.764872 0.660131 0.207706 0.008192
C41   C     C_R   0.856173 0.653896 0.234728 -0.126773
C42   C     C_R   0.847435 0.666896 0.285288 -0.129825
C43   C     C_R   0.774995 0.639432 0.157599 -0.136256
C44   C     C_R   0.684951 0.639014 0.131964 -0.004462
C45   C     C_R   0.601926 0.775696 0.430368 0.546023
C46   C     C_R   0.551974 0.709352 0.356106 -0.127509
C47   C     C_R   0.559613 0.698891 0.306055 0.011794
C48   C     C_R   0.657593 0.687150 0.282380 0.066128
C49   C     C_R   0.467794 0.706235 0.279306 -0.130767
C50   C     C_R   0.472366 0.703137 0.228898 -0.131396
C51   C     C_R   0.570524 0.688493 0.205009 0.013014
C52   C     C_R   0.664053 0.679606 0.231667 0.065484
C53   C     C_R   0.579777 0.673907 0.155048 -0.130397
C54   C     C_R   0.635221 0.720098 0.382642 -0.002148
C55   C     C_R   0.218198 0.056263 0.356831 -0.131777
C56   C     C_R   0.278174 0.120666 0.430894 0.547091
C57   C     C_R   0.194364 0.069462 0.307167 0.019464
C58   C     C_R   0.153255 0.093369 0.206796 0.019152
C59   C     C_R   0.167172 0.995785 0.230412 -0.126045
C60   C     C_R   0.188717 0.983410 0.280226 -0.123977
C61   C     C_R   0.125034 0.109984 0.157500 -0.132155
C62   C     C_R   0.107451 0.210202 0.134903 -0.000436
C63   C     C_R   0.196764 0.245949 0.360713 -0.134596
C64   C     C_R   0.183580 0.257306 0.310481 -0.022144
C65   C     C_R   0.180166 0.168563 0.283709 0.051555
C66   C     C_R   0.175736 0.353375 0.286137 0.022829
C67   C     C_3   0.772315 0.596942 0.737017 -0.101509
C68   C     C_R   0.158876 0.361045 0.235877 -0.099907
C69   C     C_R   0.151108 0.275719 0.209838 -0.019117
C70   C     C_R   0.162360 0.178784 0.233423 0.059145
C71   C     C_R   0.127513 0.288855 0.160548 -0.130367
C72   C     C_R   0.222933 0.143093 0.383307 -0.001857
C73   C     C_R   0.567127 0.236534 0.362558 -0.136286
C74   C     C_R   0.571521 0.254718 0.312791 0.008755
C75   C     C_R   0.581838 0.287682 0.212569 0.009399
C76   C     C_R   0.506276 0.379179 0.242790 -0.117105
C77   C     C_R   0.500253 0.362472 0.292534 -0.121094
C78   C     C_3   0.752575 0.690032 0.775616 -0.100290
C79   C     C_R   0.595353 0.304724 0.163514 -0.134835
C80   C     C_R   0.676463 0.213071 0.134757 -0.004600
C81   C     C_R   0.719509 0.038902 0.351871 -0.125527
C82   C     C_R   0.721545 0.054231 0.302297 0.009385
C83   C     C_R   0.647498 0.162385 0.282503 0.062712
C84   C     C_R   0.794801 0.961915 0.272154 -0.124119
C85   C     C_R   0.795762 0.976691 0.222330 -0.125402
C86   C     C_R   0.725543 0.084713 0.202434 0.012777
C87   C     C_R   0.650578 0.178097 0.232411 0.062601
C88   C     C_R   0.734969 0.102298 0.153536 -0.128950
C89   C     C_1   0.697159 0.607934 0.900115 -0.016487
C90   C     C_R   0.640184 0.128149 0.382006 -0.000360
C91   C     C_R   0.049246 0.236192 0.949732 0.545055
C92   C     C_R   0.711601 0.562909 0.948152 0.544534
C93   C     C_R   0.722193 0.225447 0.950878 0.544413
C94   C     C_R   0.048479 0.245087 0.088319 0.547907
C95   C     C_R   0.707506 0.575943 0.086077 0.546693
C96   C     C_R   0.718037 0.234165 0.089227 0.548046
Cr1   Cr    Cr6+3 0.417550 0.169090 0.500530 1.021877
Cr2   Cr    Cr6+3 0.669180 0.913420 0.499920 1.023471
Cr3   Cr    Cr6+3 0.413260 0.917540 0.499520 1.022569
Cr4   Cr    Cr6+3 0.909170 0.177380 0.020380 1.021258
Cr5   Cr    Cr6+3 0.912710 0.429210 0.018220 1.020630
Cr6   Cr    Cr6+3 0.657170 0.432570 0.019030 1.021416
H1    H     H_    0.819141 0.707346 0.790483 0.103963
H2    H     H_    0.295556 0.212639 0.799157 0.103210
H3    H     H_    0.127513 0.346849 0.729111 0.104183
H4    H     H_    0.965605 0.308910 0.778804 0.099271
H5    H     H_    0.471197 0.326520 0.792804 0.104272
H6    H     H_    0.607106 0.359468 0.722554 0.102619
H7    H     H_    0.509580 0.126505 0.741372 0.100474
H8    H     H_    0.706457 0.994188 0.798763 0.103035
H9    H     H_    0.842285 0.027217 0.728723 0.104268
H10   H     H_    0.803971 0.227050 0.779976 0.099424
H11   H     H_    0.855846 0.614208 0.139565 0.122289
H12   H     H_    0.855238 0.537071 0.719135 0.103234
H13   H     H_    0.801022 0.708803 0.380251 0.120209
H14   H     H_    0.934244 0.638613 0.216817 0.124117
H15   H     H_    0.917948 0.663626 0.305556 0.150099
H16   H     H_    0.509056 0.676540 0.135067 0.128233
H17   H     H_    0.400647 0.708874 0.208666 0.104238
H18   H     H_    0.391894 0.716063 0.297357 0.106356
H19   H     H_    0.474669 0.721186 0.373643 0.131717
H20   H     H_    0.110660 0.048403 0.137592 0.121434
H21   H     H_    0.237878 0.976869 0.374268 0.121880
H22   H     H_    0.160786 0.929431 0.210429 0.106739
H23   H     H_    0.619866 0.866947 0.740164 0.100483
H24   H     H_    0.199785 0.907108 0.297797 0.107829
H25   H     H_    0.115597 0.365790 0.143175 0.128955
H26   H     H_    0.151865 0.434071 0.216710 0.147456
H27   H     H_    0.193759 0.314313 0.382590 0.121046
H28   H     H_    0.549412 0.390344 0.148880 0.126967
H29   H     H_    0.505186 0.305174 0.385768 0.115727
H30   H     H_    0.452910 0.463789 0.228075 0.120246
H31   H     H_    0.441249 0.434105 0.315245 0.123286
H32   H     H_    0.795904 0.031047 0.131076 0.127382
H33   H     H_    0.487039 0.801891 0.797233 0.103125
H34   H     H_    0.853869 0.904592 0.199586 0.109694
H35   H     H_    0.851603 0.878517 0.287165 0.117505
H36   H     H_    0.775036 0.954367 0.366340 0.134149
H37   H     H_    0.523179 0.631636 0.726118 0.104264
H38   H     H_    0.722301 0.472119 0.776282 0.098695
H39   H     H_    0.198913 0.976747 0.790384 0.103967
H40   H     H_    0.030866 0.111037 0.720075 0.103163
H41   H     H_    0.360941 0.014767 0.740484 0.100494
O1    O     O_R   0.301710 0.195650 0.554160 -0.507642
O2    O     O_R   0.658900 0.818120 0.449760 -0.502045
O3    O     O_R   0.503220 0.801620 0.445520 -0.523460
O4    O     O_R   0.319370 0.022040 0.450020 -0.500940
O5    O     O_3   0.499990 0.000010 0.499990 -0.244889
O6    O     O_R   0.818720 0.150820 0.967160 -0.508548
O7    O     O_R   0.006410 0.181720 0.970200 -0.495646
O8    O     O_R   0.027890 0.334070 0.964920 -0.507171
O9    O     O_R   0.809600 0.521790 0.967960 -0.495701
O10   O     O_R   0.635520 0.542770 0.964420 -0.507939
O11   O     O_R   0.665950 0.325030 0.970100 -0.494917
O12   O     O_R   0.522390 0.158990 0.550460 -0.494918
O13   O     O_R   0.816620 0.158530 0.074540 -0.519789
O14   O     O_R   0.004460 0.188870 0.069750 -0.500285
O15   O     O_R   0.025800 0.341780 0.072300 -0.522580
O16   O     O_R   0.807650 0.528950 0.067500 -0.502050
O17   O     O_R   0.633420 0.550490 0.071810 -0.522637
O18   O     O_R   0.664000 0.332180 0.069640 -0.501109
O19   O     O_3   0.826350 0.346390 0.019210 -0.243189
O20   O     O_R   0.694390 0.003530 0.554040 -0.506164
O21   O     O_R   0.657700 0.819660 0.549320 -0.494916
O22   O     O_R   0.501930 0.803280 0.552920 -0.507288
O23   O     O_R   0.318170 0.023580 0.549580 -0.494292
O24   O     O_R   0.303010 0.193990 0.446760 -0.522339
O25   O     O_R   0.523600 0.157450 0.450900 -0.500014
O26   O     O_R   0.695690 0.001860 0.446640 -0.521335
C97   C     C_2   0.190540 0.443843 0.311168 0.196350
H42   H     H_    0.231629 0.429642 0.346216 0.100751
O27   O     O_2   0.159143 0.536007 0.292019 -0.553489

loop_
_geom_bond_atom_site_label_1
_geom_bond_atom_site_label_2
_ccdc_geom_bond_type
C66   C68   A    
Cr3   O5    S    
C73   H29   S    
Cr1   O12   S    
C76   H30   S    
C73   C74   A    
C29   H10   S    
C93   O6    A    
C74   C83   A    
C43   C44   A    
C2    C12   S    
C49   C50   A    
Cr2   O20   S    
C7    C8    S    
C47   C49   A    
C85   C86   A    
C7    H33   S    
C11   C19   S    
C20   C21   S    
C97   O27   D    
C45   O2    A    
C40   C52   A    
Cr5   O19   S    
C19   C21   S    
C67   H12   S    
C73   C90   A    
C5    C6    S    
C86   C88   A    
C33   H8    S    
C49   H18   S    
C97   H42   S    
C65   C70   A    
C17   C20   S    
C96   O18   A    
C1    O12   A    
C18   C19   S    
C41   C42   A    
C69   C71   A    
Cr3   O4    S    
C68   C69   A    
Cr2   O26   S    
Cr4   O14   S    
C40   C43   A    
C31   C32   S    
C16   C17   S    
C56   C72   S    
C74   C77   A    
C92   O9    A    
C1    C28   S    
C31   C33   S    
C46   H19   S    
C92   O10   A    
C13   H39   S    
C80   C96   S    
C45   C54   S    
Cr6   O11   S    
C55   C72   A    
C35   H7    S    
C16   H4    S    
Cr3   O23   S    
Cr4   O13   S    
C58   C61   A    
C15   C23   S    
C59   C60   A    
C94   O15   A    
C8    C78   S    
C71   H25   S    
C61   C62   A    
C67   C78   S    
C77   H31   S    
C4    C7    S    
C34   O25   A    
C44   C53   A    
C5    H37   S    
C39   C42   A    
C25   C29   S    
C81   H36   S    
C55   H21   S    
C50   H17   S    
C32   C35   S    
C38   C39   A    
C76   C77   A    
C21   H41   S    
C9    C89   T    
C12   O22   A    
C5    C7    S    
C53   H16   S    
C58   C70   A    
C57   C60   A    
C6    C8    S    
Cr4   O7    S    
C58   C59   A    
Cr1   O24   S    
C79   H28   S    
Cr5   O8    S    
C81   C82   A    
C51   C52   A    
C61   H20   S    
C51   C53   A    
C64   C66   A    
C75   C76   A    
C34   C90   S    
Cr1   O1    S    
C4    C78   S    
C29   C30   S    
C12   O21   A    
C23   O23   A    
C11   C16   S    
C26   C35   S    
C47   C48   A    
C38   C54   A    
Cr6   O19   S    
C83   C87   A    
C46   C54   A    
C50   C51   A    
C13   C21   S    
C16   C18   S    
C32   C37   S    
C84   C85   A    
C89   C92   S    
Cr6   O10   S    
C1    O20   A    
C34   O26   A    
C81   C90   A    
C75   C87   A    
C15   C24   T    
Cr3   O3    S    
C84   H35   S    
C26   C30   S    
C94   O14   A    
C82   C84   A    
C55   C57   A    
C27   C36   T    
Cr1   O5    S    
C95   O16   A    
C23   O1    A    
C27   C93   S    
C41   H14   S    
Cr6   O17   S    
C3    C4    S    
C2    C10   T    
C59   H22   S    
C68   H26   S    
C46   C47   A    
C40   C41   A    
C30   C33   S    
C78   H1    S    
C86   C87   A    
C66   C97   S    
C3    C67   S    
C17   C22   S    
C57   C65   A    
C63   C64   A    
C3    C5    S    
C93   O11   A    
C26   H5    S    
Cr5   O15   S    
C91   O7    A    
Cr2   O21   S    
C42   H15   S    
C20   H2    S    
Cr2   O2    S    
C30   C36   S    
Cr4   O6    S    
Cr1   O25   S    
Cr5   O9    S    
C45   O3    A    
C13   C17   S    
C64   C65   A    
C14   C22   T    
C56   O4    A    
C62   C94   S    
C19   C24   S    
C25   C26   S    
C18   H3    S    
C88   H32   S    
C80   C88   A    
C44   C95   S    
C6    C67   S    
C43   H11   S    
C91   O8    A    
C38   H13   S    
C11   C13   S    
C96   O13   A    
Cr2   O5    S    
C28   C37   T    
C25   C32   S    
Cr6   O18   S    
C56   O24   A    
C60   H24   S    
C33   C35   S    
C62   C71   A    
C18   C20   S    
C63   H27   S    
C69   C70   A    
C11   H40   S    
C14   C91   S    
C6    C10   S    
C85   H34   S    
C79   C80   A    
C8    H23   S    
C48   C52   A    
C63   C72   A    
Cr5   O16   S    
C29   C31   S    
C82   C83   A    
C31   H9    S    
Cr4   O19   S    
C3    H38   S    
C4    C9    S    
C75   C79   A    
C95   O17   A    
C25   H6    S    
C39   C48   A    
Cr3   O22   S    
