data_mof_unit_65039.cif
_audit_creation_date              2012-12-10T18:16:57-0500
_audit_creation_method            fapswitch 2.2
_symmetry_space_group_name_H-M    P1
_symmetry_Int_Tables_number       1
_space_group_crystal_system       triclinic
_cell_length_a                    15.884517
_cell_length_b                    15.920296
_cell_length_c                    14.689269
_cell_angle_alpha                 90.317712
_cell_angle_beta                  90.315665
_cell_angle_gamma                 90.023274
_cell_volume                      3714.59976021

loop_
_atom_site_label
_atom_site_type_symbol
_atom_type_description
_atom_site_fract_x
_atom_site_fract_y
_atom_site_fract_z
_atom_type_partial_charge
C1    C     C_R   0.499873 0.339938 0.499773 0.815734
C2    C     C_3   0.082916 0.500074 0.497271 -0.014321
C3    C     C_3   0.972832 0.532004 0.578161 -0.187851
C4    C     C_3   0.917116 0.499623 0.499380 0.059740
C5    C     C_3   0.027941 0.579192 0.507954 -0.237270
C6    C     C_3   0.970447 0.547096 0.429159 -0.151290
C7    C     C_1   0.174487 0.500213 0.498368 0.109197
C8    C     C_1   0.825601 0.499746 0.500330 0.033124
C9    C     C_3   0.496296 0.050667 0.601146 -0.405848
C10   C     C_3   0.580416 0.047759 0.456479 -0.268307
C11   C     C_3   0.578997 0.949936 0.456234 -0.462960
C12   C     C_R   0.339483 0.500061 0.499713 0.818449
C13   C     C_1   0.499347 0.749424 0.500858 -0.057198
C14   C     C_3   0.497231 0.083070 0.500077 -0.180549
C15   C     C_3   0.492882 0.951817 0.602876 0.394336
C16   C     C_3   0.497151 0.916991 0.502138 -0.158064
C17   C     C_3   0.420872 0.950213 0.442810 0.356868
C18   C     C_3   0.418981 0.048996 0.446122 1.044638
C19   C     C_1   0.498505 0.824727 0.501407 0.089728
C20   C     C_1   0.498271 0.175327 0.499330 0.101718
C21   C     C_1   0.499098 0.250617 0.499265 -0.057972
C22   C     C_3   0.497293 0.592726 0.055403 0.246500
C23   C     C_R   0.499977 0.660076 0.500232 0.805967
C24   C     C_3   0.417798 0.447944 0.051046 0.265774
C25   C     C_3   0.413832 0.460356 0.943420 0.409264
C26   C     C_3   0.495654 0.498966 0.092074 -0.285687
C27   C     C_3   0.504694 0.593581 0.946670 0.445960
C28   C     C_3   0.498603 0.500867 0.907693 -0.239968
C29   C     C_3   0.573610 0.448859 0.946936 -0.580498
C30   C     C_3   0.578327 0.456209 0.053453 -0.135508
C31   C     C_1   0.500806 0.501248 0.804617 0.295118
C32   C     C_1   0.497257 0.498581 0.195369 0.402855
C33   C     C_R   0.660538 0.499977 0.500265 0.811092
C34   C     C_3   0.971418 0.420079 0.488628 -0.248218
C35   C     C_3   0.026243 0.468137 0.419653 -0.073488
C36   C     C_1   0.249924 0.500181 0.499062 -0.060545
C37   C     C_1   0.750143 0.499860 0.500653 -0.124847
C38   C     C_3   0.028453 0.453475 0.566144 0.691204
Cu1   Cu    Cu3+1 0.499890 0.499910 0.589920 1.064832
Cu2   Cu    Cu3+1 0.500110 0.500090 0.410080 1.107410
H1    H     H_    0.633955 0.067140 0.501318 0.190541
H2    H     H_    0.635956 0.925525 0.491177 0.215281
H3    H     H_    0.583999 0.923994 0.386043 0.281429
H4    H     H_    0.947650 0.354796 0.481209 0.191087
H5    H     H_    0.632632 0.498168 0.068888 0.222051
H6    H     H_    0.634148 0.469497 0.917067 0.222975
H7    H     H_    0.945351 0.585493 0.372290 0.181879
H8    H     H_    0.568279 0.382994 0.923703 0.282129
H9    H     H_    0.052052 0.644311 0.515696 0.192921
H10   H     H_    0.949881 0.557578 0.643949 0.181002
H11   H     H_    0.557540 0.071274 0.631008 0.182124
N1    N     N_1   0.501700 0.501390 0.724970 -0.132964
N2    N     N_1   0.498280 0.498620 0.275030 -0.111283
O1    O     O_R   0.499910 0.379360 0.575970 -0.577170
O2    O     O_R   0.500090 0.379510 0.424100 -0.546056
O3    O     O_R   0.378990 0.499920 0.575920 -0.550642
O4    O     O_R   0.379170 0.500070 0.424050 -0.549778
O5    O     O_R   0.499910 0.620490 0.575900 -0.551408
O6    O     O_R   0.500090 0.620640 0.424030 -0.551210
O7    O     O_R   0.620830 0.499930 0.575950 -0.582310
O8    O     O_R   0.621010 0.500080 0.424080 -0.553712
C39   C     C_2   0.054414 0.432458 0.330284 0.908699
O9    O     O_2   0.001879 0.409609 0.274330 -0.539755
O10   O     O_R   0.140202 0.425388 0.311279 -0.728935
H12   H     H_    0.151076 0.400068 0.248983 0.356818
F1    F     F_    0.345628 0.079419 0.484518 -0.607271
F2    F     F_    0.419482 0.080343 0.358256 -0.548685
C40   C     C_2   0.336529 0.910005 0.466663 0.970897
O11   O     O_2   0.295735 0.933664 0.532309 -0.446715
O12   O     O_R   0.305149 0.845013 0.411656 -0.678024
H13   H     H_    0.249056 0.822750 0.433643 0.337298
C41   C     C_2   0.432015 0.092803 0.662967 1.029635
O13   O     O_2   0.357002 0.076479 0.656854 -0.405812
O14   O     O_R   0.459939 0.150573 0.728569 -0.738936
H14   H     H_    0.412169 0.174856 0.765870 0.359969
F3    F     F_    0.418246 0.924878 0.641600 -0.581459
F4    F     F_    0.435698 0.926401 0.353012 -0.551993
F5    F     F_    0.439152 0.639767 0.908938 -0.543150
C42   C     C_2   0.423374 0.645056 0.090177 0.982667
O15   O     O_2   0.433038 0.690091 0.157224 -0.476194
O16   O     O_R   0.344768 0.642827 0.046812 -0.640565
H15   H     H_    0.301841 0.680573 0.077339 0.367401
F6    F     F_    0.431091 0.363792 0.070357 -0.613958
C43   C     C_2   0.332359 0.465626 0.094159 0.989704
O17   O     O_2   0.325775 0.507359 0.163872 -0.617630
O18   O     O_R   0.260490 0.428736 0.055654 -0.646901
H16   H     H_    0.207195 0.443670 0.089757 0.350063
F7    F     F_    0.348694 0.515349 0.922609 -0.554763
C44   C     C_2   0.391338 0.378673 0.893710 0.959964
O19   O     O_2   0.436002 0.316422 0.899984 -0.538735
O20   O     O_R   0.318420 0.375152 0.839954 -0.642313
H17   H     H_    0.309974 0.318220 0.809987 0.344959
C45   C     C_2   0.601818 0.373590 0.098985 0.993818
O21   O     O_2   0.631097 0.374646 0.176179 -0.574645
O22   O     O_R   0.591785 0.296733 0.053515 -0.656209
H18   H     H_    0.609974 0.247140 0.091895 0.359725
F8    F     F_    0.568441 0.630931 0.093047 -0.624201
C46   C     C_2   0.584343 0.638353 0.914510 0.935419
O23   O     O_2   0.653961 0.617885 0.942577 -0.572706
O24   O     O_R   0.577383 0.704285 0.852325 -0.639017
H19   H     H_    0.633984 0.729214 0.835789 0.347496
F9    F     F_    0.059575 0.405406 0.636820 -0.600382
C47   C     C_2   0.563276 0.916938 0.663068 0.864753
O25   O     O_2   0.547003 0.864002 0.720427 -0.460289
O26   O     O_R   0.646110 0.945583 0.654335 -0.802761
H20   H     H_    0.686303 0.917376 0.698431 0.355237
C48   C     C_2   0.600385 0.083317 0.363236 0.978037
O27   O     O_2   0.647547 0.143779 0.357404 -0.575016
O28   O     O_R   0.566554 0.047021 0.284169 -0.621458
H21   H     H_    0.585054 0.076882 0.226869 0.359917

loop_
_geom_bond_atom_site_label_1
_geom_bond_atom_site_label_2
_ccdc_geom_bond_type
C2    C35   S    
C23   O5    A    
C27   C46   S    
C1    C21   S    
C45   O21   D    
C7    C36   T    
C14   C18   S    
C30   H5    S    
O22   H18   S    
C9    H11   S    
C9    C41   S    
C31   N1    T    
C4    C8    S    
C27   F5    S    
O16   H15   S    
C25   C28   S    
C23   O6    A    
C29   C30   S    
C28   C29   S    
C24   F6    S    
C24   C26   S    
C22   C42   S    
C30   C45   S    
C5    C6    S    
Cu1   O1    S    
C15   C16   S    
C46   O23   D    
C6    C35   S    
C13   C23   S    
C11   H2    S    
C34   C35   S    
C39   O10   S    
C2    C7    S    
C3    C38   S    
C16   C17   S    
C48   O27   D    
C11   H3    S    
O12   H13   S    
C12   C36   S    
C15   F3    S    
C45   O22   S    
Cu2   O6    S    
C34   C38   S    
C10   H1    S    
C48   O28   S    
C5    H9    S    
C10   C48   S    
C3    H10   S    
C4    C34   S    
O14   H14   S    
C13   C19   T    
C29   H8    S    
C14   C20   S    
C34   H4    S    
C24   C25   S    
C4    C6    S    
C6    H7    S    
Cu1   Cu2   S    
C42   O16   S    
C9    C14   S    
C26   C32   S    
C40   O11   D    
C18   F2    S    
Cu1   O5    S    
C25   F7    S    
C33   C37   S    
Cu2   O8    S    
C1    O1    A    
C39   O9    D    
C11   C16   S    
C2    C38   S    
Cu1   O3    S    
Cu2   O2    S    
C17   F4    S    
C17   C18   S    
C47   O26   S    
C43   O17   D    
C12   O3    A    
C12   O4    A    
C41   O14   S    
C26   C30   S    
C33   O7    A    
C46   O24   S    
C22   C27   S    
C10   C14   S    
C2    C5    S    
C44   O20   S    
C8    C37   T    
C3    C4    S    
C32   N2    T    
O20   H17   S    
C17   C40   S    
Cu2   O4    S    
O18   H16   S    
C28   C31   S    
C43   O18   S    
C41   O13   D    
C3    C5    S    
C18   F1    S    
O26   H20   S    
C25   C44   S    
C29   H6    S    
O10   H12   S    
C24   C43   S    
C38   F9    S    
O28   H21   S    
C16   C19   S    
Cu1   O7    S    
O24   H19   S    
Cu1   N1    S    
C35   C39   S    
C1    O2    A    
C10   C11   S    
C42   O15   D    
C20   C21   T    
C33   O8    A    
Cu2   N2    S    
C22   C26   S    
C47   O25   D    
C22   F8    S    
C40   O12   S    
C15   C47   S    
C44   O19   D    
C9    C15   S    
C27   C28   S    
