data_mof_unit_54153.cif
_audit_creation_date              2012-12-10T16:37:41-0500
_audit_creation_method            fapswitch 2.2
_symmetry_space_group_name_H-M    P1
_symmetry_Int_Tables_number       1
_space_group_crystal_system       triclinic
_cell_length_a                    10.893308
_cell_length_b                    10.899371
_cell_length_c                    15.504254
_cell_angle_alpha                 96.589537
_cell_angle_beta                  74.842413
_cell_angle_gamma                 98.692696
_cell_volume                      1750.902759

loop_
_atom_site_label
_atom_site_type_symbol
_atom_type_description
_atom_site_fract_x
_atom_site_fract_y
_atom_site_fract_z
_atom_type_partial_charge
C1    C     C_R   0.159942 0.479532 0.518235 0.564473
C2    C     C_R   0.509366 0.494139 0.121876 0.074364
C3    C     C_R   0.648309 0.333867 0.114273 0.096935
C4    C     C_R   0.842028 0.521129 0.480694 0.502886
C5    C     C_R   0.416024 0.577256 0.841778 0.013753
C6    C     C_2   0.978448 0.535253 0.479210 0.109741
C7    C     C_2   0.024463 0.463166 0.526946 0.039358
C8    C     C_2   0.532099 0.967144 0.468187 -0.010686
C9    C     C_2   0.453721 0.038044 0.531703 0.016041
C10   C     C_R   0.467496 0.168932 0.521274 0.518669
C11   C     C_R   0.527987 0.833704 0.479098 0.518073
C12   C     C_R   0.251058 0.606442 0.982247 0.013066
C13   C     C_R   0.556270 0.443784 0.259175 0.555793
C14   C     C_R   0.445861 0.555223 0.742142 0.504459
C15   C     C_R   0.667792 0.317484 0.020358 0.146293
C16   C     C_R   0.573484 0.424941 0.163127 0.051762
C17   C     C_R   0.295517 0.616723 0.888968 0.139733
C18   C     C_3   0.828751 0.318574 0.174792 -0.320837
C19   C     C_3   0.946556 0.352396 0.577547 -0.286258
C20   C     C_3   0.023456 0.273360 0.614687 -0.452611
C21   C     C_3   0.622946 0.029564 0.386164 -0.279887
C22   C     C_3   0.701423 0.947948 0.311459 -0.417668
C23   C     C_R   0.325679 0.556511 0.026649 -0.105420
C24   C     C_3   0.359261 0.992255 0.617618 -0.269255
C25   C     C_3   0.289382 0.092494 0.681051 -0.457269
C26   C     C_3   0.685813 0.249015 0.766244 -0.287489
C27   C     C_3   0.667590 0.104275 0.957263 -0.293711
C28   C     C_3   0.345816 0.583364 0.246443 -0.282253
C29   C     C_3   0.225213 0.789449 0.837133 -0.280982
C30   C     C_3   0.121373 0.640759 0.036543 -0.275557
C31   C     C_3   0.136547 0.756193 0.100556 -0.437882
C32   C     C_3   0.715771 0.589164 0.780693 -0.249872
C33   C     C_3   0.826104 0.657782 0.818301 -0.465915
C34   C     C_R   0.449338 0.527294 0.983343 0.003733
C35   C     C_3   0.072144 0.750203 0.469726 -0.307859
C36   C     C_R   0.496803 0.541679 0.890735 -0.039523
C37   C     C_R   0.523322 0.473358 0.028491 -0.025269
C38   C     C_R   0.615868 0.397238 0.976707 0.020007
C39   C     C_R   0.661553 0.413659 0.883974 0.164092
C40   C     C_R   0.620966 0.509979 0.849482 0.040929
H1    H     H_    0.281681 0.533605 0.094474 0.149259
H2    H     H_    0.896586 0.288959 0.532513 0.161323
H3    H     H_    0.775114 0.910757 0.335282 0.177135
H4    H     H_    0.637902 0.871481 0.285208 0.167420
H5    H     H_    0.752835 0.005539 0.255124 0.115957
H6    H     H_    0.564631 0.075493 0.353409 0.168543
H7    H     H_    0.691392 0.103374 0.410166 0.138659
H8    H     H_    0.358626 0.162844 0.707118 0.167194
H9    H     H_    0.234273 0.138862 0.646160 0.148253
H10   H     H_    0.221042 0.048565 0.739064 0.119236
H11   H     H_    0.283473 0.921950 0.598942 0.166161
H12   H     H_    0.706330 0.169288 0.137089 0.249807
H13   H     H_    0.411799 0.949972 0.656846 0.160456
H14   H     H_    0.833075 0.380661 0.793594 0.240079
H15   H     H_    0.747067 0.174862 0.736644 0.131694
H16   H     H_    0.670946 0.298285 0.711721 0.175269
H17   H     H_    0.591206 0.203904 0.803064 0.142051
H18   H     H_    0.823778 0.216759 0.989289 0.246185
H19   H     H_    0.727848 0.044081 0.905894 0.137246
H20   H     H_    0.581928 0.115167 0.934138 0.152182
H21   H     H_    0.635268 0.057507 0.020713 0.118370
H22   H     H_    0.520988 0.676704 0.178483 0.252588
H23   H     H_    0.901267 0.328373 0.109813 0.123429
H24   H     H_    0.377271 0.604700 0.309732 0.156909
H25   H     H_    0.295613 0.486778 0.244091 0.159223
H26   H     H_    0.276834 0.648514 0.246866 0.127421
H27   H     H_    0.123271 0.610653 0.851777 0.232388
H28   H     H_    0.185062 0.834712 0.904387 0.122482
H29   H     H_    0.326970 0.829255 0.812256 0.153961
H30   H     H_    0.170500 0.809456 0.790265 0.134974
H31   H     H_    0.189113 0.738973 0.149385 0.150898
H32   H     H_    0.189642 0.836444 0.062617 0.150351
H33   H     H_    0.040474 0.780254 0.138230 0.133293
H34   H     H_    0.861965 0.259342 0.215642 0.132838
H35   H     H_    0.059545 0.659532 0.994467 0.145634
H36   H     H_    0.068297 0.561530 0.075826 0.126556
H37   H     H_    0.881726 0.591591 0.836178 0.143195
H38   H     H_    0.892078 0.716455 0.767161 0.134791
H39   H     H_    0.788231 0.718910 0.878942 0.149250
H40   H     H_    0.754530 0.530895 0.719220 0.170838
H41   H     H_    0.669258 0.661986 0.761392 0.136400
H42   H     H_    0.047676 0.625671 0.362760 0.250993
H43   H     H_    0.147098 0.812434 0.426112 0.137233
H44   H     H_    0.098740 0.749827 0.534119 0.168219
H45   H     H_    0.820829 0.411780 0.211430 0.175673
H46   H     H_    0.978922 0.787488 0.482816 0.142784
H47   H     H_    0.091231 0.225861 0.559357 0.173994
H48   H     H_    0.076458 0.331859 0.660124 0.147593
H49   H     H_    0.957653 0.199886 0.653404 0.126787
H50   H     H_    0.875537 0.388526 0.635793 0.154713
N1    N     N_2   0.706034 0.261609 0.160337 -0.526227
N2    N     N_2   0.746186 0.335175 0.825869 -0.484152
N3    N     N_2   0.741604 0.223924 0.970122 -0.475372
N4    N     N_2   0.454531 0.601439 0.169519 -0.535678
N5    N     N_2   0.215361 0.656231 0.840854 -0.481932
N6    N     N_2   0.063709 0.626035 0.425485 -0.539381
O1    O     O_3   0.500000 0.500000 0.500000 -0.428445
O2    O     O_R   0.463530 0.379110 0.309170 -0.540046
O3    O     O_R   0.388210 0.611730 0.699360 -0.510094
O4    O     O_R   0.624720 0.532760 0.292120 -0.559517
O5    O     O_R   0.523540 0.476390 0.699360 -0.566402
O6    O     O_R   0.537910 0.240570 0.564270 -0.557743
O7    O     O_R   0.438950 0.782540 0.540270 -0.569270
O8    O     O_R   0.222350 0.398740 0.468260 -0.550732
O9    O     O_R   0.800790 0.578160 0.427210 -0.543032
O10   O     O_R   0.212140 0.566330 0.564260 -0.544092
O11   O     O_R   0.764730 0.456770 0.540270 -0.586343
O12   O     O_R   0.412790 0.208310 0.468260 -0.552073
O13   O     O_R   0.610350 0.768590 0.427210 -0.544979
Zn1   Zn    Zn3+2 0.580150 0.419820 0.574680 0.873912
Zn2   Zn    Zn3+2 0.401380 0.373730 0.437510 0.914790
Zn3   Zn    Zn3+2 0.631680 0.593260 0.413140 0.901582
Zn4   Zn    Zn3+2 0.386790 0.613180 0.574670 0.909382

loop_
_geom_bond_atom_site_label_1
_geom_bond_atom_site_label_2
_ccdc_geom_bond_type
C5    C36   A    
C30   H35   S    
C11   O13   A    
C34   C37   A    
C10   O12   A    
C19   C20   S    
C26   H15   S    
C14   O3    A    
C35   N6    S    
C32   H41   S    
C12   C23   A    
C18   N1    S    
C3    N1    S    
O7    Zn4   S    
H18   N3    S    
C21   H6    S    
C27   H20   S    
C30   C31   S    
O1    Zn2   S    
C35   H46   S    
C18   H23   S    
C31   H33   S    
C5    C17   A    
C26   N2    S    
C20   H47   S    
C28   N4    S    
C13   O2    A    
C25   H10   S    
C36   C40   A    
C27   H21   S    
C22   H4    S    
C8    C9    D    
C12   C17   A    
C17   N5    S    
C2    C16   A    
C9    C10   S    
C19   H2    S    
C1    O10   A    
C24   H11   S    
C31   H31   S    
C18   H34   S    
C21   C22   S    
H27   N5    S    
C29   H29   S    
C4    O11   A    
C18   H45   S    
H42   N6    S    
O3    Zn4   S    
O10   Zn4   S    
C2    N4    S    
C24   C25   S    
C4    C6    S    
O13   Zn3   S    
C39   C40   A    
C29   N5    S    
O1    Zn3   S    
C35   H43   S    
C33   H39   S    
C14   O5    A    
O5    Zn1   S    
C28   H26   S    
C15   C38   A    
H14   N2    S    
C37   C38   A    
C32   H40   S    
C29   H28   S    
C30   H36   S    
C22   H3    S    
C25   H8    S    
C10   O6    A    
C23   C34   A    
C8    C21   S    
C1    O8    A    
C5    C14   S    
C28   H24   S    
C31   H32   S    
O9    Zn3   S    
O4    Zn3   S    
C6    N6    S    
H22   N4    S    
O11   Zn1   S    
C27   N3    S    
O1    Zn4   S    
C39   N2    S    
C3    C15   A    
C29   H30   S    
C4    O9    A    
O2    Zn2   S    
C12   C30   S    
C1    C7    S    
C26   H16   S    
C15   N3    S    
O8    Zn2   S    
C35   H44   S    
C9    C24   S    
C6    C7    D    
C20   H49   S    
C7    C19   S    
C23   H1    S    
O12   Zn2   S    
C32   C33   S    
C13   O4    A    
C28   H25   S    
C24   H13   S    
C19   H50   S    
C27   H19   S    
O1    Zn1   S    
C2    C37   A    
C33   H37   S    
C38   C39   A    
C8    C11   S    
C20   H48   S    
C34   C36   A    
C32   C40   S    
C33   H38   S    
C26   H17   S    
C25   H9    S    
O6    Zn1   S    
C22   H5    S    
C13   C16   S    
H12   N1    S    
C11   O7    A    
C3    C16   A    
C21   H7    S    
