data_mof_unit_42134.cif
_audit_creation_date              2012-12-10T17:27:52-0500
_audit_creation_method            fapswitch 2.2
_symmetry_space_group_name_H-M    P1
_symmetry_Int_Tables_number       1
_space_group_crystal_system       triclinic
_cell_length_a                    10.715503
_cell_length_b                    11.952802
_cell_length_c                    12.891117
_cell_angle_alpha                 92.241787
_cell_angle_beta                  89.068045
_cell_angle_gamma                 86.912909
_cell_volume                      1647.16081867

loop_
_atom_site_label
_atom_site_type_symbol
_atom_type_description
_atom_site_fract_x
_atom_site_fract_y
_atom_site_fract_z
_atom_type_partial_charge
C1    C     C_R   0.483979 0.520658 0.699452 1.095998
C2    C     C_R   0.363736 0.606512 0.855549 -0.112108
C3    C     C_R   0.506752 0.441464 0.867434 0.613433
C4    C     C_R   0.740045 0.500837 0.498291 0.975742
C5    C     C_R   0.476577 0.435675 0.971597 -0.151481
C6    C     C_R   0.424866 0.533411 0.021915 -0.113664
C7    C     C_R   0.457114 0.556066 0.124679 0.100448
C8    C     C_R   0.532936 0.355307 0.134658 0.057088
C9    C     C_R   0.511278 0.340594 0.027297 0.162521
C10   C     C_R   0.367223 0.957068 0.420533 0.561912
C11   C     C_R   0.380424 0.840653 0.427804 0.504242
C12   C     C_R   0.932324 0.466564 0.594922 -0.229633
C13   C     C_R   0.559744 0.856353 0.531842 0.679468
C14   C     C_R   0.548911 0.974738 0.528912 -0.351316
C15   C     C_R   0.451841 0.025500 0.471155 -0.449580
C16   C     C_R   0.504575 0.478569 0.298133 0.868893
C17   C     C_R   0.441787 0.143572 0.466863 0.813445
C18   C     C_R   0.615803 0.160422 0.576712 -0.233419
C19   C     C_R   0.631118 0.043771 0.582313 0.672682
C20   C     C_R   0.260680 0.499612 0.508061 0.995254
C21   C     C_R   0.865358 0.446373 0.687239 0.557171
C22   C     C_R   0.922367 0.389094 0.766962 0.514450
C23   C     C_R   0.872621 0.504135 0.504309 -0.100231
C24   C     C_R   0.048283 0.353368 0.758262 -0.195411
C25   C     C_R   0.120752 0.390877 0.675929 0.532066
C26   C     C_R   0.062950 0.449874 0.593503 -0.201174
C27   C     C_3   0.882183 0.569400 0.315147 -0.360929
C28   C     C_3   0.940800 0.498587 0.222309 -0.342443
C29   C     C_3   0.870518 0.519222 0.122163 -0.842489
C30   C     C_3   0.514263 0.224022 0.972677 -0.345749
C31   C     C_3   0.413522 0.150450 0.015921 -0.427552
C32   C     C_3   0.434899 0.029062 0.975292 -0.829551
C33   C     C_3   0.280337 0.686918 0.794606 -0.315807
C34   C     C_R   0.940884 0.539084 0.417942 -0.056919
C35   C     C_3   0.140644 0.666796 0.809594 -0.359080
C36   C     C_3   0.060782 0.729123 0.730966 -0.794720
C37   C     C_3   0.103480 0.274401 0.836474 -0.316788
C38   C     C_3   0.046992 0.159170 0.823093 -0.295120
C39   C     C_3   0.108640 0.073114 0.892783 -0.872017
C40   C     C_3   0.468337 0.680117 0.159407 -0.269888
C41   C     C_3   0.605353 0.709255 0.170040 -0.433480
C42   C     C_3   0.617881 0.831079 0.206628 -0.824721
C43   C     C_3   0.596315 0.257209 0.191959 -0.379285
C44   C     C_3   0.727072 0.282917 0.229654 -0.376040
C45   C     C_R   0.068085 0.545647 0.427831 0.627463
C46   C     C_3   0.781816 0.189779 0.295746 -0.791525
C47   C     C_R   0.128714 0.496796 0.510963 -0.196786
C48   C     C_R   0.502276 0.463930 0.184277 -0.161900
C49   C     C_R   0.454296 0.528087 0.809270 -0.275228
C50   C     C_R   0.353055 0.610253 0.963969 0.581579
F1    F     F_    0.599259 0.370254 0.825582 -0.593564
F2    F     F_    0.135116 0.594547 0.353056 -0.619586
F3    F     F_    0.268691 0.684372 0.012720 -0.681875
F4    F     F_    0.351908 0.194963 0.409857 -0.600692
F5    F     F_    0.270925 0.001792 0.365721 -0.563450
F6    F     F_    0.725522 0.999679 0.639540 -0.605378
F7    F     F_    0.294941 0.776231 0.382557 -0.562213
F8    F     F_    0.650957 0.804854 0.587376 -0.564614
F9    F     F_    0.746355 0.487107 0.703406 -0.610814
F10   F     F_    0.854260 0.367817 0.853011 -0.614458
F11   F     F_    0.245815 0.369030 0.678899 -0.683427
H1    H     H_    0.679112 0.213530 0.617451 0.220441
H2    H     H_    0.527187 0.994075 0.000177 0.262814
H3    H     H_    0.360943 0.977473 0.006658 0.277874
H4    H     H_    0.411275 0.151465 0.101902 0.254553
H5    H     H_    0.320266 0.183848 0.991596 0.233491
H6    H     H_    0.493235 0.228187 0.889031 0.252349
H7    H     H_    0.609560 0.183017 0.975901 0.228457
H8    H     H_    0.071878 0.820843 0.740099 0.272797
H9    H     H_    0.088303 0.700237 0.650496 0.265728
H10   H     H_    0.960843 0.712488 0.743871 0.284025
H11   H     H_    0.125735 0.576017 0.800861 0.219595
H12   H     H_    0.771615 0.497475 0.130301 0.251728
H13   H     H_    0.107361 0.696020 0.888451 0.289901
H14   H     H_    0.297827 0.774548 0.820074 0.219156
H15   H     H_    0.300762 0.679276 0.710493 0.206982
H16   H     H_    0.207320 0.055260 0.867677 0.265995
H17   H     H_    0.104154 0.104286 0.975150 0.275709
H18   H     H_    0.059530 0.993734 0.886129 0.271853
H19   H     H_    0.945326 0.166628 0.842184 0.278490
H20   H     H_    0.058963 0.127696 0.740980 0.243820
H21   H     H_    0.206698 0.263442 0.826803 0.240958
H22   H     H_    0.083821 0.310130 0.916380 0.211551
H23   H     H_    0.874040 0.608562 0.102241 0.276132
H24   H     H_    0.568519 0.888952 0.153850 0.261055
H25   H     H_    0.578670 0.845612 0.286303 0.244726
H26   H     H_    0.718230 0.849864 0.207577 0.258476
H27   H     H_    0.652676 0.655049 0.225795 0.240893
H28   H     H_    0.653825 0.694923 0.093389 0.238320
H29   H     H_    0.432139 0.739395 0.102241 0.242722
H30   H     H_    0.410826 0.703320 0.229345 0.291805
H31   H     H_    0.721841 0.180898 0.365603 0.257158
H32   H     H_    0.789430 0.108778 0.250208 0.260220
H33   H     H_    0.876511 0.210765 0.321330 0.264241
H34   H     H_    0.914959 0.466252 0.057620 0.289359
H35   H     H_    0.789393 0.290556 0.160845 0.242691
H36   H     H_    0.725216 0.362689 0.276276 0.223879
H37   H     H_    0.535087 0.229558 0.254931 0.249529
H38   H     H_    0.611468 0.179972 0.142793 0.197180
H39   H     H_    0.038961 0.519266 0.207955 0.301102
H40   H     H_    0.941542 0.408256 0.239150 0.216401
H41   H     H_    0.781376 0.555377 0.316941 0.149656
H42   H     H_    0.893097 0.659849 0.302535 0.252510
H43   H     H_    0.432352 0.024240 0.889131 0.266770
N1    N     N_R   0.523130 0.207800 0.519340 -0.192497
N2    N     N_R   0.476870 0.792180 0.480660 -0.260840
O1    O     O_R   0.506170 0.421690 0.658830 -0.515299
O2    O     O_R   0.491330 0.609320 0.646410 -0.620204
O3    O     O_R   0.690660 0.406170 0.506210 -0.630070
O4    O     O_R   0.675810 0.593790 0.493790 -0.562040
O5    O     O_R   0.508670 0.390680 0.353590 -0.606819
O6    O     O_R   0.493830 0.578310 0.341170 -0.610932
O7    O     O_R   0.324190 0.406210 0.506210 -0.517692
O8    O     O_R   0.309340 0.593830 0.493790 -0.564432
Zn1   Zn    Zn3+2 0.509910 0.374720 0.508290 1.064515
Zn2   Zn    Zn3+2 0.490090 0.625280 0.491710 1.055468

loop_
_geom_bond_atom_site_label_1
_geom_bond_atom_site_label_2
_ccdc_geom_bond_type
C19   F6    S    
C31   H5    S    
C41   H28   S    
C4    O3    A    
C35   H13   S    
C41   C42   S    
C35   C36   S    
C8    C43   S    
C16   C48   S    
C3    C49   A    
C12   C23   A    
C39   H16   S    
C28   C29   S    
C43   H38   S    
C21   F9    S    
C10   C15   A    
C22   F10   S    
C30   C31   S    
C46   H31   S    
C15   C17   A    
C18   C19   A    
C2    C50   A    
C28   H40   S    
C33   H14   S    
C44   C46   S    
C8    C9    A    
C7    C40   S    
C32   H43   S    
C42   H25   S    
C13   C14   A    
C30   H6    S    
C36   H10   S    
C28   H39   S    
C21   C22   A    
C36   H9    S    
C45   C47   A    
C27   C34   S    
C38   C39   S    
C50   F3    S    
C39   H17   S    
C24   C25   A    
C32   H3    S    
C29   H23   S    
C34   C45   A    
C4    C23   S    
C3    F1    S    
C18   H1    S    
C13   F8    S    
C45   F2    S    
C25   C26   A    
C12   C21   A    
N2    Zn2   S    
C39   H18   S    
C43   C44   S    
C8    C48   A    
C5    C9    A    
C37   C38   S    
C44   H35   S    
C2    C49   A    
C17   N1    A    
C44   H36   S    
C33   H15   S    
C31   C32   S    
C46   H33   S    
C23   C34   A    
C11   N2    A    
C24   C37   S    
C42   H24   S    
C25   F11   S    
C6    C50   A    
C10   F5    S    
O1    Zn1   S    
C9    C30   S    
C1    O1    A    
C26   C47   A    
C2    C33   S    
C40   C41   S    
C35   H11   S    
C38   H20   S    
C43   H37   S    
C22   C24   A    
C37   H21   S    
O4    Zn2   S    
O6    Zn2   S    
C36   H8    S    
C16   O6    A    
C29   H34   S    
C31   H4    S    
C41   H27   S    
C4    O4    A    
C14   C19   A    
N1    Zn1   S    
C32   H2    S    
C13   N2    A    
C3    C5    A    
O8    Zn2   S    
C6    C7    A    
C27   H41   S    
C7    C48   A    
O2    Zn2   S    
C18   N1    A    
C20   O8    A    
C5    C6    A    
C46   H32   S    
C38   H19   S    
C27   H42   S    
C33   C35   S    
C40   H30   S    
C20   O7    A    
C20   C47   S    
C10   C11   A    
O3    Zn1   S    
C1    O2    A    
C29   H12   S    
C12   C26   A    
C27   C28   S    
C14   C15   A    
C37   H22   S    
O5    Zn1   S    
C42   H26   S    
C40   H29   S    
C11   F7    S    
C1    C49   S    
C17   F4    S    
C30   H7    S    
C16   O5    A    
O7    Zn1   S    
