data_mof_unit_20288.cif
_audit_creation_date              2012-12-10T22:11:16-0500
_audit_creation_method            fapswitch 2.2
_symmetry_space_group_name_H-M    P1
_symmetry_Int_Tables_number       1
_space_group_crystal_system       triclinic
_cell_length_a                    12.131963
_cell_length_b                    12.354741
_cell_length_c                    23.02512
_cell_angle_alpha                 90.387823
_cell_angle_beta                  91.278728
_cell_angle_gamma                 91.352157
_cell_volume                      3449.26004178

loop_
_atom_site_label
_atom_site_type_symbol
_atom_type_description
_atom_site_fract_x
_atom_site_fract_y
_atom_site_fract_z
_atom_type_partial_charge
C1    C     C_R   0.656396 0.998277 0.579793 0.862105
C2    C     C_R   0.343604 0.001723 0.420207 0.862104
C3    C     C_R   0.905047 0.739277 0.160221 -0.194198
C4    C     C_R   0.094953 0.260723 0.839780 -0.194200
C5    C     C_R   0.076458 0.890588 0.171859 -0.214673
C6    C     C_R   0.923542 0.109413 0.828140 -0.214673
C7    C     C_R   0.079499 0.813050 0.128924 -0.144175
C8    C     C_R   0.920501 0.186951 0.871075 -0.144172
C9    C     C_R   0.900058 0.103954 0.161170 0.222475
C10   C     C_R   0.099942 0.896046 0.838829 0.222472
C11   C     C_R   0.905997 0.183077 0.118035 -0.072519
C12   C     C_R   0.094004 0.816922 0.881965 -0.072516
C13   C     C_R   0.156927 0.910758 0.297549 -0.177762
C14   C     C_R   0.843073 0.089242 0.702451 -0.177763
C15   C     C_R   0.238879 0.910605 0.340308 -0.168553
C16   C     C_R   0.761122 0.089396 0.659691 -0.168553
C17   C     C_R   0.825142 0.100531 0.299206 0.025699
C18   C     C_R   0.174857 0.899468 0.700794 0.025698
C19   C     C_R   0.744155 0.093509 0.340843 -0.204632
C20   C     C_R   0.255844 0.906491 0.659157 -0.204632
C21   C     C_3   0.989349 0.001845 0.247755 -0.081928
C22   C     C_3   0.010651 0.998156 0.752245 -0.081929
C23   C     C_R   0.654647 0.002469 0.421426 0.881255
C24   C     C_R   0.345352 0.997531 0.578574 0.881256
C25   C     C_R   0.094326 0.004325 0.287256 0.084026
C26   C     C_R   0.905674 0.995675 0.712744 0.084026
C27   C     C_R   0.259712 0.002909 0.374424 -0.023643
C28   C     C_R   0.740288 0.997091 0.625576 -0.023643
C29   C     C_R   0.897123 0.010720 0.292013 0.107089
C30   C     C_R   0.102877 0.989280 0.707987 0.107090
C31   C     C_R   0.738668 0.006059 0.378469 -0.039030
C32   C     C_R   0.261332 0.993941 0.621531 -0.039031
C33   C     C_R   0.989334 0.093230 0.202303 0.049183
C34   C     C_R   0.010666 0.906770 0.797697 0.049186
C35   C     C_R   0.997083 0.256169 0.117694 -0.152389
C36   C     C_R   0.002917 0.743831 0.882306 -0.152390
C37   C     C_R   0.986197 0.897791 0.209829 0.039960
C38   C     C_R   0.013803 0.102209 0.790171 0.039960
C39   C     C_R   0.992062 0.739764 0.121893 -0.085406
C40   C     C_R   0.007938 0.260236 0.878107 -0.085406
C41   C     C_R   0.993402 0.660137 0.075951 0.904792
C42   C     C_R   0.006598 0.339863 0.924049 0.904797
C43   C     C_R   0.998915 0.348344 0.078747 0.885593
C44   C     C_R   0.001084 0.651656 0.921253 0.885589
C45   C     C_R   0.116777 0.096238 0.322650 -0.175305
C46   C     C_R   0.883222 0.903762 0.677350 -0.175304
C47   C     C_R   0.199369 0.096194 0.364965 -0.188352
C48   C     C_R   0.800630 0.903805 0.635035 -0.188352
C49   C     C_R   0.894869 0.928581 0.334704 -0.102128
C50   C     C_R   0.105131 0.071419 0.665296 -0.102127
C51   C     C_R   0.815768 0.925286 0.376639 -0.154574
C52   C     C_R   0.184233 0.074714 0.623362 -0.154574
C53   C     C_R   0.084870 0.159242 0.195055 -0.161408
C54   C     C_R   0.915129 0.840759 0.804946 -0.161410
C55   C     C_R   0.086973 0.241415 0.154957 -0.176019
C56   C     C_R   0.913027 0.758587 0.845044 -0.176019
C57   C     C_R   0.900281 0.815746 0.204588 0.328994
C58   C     C_R   0.099719 0.184253 0.795412 0.328994
H1    H     H_    0.213506 0.168187 0.391464 0.165040
H2    H     H_    0.786492 0.831812 0.608537 0.165041
H3    H     H_    0.951564 0.862280 0.333585 0.151643
H4    H     H_    0.048436 0.137720 0.666415 0.151642
H5    H     H_    0.160303 0.148702 0.219764 0.166661
H6    H     H_    0.839697 0.851300 0.780237 0.166661
H7    H     H_    0.144932 0.948385 0.174527 0.175040
H8    H     H_    0.855067 0.051616 0.825473 0.175040
H9    H     H_    0.139818 0.834749 0.275350 0.151506
H10   H     H_    0.860183 0.165252 0.724649 0.151506
H11   H     H_    0.814363 0.859041 0.407245 0.157268
H12   H     H_    0.185637 0.140960 0.592756 0.157268
H13   H     H_    0.159704 0.293826 0.153214 0.177869
H14   H     H_    0.840295 0.706176 0.846787 0.177870
H15   H     H_    0.839266 0.678764 0.155156 0.194320
H16   H     H_    0.160735 0.321235 0.844845 0.194321
H17   H     H_    0.149020 0.812476 0.100206 0.207011
H18   H     H_    0.850979 0.187526 0.899793 0.207011
H19   H     H_    0.284533 0.837348 0.347343 0.166566
H20   H     H_    0.715468 0.162653 0.652656 0.166566
H21   H     H_    0.686227 0.158602 0.345047 0.174886
H22   H     H_    0.313772 0.841397 0.654953 0.174886
H23   H     H_    0.068402 0.167753 0.318474 0.205492
H24   H     H_    0.931596 0.832246 0.681527 0.205493
O1    O     O_R   0.621380 0.090460 0.561410 -0.622888
O2    O     O_R   0.378620 0.909540 0.438590 -0.622888
O3    O     O_R   0.617150 0.909540 0.438590 -0.613363
O4    O     O_R   0.382850 0.090460 0.561410 -0.613363
O5    O     O_R   0.619720 0.093230 0.440890 -0.628682
O6    O     O_R   0.380280 0.906770 0.559110 -0.628682
O7    O     O_R   0.618800 0.906770 0.559110 -0.627057
O8    O     O_R   0.381200 0.093230 0.440890 -0.627056
O9    O     O_R   0.087590 0.627480 0.058790 -0.615686
O10   O     O_R   0.912410 0.372520 0.941210 -0.615683
O11   O     O_R   0.905660 0.383870 0.059980 -0.613052
O12   O     O_R   0.094340 0.616130 0.940020 -0.613053
O13   O     O_R   0.092570 0.390420 0.063230 -0.621147
O14   O     O_R   0.907430 0.609580 0.936770 -0.621147
O15   O     O_R   0.900680 0.620930 0.055550 -0.616458
O16   O     O_R   0.099320 0.379070 0.944450 -0.616458
Zn1   Zn    Zn3+2 0.501730 0.123520 0.501540 0.986267
Zn2   Zn    Zn3+2 0.498270 0.876480 0.498460 0.986267
Zn3   Zn    Zn3+2 0.125690 0.504390 0.002180 1.027832
Zn4   Zn    Zn3+2 0.874310 0.495610 0.997820 1.027833
Br1   Br    Br    0.765760 0.797930 0.247251 -0.472009
Br2   Br    Br    0.234241 0.202069 0.752749 -0.472009
Br3   Br    Br    0.765458 0.016900 0.162420 -0.394353
Br4   Br    Br    0.234543 0.983098 0.837579 -0.394354
C59   C     C_2   0.830953 0.206262 0.269064 0.885957
O17   O     O_2   0.749553 0.238493 0.242711 -0.555455
O18   O     O_R   0.925223 0.272906 0.274365 -0.840123
H25   H     H_    0.917798 0.343231 0.252333 0.353662
C60   C     C_2   0.169047 0.793737 0.730935 0.885957
O19   O     O_2   0.250446 0.761506 0.757289 -0.555454
O20   O     O_R   0.074775 0.727094 0.725635 -0.840123
H26   H     H_    0.082200 0.656769 0.747667 0.353662
C61   C     C_2   0.819268 0.185031 0.071579 1.017683
O21   O     O_2   0.842832 0.163944 0.021475 -0.642994
O22   O     O_R   0.711757 0.212980 0.085030 -0.723101
H27   H     H_    0.660544 0.212095 0.049622 0.347180
C62   C     C_2   0.180735 0.814966 0.928419 1.017688
O23   O     O_2   0.157175 0.836058 0.978523 -0.642992
O24   O     O_R   0.288243 0.787007 0.914967 -0.723102
H28   H     H_    0.339456 0.787885 0.950374 0.347178

loop_
_geom_bond_atom_site_label_1
_geom_bond_atom_site_label_2
_ccdc_geom_bond_type
C16   C28   A    
O14   Zn4   S    
C17   C29   A    
C2    O2    A    
C60   O19   D    
C19   C31   A    
C39   C41   S    
C29   C49   A    
C36   C56   A    
C7    C39   A    
C5    C37   A    
C17   C59   S    
C20   C32   A    
C21   C33   S    
C9    Br3   S    
C61   O21   D    
C22   C38   S    
C8    H18   S    
C18   C20   A    
C45   C47   A    
C2    O8    A    
C32   C52   A    
C17   C19   A    
C46   H24   S    
C15   C27   A    
C60   O20   S    
C4    C40   A    
O12   Zn3   S    
C61   O22   S    
C1    C28   S    
C50   C52   A    
C59   O17   D    
C6    C38   A    
C2    C27   S    
C18   C30   A    
C14   C16   A    
C12   C36   A    
C11   C61   S    
C16   H20   S    
O15   Zn4   S    
O10   Zn4   S    
C62   O24   S    
C30   C50   A    
C3    C39   A    
O1    Zn1   S    
C9    C33   A    
C59   O18   S    
C13   C25   A    
O9    Zn3   S    
C57   Br1   S    
C48   H2    S    
C46   C48   A    
C53   C55   A    
C33   C53   A    
C22   C34   S    
C54   C56   A    
C49   H3    S    
C20   H22   S    
O7    Zn2   S    
C35   C55   A    
O2    Zn2   S    
C52   H12   S    
C18   C60   S    
C5    H7    S    
C5    C7    A    
C7    H17   S    
C49   C51   A    
C21   C29   S    
C23   C31   S    
C24   C32   S    
C44   O14   A    
C12   C62   S    
C24   O6    A    
C43   O13   A    
C10   C34   A    
C38   C58   A    
C14   C26   A    
C19   H21   S    
O4    Zn1   S    
C9    C11   A    
O24   H28   S    
O6    Zn2   S    
C10   C12   A    
C3    C57   A    
C41   O9    A    
C34   C54   A    
C13   C15   A    
C23   O3    A    
C50   H4    S    
C41   O15   A    
C36   C44   S    
C58   Br2   S    
C25   C45   A    
O8    Zn1   S    
C35   C43   S    
O20   H26   S    
C13   H9    S    
C27   C47   A    
C21   C25   S    
C28   C48   A    
C1    O7    A    
C22   C30   S    
C56   H14   S    
C4    H16   S    
C45   H23   S    
C31   C51   A    
C40   C42   S    
O11   Zn4   S    
C6    C8    A    
C62   O23   D    
C1    O1    A    
O16   Zn3   S    
C51   H11   S    
C42   O16   A    
O3    Zn2   S    
O22   H27   S    
C53   H5    S    
C15   H19   S    
C54   H6    S    
C11   C35   A    
C43   O11   A    
C42   O10   A    
C3    H15   S    
C55   H13   S    
C44   O12   A    
C26   C46   A    
C47   H1    S    
O5    Zn1   S    
C6    H8    S    
C21   C37   S    
C22   C26   S    
C4    C58   A    
C10   Br4   S    
C14   H10   S    
C23   O5    A    
C8    C40   A    
O18   H25   S    
C24   O4    A    
C37   C57   A    
O13   Zn3   S    
