data_mof_unit_24294.cif
_audit_creation_date              2013-03-05T15:50:44-0500
_audit_creation_method            fapswitch 2.2
_symmetry_space_group_name_H-M    P1
_symmetry_Int_Tables_number       1
_space_group_crystal_system       triclinic
_cell_length_a                    10.762589
_cell_length_b                    12.070582
_cell_length_c                    12.790657
_cell_angle_alpha                 93.998077
_cell_angle_beta                  91.774275
_cell_angle_gamma                 86.955143
_cell_volume                      1654.6396555

loop_
_atom_site_label
_atom_site_type_symbol
_atom_site_description
_atom_site_fract_x
_atom_site_fract_y
_atom_site_fract_z
_atom_type_partial_charge
O1    O     O_R   0.506240 0.421700 0.658830 -0.621768
O2    O     O_R   0.491240 0.609310 0.646410 -0.574821
C1    C     C_R   0.497261 0.522470 0.700170 0.920453
O3    O     O_R   0.692710 0.406190 0.506230 -0.619741
O4    O     O_R   0.677700 0.593810 0.493810 -0.569217
C2    C     C_R   0.742309 0.500703 0.501064 0.978610
Zn1   Zn    Zn3+2 0.510020 0.374730 0.508290 1.055574
Zn2   Zn    Zn3+2 0.489980 0.625270 0.491710 1.071823
O5    O     O_R   0.508760 0.390690 0.353590 -0.565801
O6    O     O_R   0.493760 0.578300 0.341170 -0.651758
O7    O     O_R   0.322300 0.406190 0.506190 -0.578011
O8    O     O_R   0.307290 0.593810 0.493770 -0.598200
C3    C     C_R   0.502912 0.477687 0.299880 0.943446
C4    C     C_R   0.258448 0.498348 0.495514 0.947015
C5    C     C_3   0.937027 0.378139 0.516044 -0.172152
H1    H     H_    0.918531 0.361352 0.598290 0.187253
C6    C     C_3   0.079377 0.375688 0.508122 0.101605
H2    H     H_    0.116624 0.357081 0.587935 0.147621
C7    C     C_3   0.919062 0.540241 0.390254 -0.232352
C8    C     C_3   0.932629 0.579033 0.595290 0.442776
C9    C     C_3   0.879385 0.500513 0.499217 -0.166211
C10   C     C_3   0.122492 0.495978 0.490040 -0.258152
C11   C     C_3   0.065965 0.544777 0.384398 0.466967
C12   C     C_3   0.077486 0.571257 0.587597 -0.577146
H3    H     H_    0.124655 0.540524 0.659169 0.210053
H4    H     H_    0.113753 0.655569 0.586690 0.263526
H5    H     H_    0.879379 0.625730 0.384151 0.243264
C13   C     C_R   0.508876 0.464015 0.188586 -0.026119
C14   C     C_R   0.491827 0.537007 0.811566 -0.020623
C15   C     C_R   0.392151 0.619153 0.965744 -0.137233
C16   C     C_R   0.408791 0.616967 0.858677 -0.129921
C17   C     C_R   0.561457 0.461847 0.870140 -0.166385
C18   C     C_R   0.543883 0.461713 0.976195 0.143312
C19   C     C_R   0.458058 0.540727 0.024315 0.137845
C20   C     C_R   0.440491 0.540534 0.130429 -0.175349
C21   C     C_R   0.592325 0.384520 0.141433 -0.135686
C22   C     C_R   0.609784 0.383188 0.034609 -0.157246
H6    H     H_    0.375973 0.601585 0.168474 0.192160
H7    H     H_    0.647751 0.327455 0.187728 0.198066
H8    H     H_    0.326409 0.680011 0.002184 0.180257
H9    H     H_    0.675784 0.322575 0.998148 0.167196
H10   H     H_    0.353392 0.673962 0.812242 0.197597
H11   H     H_    0.627348 0.401998 0.832626 0.175909
N1    N     N_R   0.523380 0.207800 0.519350 -0.159340
N2    N     N_R   0.476620 0.792180 0.480650 -0.159257
C23   C     C_R   0.440471 0.944497 0.370197 -0.174011
C24   C     C_R   0.440888 0.830968 0.386251 0.010847
C25   C     C_R   0.510823 0.864624 0.562607 0.449343
C26   C     C_R   0.516392 0.979679 0.548420 -0.067872
C27   C     C_R   0.479882 0.020413 0.451331 -0.047908
C28   C     C_R   0.485050 0.135913 0.437901 0.428248
C29   C     C_R   0.570858 0.166654 0.610226 0.205834
C30   C     C_R   0.564132 0.053475 0.627030 -0.220082
H12   H     H_    0.411016 0.971706 0.294048 0.212886
H13   H     H_    0.600333 0.023235 0.700249 0.209217
H14   H     H_    0.413535 0.773740 0.322070 0.185251
N3    N     N_3   0.878051 0.285230 0.455678 -0.386343
H15   H     H_    0.882352 0.286918 0.375159 0.256413
H16   H     H_    0.917457 0.209219 0.478432 0.238645
N4    N     N_R   0.100913 0.661906 0.378129 0.207422
O9    O     O_R   0.186687 0.685013 0.314537 -0.356063
O10   O     O_R   0.045714 0.744624 0.431878 -0.345576
N5    N     N_R   0.462840 0.175407 0.336073 0.205206
O11   O     O_R   0.350495 0.205055 0.305573 -0.252232
O12   O     O_R   0.548487 0.156966 0.266559 -0.414969
N6    N     N_3   0.633620 0.237985 0.686292 -0.395285
H17   H     H_    0.659193 0.196294 0.753263 0.174174
H18   H     H_    0.716176 0.258662 0.653280 0.209154
N7    N     N_R   0.538445 0.824480 0.663509 0.199648
O13   O     O_R   0.649714 0.784180 0.685592 -0.274846
O14   O     O_R   0.461868 0.850079 0.739158 -0.400265
N8    N     N_R   0.130066 0.284029 0.436928 0.264530
O15   O     O_R   0.094839 0.271995 0.338843 -0.317524
O16   O     O_R   0.194042 0.202127 0.477287 -0.355607
N9    N     N_3   0.857833 0.476452 0.302397 -0.466961
H19   H     H_    0.912502 0.408535 0.272837 0.262029
H20   H     H_    0.838501 0.527623 0.240523 0.236509
N10   N     N_R   0.114496 0.482864 0.288404 0.223864
O17   O     O_R   0.225525 0.434774 0.289347 -0.338581
O18   O     O_R   0.069911 0.510763 0.197511 -0.348754
N11   N     N_R   0.893250 0.699025 0.597557 0.266303
O19   O     O_R   0.826115 0.744306 0.524235 -0.340777
O20   O     O_R   0.929164 0.763687 0.677347 -0.282778
N12   N     N_R   0.892629 0.539022 0.695572 0.190015
O21   O     O_R   0.778064 0.558976 0.723744 -0.373827
O22   O     O_R   0.969135 0.488034 0.759360 -0.395119

loop_
_geom_bond_atom_site_label_1
_geom_bond_atom_site_label_2
_geom_bond_distance
_ccdc_geom_bond_type
N6    H18   1.044766 S    
N5    O12   1.300443 A    
C16   H10   1.083058 S    
C25   N7    1.427226 S    
N11   O19   1.299198 A    
Zn1   O7    2.035512 S    
C21   C22   1.383845 A    
C7    C9    1.583205 S    
C12   H4    1.110094 S    
C14   C17   1.390590 A    
O4    C2    1.297187 A    
O7    C4    1.289384 A    
N10   O18   1.303137 A    
N3    H16   1.046241 S    
C5    H1    1.111007 S    
N4    O10   1.299627 A    
C19   C20   1.376337 A    
N7    O14   1.300618 A    
O5    C3    1.292109 A    
Zn2   N2    2.026676 S    
C8    C12   1.562608 S    
C13   C20   1.392046 A    
C3    C13   1.424617 S    
C7    H5    1.102572 S    
N1    C29   1.369535 A    
N2    C24   1.362324 A    
N6    H17   1.045738 S    
C8    N11   1.485915 S    
C5    N3    1.476903 S    
O3    Zn1   2.023569 S    
N11   O20   1.302569 A    
C27   C28   1.420734 A    
C30   H13   1.082619 S    
C11   N4    1.490279 S    
C15   C19   1.398285 A    
C20   H6    1.085623 S    
C28   N5    1.426876 S    
N12   O21   1.300790 A    
N8    O16   1.301829 A    
N10   O17   1.300547 A    
C2    C9    1.476091 S    
C18   C22   1.397939 A    
N4    O9    1.302724 A    
O1    C1    1.292063 A    
C7    C11   1.589160 S    
N9    H19   1.039484 S    
Zn2   O8    2.023570 S    
C23   H12   1.082338 S    
C6    H2    1.118195 S    
C15   H8    1.083949 S    
Zn1   N1    2.026916 S    
C12   H3    1.109940 S    
N9    H20   1.046633 S    
N1    C28   1.376150 A    
O3    C2    1.291593 A    
C25   C26   1.417713 A    
O8    C4    1.293535 A    
C8    N12   1.485424 S    
C10   C12   1.565221 S    
C29   N6    1.431245 S    
C29   C30   1.403636 A    
N2    C25   1.371689 A    
C5    C6    1.537112 S    
C23   C24   1.399498 A    
O1    Zn1   1.969982 S    
C21   H7    1.082724 S    
O2    Zn2   2.000957 S    
N12   O22   1.302698 A    
N8    O15   1.299916 A    
O6    C3    1.290189 A    
O4    Zn2   2.035511 S    
C23   C27   1.406405 A    
C6    C10   1.581804 S    
C17   C18   1.375544 A    
C4    C10   1.464440 S    
C7    N9    1.475575 S    
O2    C1    1.290857 A    
C14   C16   1.397832 A    
C1    C14   1.426027 S    
N3    H15   1.034032 S    
C15   C16   1.384855 A    
C26   C30   1.400062 A    
C17   H11   1.083208 S    
C18   C19   1.414720 A    
C11   N10   1.486322 S    
C22   H9    1.084005 S    
N7    O13   1.298778 A    
N5    O11   1.298656 A    
Zn1   O5    2.000956 S    
C5    C9    1.597446 S    
C8    C9    1.608858 S    
C13   C21   1.397285 A    
C6    N8    1.475491 S    
Zn2   O6    1.969983 S    
C26   C27   1.404531 A    
C10   C11   1.601534 S    
C24   H14   1.079496 S    
