data_mof_unit_26833.cif
_audit_creation_date              2012-12-11T16:26:26-0500
_audit_creation_method            fapswitch 2.2
_symmetry_space_group_name_H-M    P1
_symmetry_Int_Tables_number       1
_space_group_crystal_system       triclinic
_cell_length_a                    6.934519
_cell_length_b                    17.515076
_cell_length_c                    19.490298
_cell_angle_alpha                 108.669511
_cell_angle_beta                  89.791134
_cell_angle_gamma                 90.465658
_cell_volume                      2242.62571758

loop_
_atom_site_label
_atom_site_type_symbol
_atom_type_description
_atom_site_fract_x
_atom_site_fract_y
_atom_site_fract_z
_atom_type_partial_charge
O1    O     O_R   0.494330 0.415720 0.413720 -0.535907
O2    O     O_R   0.819330 0.430070 0.560210 -0.546307
O3    O     O_R   0.994320 0.584280 0.586280 -0.535632
C1    C     C_R   0.650421 0.414672 0.581507 0.707097
O4    O     O_R   0.823730 0.406300 0.412670 -0.538424
O5    O     O_R   0.998760 0.560340 0.437690 -0.539811
C2    C     C_R   0.654828 0.383471 0.385034 0.696597
O6    O     O_R   0.489890 0.439660 0.562310 -0.542052
O7    O     O_3   0.662340 0.550560 0.508380 -0.367806
V1    V     V_3+5 0.935370 0.490620 0.498450 1.414765
O8    O     O_R   0.328750 0.569930 0.439790 -0.545098
C3    C     C_R   0.160558 0.584863 0.418012 0.703537
O9    O     O_R   0.324340 0.593700 0.587330 -0.538416
C4    C     C_R   0.155591 0.616690 0.614880 0.695235
V2    V     V_3+5 0.435940 0.509380 0.501550 1.415553
O10   O     O_3   0.159100 0.449440 0.491620 -0.369053
H1    H     H_    0.355878 0.868041 0.574808 0.112237
C5    C     C_R   0.032707 0.592188 0.748315 -0.145127
C6    C     C_R   0.971504 0.578365 0.811500 -0.122899
C7    C     C_R   0.958918 0.642014 0.875905 -0.117135
C8    C     C_R   0.007456 0.719965 0.877619 -0.140784
C9    C     C_R   0.068389 0.736064 0.814169 0.071264
C10   C     C_R   0.081298 0.670844 0.748129 0.068914
C11   C     C_R   0.119982 0.815232 0.816040 -0.171240
C12   C     C_R   0.184781 0.829178 0.751877 0.020310
C13   C     C_R   0.197727 0.764000 0.685882 0.069096
C14   C     C_R   0.145691 0.684801 0.683927 -0.172145
C15   C     C_R   0.233948 0.907833 0.751862 -0.153124
C16   C     C_R   0.297119 0.922234 0.688944 0.251022
C17   C     C_R   0.308972 0.857955 0.624287 -0.150445
C18   C     C_R   0.259277 0.780107 0.622579 -0.181741
H2    H     H_    0.042931 0.540347 0.699968 0.105401
H3    H     H_    0.934865 0.517810 0.810533 0.116163
H4    H     H_    0.912449 0.630895 0.924968 0.121588
H5    H     H_    0.997915 0.767118 0.929337 0.103183
H6    H     H_    0.222804 0.959367 0.800460 0.119806
H7    H     H_    0.268683 0.732932 0.570868 0.114973
C19   C     C_R   0.305809 0.630597 0.319589 -0.165533
C20   C     C_R   0.153236 0.633502 0.368084 -0.120381
C21   C     C_R   0.993201 0.682075 0.367924 -0.194279
C22   C     C_R   0.986658 0.728536 0.321110 0.140630
C23   C     C_R   0.139745 0.724797 0.271929 -0.032059
C24   C     C_R   0.299562 0.674825 0.270474 0.002530
C25   C     C_R   0.829033 0.778760 0.322753 -0.156240
C26   C     C_R   0.822031 0.824980 0.276232 -0.187598
C27   C     C_R   0.971964 0.821529 0.226833 0.132901
C28   C     C_R   0.132017 0.771071 0.224367 0.018598
C29   C     C_R   0.282722 0.766657 0.174187 0.005067
C30   C     C_R   0.439896 0.714149 0.170963 0.092683
C31   C     C_R   0.449535 0.669137 0.219937 0.355704
C32   C     C_R   0.963344 0.867535 0.179718 -0.228850
C33   C     C_R   0.113049 0.864732 0.130367 -0.081214
C34   C     C_R   0.271701 0.814483 0.128019 -0.202898
H8    H     H_    0.427854 0.592283 0.319407 0.169454
H9    H     H_    0.874989 0.684787 0.405188 0.124927
H10   H     H_    0.710446 0.782112 0.359952 0.121039
H11   H     H_    0.698133 0.863038 0.278479 0.120985
H12   H     H_    0.840687 0.906309 0.181998 0.118667
H13   H     H_    0.384848 0.812564 0.089165 0.128147
C35   C     C_R   0.467228 0.192768 0.872907 0.152402
C36   C     C_R   0.620853 0.139534 0.872896 -0.091231
C37   C     C_R   0.778398 0.134525 0.826148 -0.299679
C38   C     C_R   0.783475 0.179637 0.778327 0.084727
C39   C     C_R   0.628649 0.230922 0.776772 0.026723
C40   C     C_R   0.470012 0.237917 0.824122 0.048293
C41   C     C_R   0.940681 0.173660 0.731368 -0.171148
C42   C     C_R   0.945461 0.218334 0.683396 -0.186715
C43   C     C_R   0.792659 0.269525 0.681251 0.087414
C44   C     C_R   0.633027 0.275583 0.727758 0.065395
C45   C     C_R   0.478091 0.326452 0.725394 0.091421
C46   C     C_R   0.321857 0.333309 0.772530 -0.181622
C47   C     C_R   0.317902 0.289953 0.821423 -0.187605
C48   C     C_R   0.797041 0.314956 0.633582 -0.229340
C49   C     C_R   0.642163 0.365366 0.630644 -0.086340
C50   C     C_R   0.482468 0.370205 0.676387 -0.219695
H14   H     H_    0.895970 0.093971 0.825870 0.145182
H15   H     H_    0.060778 0.134706 0.732028 0.163220
H16   H     H_    0.069196 0.213006 0.648087 0.134630
H17   H     H_    0.920733 0.310613 0.598378 0.129716
H18   H     H_    0.363363 0.409454 0.675040 0.124311
H19   H     H_    0.201916 0.372269 0.771566 0.127882
H20   H     H_    0.193404 0.297303 0.856463 0.133821
H21   H     H_    0.370289 0.145721 0.428836 0.113805
C51   C     C_R   0.789516 0.399958 0.249732 -0.132612
C52   C     C_R   0.854467 0.410023 0.185422 -0.093789
C53   C     C_R   0.842934 0.346494 0.120847 -0.122125
C54   C     C_R   0.766223 0.272438 0.120074 -0.125722
C55   C     C_R   0.700481 0.260133 0.184625 0.068275
C56   C     C_R   0.712456 0.325215 0.250835 0.059500
C57   C     C_R   0.620228 0.185062 0.183744 -0.181590
C58   C     C_R   0.551700 0.175100 0.249053 0.068440
C59   C     C_R   0.563754 0.240165 0.315264 0.070212
C60   C     C_R   0.644297 0.315196 0.316176 -0.183319
C61   C     C_R   0.474034 0.100440 0.250115 -0.145820
C62   C     C_R   0.408512 0.090449 0.314376 -0.124712
C63   C     C_R   0.420274 0.153937 0.378962 -0.119290
C64   C     C_R   0.497634 0.227899 0.379783 -0.132818
H22   H     H_    0.799282 0.451641 0.298267 0.116108
H23   H     H_    0.913012 0.467620 0.185677 0.133260
H24   H     H_    0.892573 0.354745 0.070944 0.116423
H25   H     H_    0.757740 0.225381 0.068232 0.106563
H26   H     H_    0.464111 0.048766 0.201582 0.107970
H27   H     H_    0.349369 0.032937 0.314080 0.117167
H28   H     H_    0.506200 0.274926 0.431636 0.102094
O11   O     O_R   0.775200 0.060470 0.937800 -0.548096
O12   O     O_R   0.441110 0.093720 0.087350 -0.534513
O13   O     O_R   0.266330 0.939630 0.062280 -0.545155
C65   C     C_R   0.609964 0.116718 0.114938 0.695824
O14   O     O_R   0.445750 0.069950 0.939820 -0.517163
O15   O     O_R   0.271000 0.915700 0.913700 -0.538199
C66   C     C_R   0.614504 0.087054 0.919809 0.741815
O16   O     O_R   0.770530 0.084400 0.086380 -0.538535
O17   O     O_3   0.602830 0.949510 0.991680 -0.373800
V3    V     V_3+5 0.329710 0.009370 0.001550 1.444921
O18   O     O_R   0.940990 0.906170 0.912570 -0.539798
C67   C     C_R   0.109818 0.883280 0.885068 0.691565
O19   O     O_R   0.936350 0.929940 0.060100 -0.544566
C68   C     C_R   0.104666 0.914702 0.081606 0.695412
V4    V     V_3+5 0.829160 0.990450 0.998310 1.414461
O20   O     O_3   0.105910 0.050480 0.008320 -0.358964
N1    N     N_3   0.588331 0.704215 0.117301 -0.690128
H29   H     H_    0.525185 0.683384 0.065961 0.234770
H30   H     H_    0.653967 0.759977 0.124001 0.237605
O21   O     O_3   0.602064 0.618311 0.219329 -0.655002
H31   H     H_    0.702831 0.623379 0.184982 0.328591
N2    N     N_3   0.311667 0.201685 0.923700 -0.652334
H32   H     H_    0.304326 0.262007 0.956262 0.219917
H33   H     H_    0.182552 0.184991 0.895118 0.227652
N3    N     N_3   0.345527 0.002992 0.691638 -0.689463
H34   H     H_    0.386033 0.004325 0.640300 0.225987
H35   H     H_    0.466608 0.020964 0.724887 0.231540

loop_
_geom_bond_atom_site_label_1
_geom_bond_atom_site_label_2
_ccdc_geom_bond_type
C54   C55   A    
N2    H32   S    
C36   C66   S    
C48   C49   A    
C6    C7    A    
C1    O6    A    
C34   H13   S    
C52   C53   A    
C33   C34   A    
C12   C15   A    
C26   H11   S    
C13   C14   A    
C37   C38   A    
O12   V3    S    
C15   C16   A    
N3    H34   S    
O19   V4    S    
O5    C3    A    
C17   C18   A    
O18   C67   A    
C5    C6    A    
C22   C23   A    
O17   V4    S    
O8    V2    S    
C16   N3    S    
C62   C63   A    
C43   C44   A    
C45   C46   A    
O1    V2    S    
C10   C14   A    
C4    C14   S    
C53   H24   S    
C50   H18   S    
O15   V3    S    
O13   C68   A    
C1    C49   S    
C36   C37   A    
C7    H4    S    
C55   C56   A    
C41   C42   A    
O11   C66   A    
C38   C41   A    
C13   C18   A    
C54   H25   S    
C8    C9    A    
C56   C60   A    
H1    C17   S    
C37   H14   S    
C44   C45   A    
C42   H16   S    
C62   H27   S    
C59   C64   A    
C29   C34   A    
C2    C60   S    
C49   C50   A    
C42   C43   A    
C31   O21   S    
C11   C12   A    
C6    H3    S    
C20   C21   A    
O4    C2    A    
C53   C54   A    
C43   C48   A    
C26   C27   A    
C27   C32   A    
C19   C24   A    
C65   O16   A    
C35   C36   A    
O2    C1    A    
O13   V3    S    
C16   C17   A    
C52   H23   S    
C25   H10   S    
C28   C29   A    
C19   H8    S    
V4    O20   S    
C21   H9    S    
C30   N1    S    
C63   C64   A    
C48   H17   S    
C32   H12   S    
C39   C44   A    
C51   C52   A    
C15   H6    S    
N1    H29   S    
O3    C4    A    
O14   V3    S    
C21   C22   A    
C55   C57   A    
C35   C40   A    
C11   C67   S    
O6    V2    S    
O18   V4    S    
O9    V2    S    
C22   C25   A    
C9    C11   A    
C5    H2    S    
C51   C56   A    
O2    V1    S    
O15   C67   A    
C58   C59   A    
C25   C26   A    
O17   V3    S    
O7    V1    S    
C41   H15   S    
C27   C28   A    
C29   C30   A    
N2    H33   S    
O1    C2    A    
O5    V1    S    
O16   V4    S    
O8    C3    A    
C24   C31   A    
C8    H5    S    
C40   C47   A    
C51   H22   S    
C39   C40   A    
C3    C20   S    
O14   C66   A    
C12   C13   A    
C57   C65   S    
C32   C33   A    
O3    V1    S    
V1    O10   S    
O19   C68   A    
C58   C61   A    
C57   C58   A    
C19   C20   A    
O12   C65   A    
C5    C10   A    
H21   C63   S    
C35   N2    S    
C59   C60   A    
C23   C28   A    
O7    V2    S    
C61   C62   A    
C47   H20   S    
N1    H30   S    
C64   H28   S    
C38   C39   A    
C18   H7    S    
O4    V1    S    
C46   C47   A    
C7    C8    A    
C61   H26   S    
C30   C31   A    
C23   C24   A    
C45   C50   A    
C9    C10   A    
O11   V4    S    
C46   H19   S    
O9    C4    A    
V3    O20   S    
V2    O10   S    
O21   H31   S    
N3    H35   S    
C33   C68   S    
