data_mof_unit_15234.cif
_audit_creation_date              2012-12-11T17:37:51-0500
_audit_creation_method            fapswitch 2.2
_symmetry_space_group_name_H-M    P1
_symmetry_Int_Tables_number       1
_space_group_crystal_system       triclinic
_cell_length_a                    13.188283
_cell_length_b                    13.056927
_cell_length_c                    15.5193
_cell_angle_alpha                 116.530232
_cell_angle_beta                  63.309911
_cell_angle_gamma                 97.511093
_cell_volume                      2128.04475399

loop_
_atom_site_label
_atom_site_type_symbol
_atom_type_description
_atom_site_fract_x
_atom_site_fract_y
_atom_site_fract_z
_atom_type_partial_charge
C1    C     C_R   0.002295 0.832764 0.052703 -0.122195
C2    C     C_R   0.303071 0.585913 0.787498 -0.160716
C3    C     C_R   0.259076 0.423960 0.054084 -0.092456
C4    C     C_R   0.680013 0.467255 0.219179 -0.156516
C5    C     C_R   0.051341 0.279266 0.685715 -0.148184
C6    C     C_R   0.359837 0.444210 0.981760 0.158288
C7    C     C_R   0.041925 0.170618 0.681159 0.059168
C8    C     C_R   0.303049 0.548158 0.689485 0.077308
C9    C     C_R   0.012489 0.151039 0.039774 0.069899
C10   C     C_R   0.358406 0.975863 0.128305 -0.220960
C11   C     C_R   0.313581 0.962223 0.222676 -0.187200
C12   C     C_R   0.671009 0.542353 0.319357 -0.145336
C13   C     C_R   0.203786 0.010372 0.302715 -0.072550
C14   C     C_R   0.141587 0.080804 0.290946 0.442565
C15   C     C_R   0.188148 0.093452 0.196000 -0.242622
C16   C     C_R   0.747872 0.541540 0.912941 -0.122616
C17   C     C_R   0.294425 0.039059 0.113255 0.537739
C18   C     C_R   0.148492 0.060092 0.489705 -0.261915
C19   C     C_R   0.059315 0.067124 0.585894 0.054150
C20   C     C_R   0.975759 0.987378 0.586550 0.070988
C21   C     C_R   0.990832 0.895845 0.491623 -0.281713
C22   C     C_R   0.077188 0.890559 0.394447 0.077428
C23   C     C_R   0.648874 0.498713 0.962198 0.085061
C24   C     C_R   0.150460 0.979657 0.393442 0.087676
C25   C     C_R   0.838703 0.940024 0.736422 -0.356343
C26   C     C_R   0.748369 0.977897 0.840783 0.533698
C27   C     C_R   0.683866 0.081772 0.886559 0.195672
C28   C     C_R   0.025487 0.696773 0.295623 0.651930
C29   C     C_R   0.701016 0.140355 0.825309 -0.260901
C30   C     C_R   0.789532 0.102233 0.721961 -0.147103
C31   C     C_R   0.863960 0.006733 0.680357 0.061250
C32   C     C_R   0.864301 0.318648 0.339743 -0.090497
C33   C     C_R   0.751988 0.352982 0.371518 -0.155972
C34   C     C_R   0.073590 0.798442 0.299409 -0.136048
C35   C     C_R   0.702317 0.461506 0.456274 0.103545
C36   C     C_R   0.763470 0.532381 0.511299 -0.104215
C37   C     C_R   0.877744 0.501733 0.473066 -0.041059
C38   C     C_R   0.928256 0.394184 0.388630 -0.046381
C39   C     C_R   0.500938 0.516382 0.573210 -0.254130
C40   C     C_R   0.667887 0.443796 0.011111 -0.137618
C41   C     C_R   0.394533 0.557286 0.598982 0.054213
C42   C     C_R   0.377622 0.596059 0.534588 0.130244
C43   C     C_R   0.470172 0.591816 0.442554 -0.156739
C44   C     C_R   0.576912 0.549580 0.416523 0.050232
C45   C     C_R   0.335013 0.511251 0.946067 -0.072464
C46   C     C_R   0.592101 0.508706 0.480776 0.031894
C47   C     C_R   0.202567 0.547929 0.509452 0.540637
C48   C     C_R   0.083281 0.559570 0.563016 -0.621026
C49   C     C_R   0.024155 0.659401 0.657138 0.499437
C50   C     C_R   0.085367 0.749159 0.697372 0.544546
C51   C     C_R   0.204929 0.732961 0.649485 -0.509972
C52   C     C_R   0.092400 0.802057 0.206421 -0.181322
C53   C     C_R   0.262624 0.630759 0.558866 0.002173
C54   C     C_2   0.471899 0.429670 0.968223 -0.293679
C55   C     C_2   0.540903 0.515399 0.969737 0.185341
C56   C     C_R   0.981515 0.180849 0.783837 -0.098017
C57   C     C_2   0.839924 0.957925 0.088011 -0.167764
C58   C     C_2   0.821504 0.036712 0.186396 -0.162927
C59   C     C_R   0.779244 0.566681 0.310503 0.559393
C60   C     C_R   0.904057 0.749363 0.956362 -0.023316
C61   C     C_R   0.916920 0.852883 0.031229 0.125151
C62   C     C_R   0.206073 0.494251 0.691091 -0.115574
C63   C     C_R   0.056092 0.254120 0.082971 -0.112332
C64   C     C_R   0.952532 0.171791 0.993932 -0.121900
H1    H     H_    0.031448 0.895014 0.109227 0.110760
H2    H     H_    0.362384 0.910382 0.231715 0.193986
H3    H     H_    0.612057 0.424797 0.199973 0.169830
H4    H     H_    0.139310 0.143283 0.185246 0.149000
H5    H     H_    0.206541 0.127157 0.489682 0.151486
H6    H     H_    0.925730 0.835693 0.493456 0.182459
H7    H     H_    0.894261 0.864336 0.702325 0.207026
H8    H     H_    0.650569 0.219320 0.859721 0.155372
H9    H     H_    0.806751 0.153298 0.678562 0.139726
H10   H     H_    0.017207 0.370371 0.359627 0.115924
H11   H     H_    0.763727 0.577917 0.858182 0.140996
H12   H     H_    0.959438 0.112255 0.807435 0.119362
H13   H     H_    0.903687 0.235795 0.274460 0.130253
H14   H     H_    0.705273 0.297181 0.328545 0.146725
H15   H     H_    0.726471 0.616903 0.575991 0.127809
H16   H     H_    0.927375 0.565110 0.505643 0.151212
H17   H     H_    0.512048 0.485159 0.622921 0.142149
H18   H     H_    0.459127 0.619626 0.390822 0.143918
H19   H     H_    0.037585 0.487065 0.535242 0.162713
H20   H     H_    0.252523 0.796216 0.686741 0.179305
H21   H     H_    0.497428 0.348460 0.959033 0.144552
H22   H     H_    0.790690 0.968562 0.051949 0.208110
H23   H     H_    0.178696 0.457602 0.628971 0.119992
H24   H     H_    0.864595 0.029276 0.228962 0.151816
H25   H     H_    0.611218 0.393176 0.048669 0.132169
H26   H     H_    0.141144 0.858540 0.172890 0.141668
H27   H     H_    0.842789 0.735964 0.925180 0.151158
H28   H     H_    0.393714 0.540920 0.888416 0.127617
H29   H     H_    0.405370 0.999507 0.966121 0.332348
H30   H     H_    0.009806 0.121019 0.430723 0.326203
H31   H     H_    0.778990 0.849221 0.858626 0.370518
H32   H     H_    0.206427 0.398561 0.395796 0.324464
H33   H     H_    0.877715 0.595314 0.681419 0.306974
H34   H     H_    0.097079 0.272364 0.134152 0.099808
H35   H     H_    0.081531 0.902090 0.806189 0.314560
H36   H     H_    0.075532 0.677075 0.387322 0.302265
H37   H     H_    0.735313 0.697167 0.448298 0.300269
H38   H     H_    0.896292 0.114074 0.965245 0.134999
H39   H     H_    0.361145 0.641835 0.814962 0.124071
H40   H     H_    0.249560 0.378470 0.100409 0.125997
H41   H     H_    0.086876 0.301936 0.619597 0.111068
H42   H     H_    0.442259 0.935851 0.066140 0.206470
I1    I     I_    0.572174 0.160013 0.052019 -0.443153
I2    I     I_    0.499068 0.691232 0.016193 -0.494710
N1    N     N_R   0.037320 0.720000 0.995830 -0.048989
N2    N     N_R   0.824900 0.517970 0.936430 -0.049941
N3    N     N_R   0.003190 0.648180 0.211390 -0.070836
N4    N     N_R   0.774330 0.457010 0.995830 -0.037595
N5    N     N_R   0.053760 0.709130 0.151980 -0.080955
N6    N     N_R   0.853840 0.498830 0.211390 -0.076691
N7    N     N_R   0.974250 0.667320 0.936430 -0.058939
N8    N     N_R   0.225670 0.542990 0.004170 -0.051414
N9    N     N_R   0.946240 0.290870 0.848020 -0.043323
N10   N     N_R   0.146160 0.501170 0.788610 -0.044606
N11   N     N_R   0.025750 0.332680 0.063570 -0.048183
N12   N     N_R   0.962680 0.280000 0.004170 -0.048966
N13   N     N_R   0.209230 0.553860 0.848010 -0.042096
N14   N     N_R   0.175100 0.482030 0.063570 -0.055972
N15   N     N_R   0.996810 0.351820 0.788610 -0.043378
N16   N     N_R   0.790770 0.446140 0.151990 -0.071388
Ni1   Ni    Ni4+2 0.130310 0.630310 0.000000 0.221080
Ni2   Ni    Ni4+2 0.869690 0.369690 0.000000 0.224950
Ni3   Ni    Ni4+2 0.985660 0.509480 0.863750 0.222084
Ni4   Ni    Ni4+2 0.014340 0.490520 0.136250 0.272310
O1    O     O_3   0.332778 0.048490 0.018723 -0.745362
O2    O     O_3   0.033623 0.133632 0.366357 -0.779791
O3    O     O_3   0.725177 0.918892 0.901390 -0.747667
O4    O     O_3   0.261385 0.448655 0.419072 -0.745594
O5    O     O_3   0.907153 0.669640 0.713224 -0.795381
O6    O     O_3   0.026282 0.847983 0.787809 -0.770768
O7    O     O_3   0.030192 0.636176 0.347327 -0.759722
O8    O     O_3   0.806613 0.650211 0.388023 -0.769457

loop_
_geom_bond_atom_site_label_1
_geom_bond_atom_site_label_2
_ccdc_geom_bond_type
C3    H40   S    
C25   C31   A    
C56   H12   S    
C6    C45   A    
C27   C29   A    
C9    C64   A    
C41   C42   A    
C52   H26   S    
C19   C20   A    
H33   O5    S    
C3    C6    A    
C16   N2    A    
C39   C41   A    
C5    H41   S    
C52   N5    A    
C64   H38   S    
C26   C27   A    
C29   C30   A    
N8    N14   A    
C18   C24   A    
C36   C37   A    
C63   H34   S    
C42   C53   S    
C14   O2    S    
C30   C31   A    
N12   Ni2   S    
C33   H14   S    
C60   H27   S    
N5    Ni1   S    
C10   C17   A    
C23   C40   A    
C16   H11   S    
C59   O8    S    
N7    Ni3   S    
C57   H22   S    
C4    N16   A    
C18   C19   A    
C56   N9    A    
C45   H28   S    
C1    N1    A    
C32   H13   S    
C12   C59   A    
C35   C36   A    
C5    N15   A    
C1    H1    S    
C25   H7    S    
C32   C38   A    
C40   H25   S    
C4    C12   A    
N9    Ni2   S    
N4    Ni2   S    
C3    N14   A    
N2    Ni3   S    
C47   C53   A    
C29   H8    S    
N6    N16   A    
N11   Ni4   S    
C18   H5    S    
C28   C34   A    
C13   C14   A    
H31   O3    S    
C7    C56   A    
C6    C54   S    
H29   O1    S    
C47   O4    S    
H37   O8    S    
C44   C46   A    
C28   N3    A    
C22   C34   S    
C37   H16   S    
C17   O1    S    
C8    C41   S    
C39   H17   S    
C40   N4    A    
C50   O6    S    
C5    C7    A    
C30   H9    S    
C25   C26   A    
H35   O6    S    
C58   H24   S    
C60   C61   A    
C51   C53   A    
N10   N13   A    
C43   C44   A    
N13   Ni1   S    
C37   C38   A    
C4    H3    S    
N6    Ni4   S    
N15   Ni3   S    
C47   C48   A    
C27   I1    S    
C50   C51   A    
N3    N5    A    
H30   O2    S    
C57   C61   S    
C39   C46   A    
N1    Ni1   S    
C48   C49   A    
C49   C50   A    
C16   C23   A    
C7    C19   S    
N8    Ni1   S    
C22   C24   A    
C10   H42   S    
C42   C43   A    
N16   Ni2   S    
C38   H10   S    
C2    N13   A    
C15   C17   A    
C49   O5    S    
C54   C55   D    
C9    C63   A    
C2    C8    A    
C28   O7    S    
C36   H15   S    
C1    C61   A    
C54   H21   S    
N11   N12   A    
H36   O7    S    
C23   C55   S    
C62   H23   S    
C55   I2    S    
C34   C52   A    
C64   N12   A    
C48   H19   S    
H32   O4    S    
C21   H6    S    
C32   C33   A    
N9    N15   A    
C12   C44   S    
C11   C13   A    
C45   N8    A    
C57   C58   D    
C2    H39   S    
C59   N6    A    
C15   H4    S    
C33   C35   A    
N14   Ni4   S    
N2    N4    A    
C62   N10   A    
C10   C11   A    
N1    N7    A    
C20   C21   A    
C13   C24   S    
C63   N11   A    
N10   Ni3   S    
N3    Ni4   S    
C43   H18   S    
C14   C15   A    
C60   N7    A    
C21   C22   A    
C35   C46   S    
C51   H20   S    
C20   C31   S    
C26   O3    S    
C8    C62   A    
C11   H2    S    
