data_mof_unit_43420.cif
_audit_creation_date              2012-12-10T18:15:10-0500
_audit_creation_method            fapswitch 2.2
_symmetry_space_group_name_H-M    P1
_symmetry_Int_Tables_number       1
_space_group_crystal_system       triclinic
_cell_length_a                    12.772211
_cell_length_b                    13.094195
_cell_length_c                    23.215411
_cell_angle_alpha                 92.870392
_cell_angle_beta                  102.86259
_cell_angle_gamma                 82.354391
_cell_volume                      3750.66954195

loop_
_atom_site_label
_atom_site_type_symbol
_atom_type_description
_atom_site_fract_x
_atom_site_fract_y
_atom_site_fract_z
_atom_type_partial_charge
C1    C     C_R   0.439858 0.689892 0.486015 0.866981
C2    C     C_R   0.540027 0.733690 0.043105 0.174377
C3    C     C_R   0.526671 0.743652 0.981228 0.181314
C4    C     C_R   0.491056 0.661680 0.942479 -0.081031
C5    C     C_R   0.447657 0.581681 0.964354 -0.061244
C6    C     C_R   0.403962 0.503760 0.925520 0.006503
C7    C     C_R   0.357542 0.426243 0.946598 -0.164420
C8    C     C_R   0.358248 0.422688 0.006152 -0.162699
C9    C     C_R   0.501093 0.653628 0.882824 0.520483
C10   C     C_R   0.410450 0.503225 0.866459 0.501436
C11   C     C_R   0.562721 0.491669 0.776573 -0.096050
C12   C     C_R   0.500783 0.502706 0.610389 0.879905
C13   C     C_R   0.573045 0.470163 0.718356 0.158033
C14   C     C_R   0.497367 0.522539 0.672188 -0.038238
C15   C     C_R   0.415662 0.597171 0.684875 -0.280276
C16   C     C_R   0.406238 0.617671 0.742811 -0.103963
C17   C     C_R   0.478789 0.563967 0.788471 0.282237
C18   C     C_R   0.375002 0.552255 0.229313 -0.092113
C19   C     C_R   0.384994 0.534747 0.288877 -0.226578
C20   C     C_R   0.488007 0.514147 0.326096 -0.038169
C21   C     C_R   0.580786 0.512272 0.303011 -0.233309
C22   C     C_R   0.570626 0.528940 0.243239 -0.109571
C23   C     C_R   0.560567 0.308664 0.507903 0.870090
C24   C     C_R   0.467709 0.548763 0.206298 0.321345
C25   C     C_R   0.726552 0.045063 0.529309 -0.176129
C26   C     C_R   0.596195 0.197761 0.508362 -0.076855
C27   C     C_R   0.292853 0.838378 0.449437 0.192923
C28   C     C_R   0.265979 0.944575 0.442517 -0.139342
C29   C     C_R   0.345897 0.009125 0.451483 -0.210046
C30   C     C_R   0.456354 0.968375 0.461081 0.061034
C31   C     C_R   0.483799 0.861023 0.459151 -0.020458
C32   C     C_R   0.541255 0.030290 0.477240 0.044483
C33   C     C_R   0.649304 0.984289 0.497026 0.053421
C34   C     C_R   0.497561 0.501569 0.389286 0.831428
C35   C     C_R   0.676501 0.880072 0.481980 0.156996
C36   C     C_R   0.591486 0.823458 0.454600 0.186631
C37   C     C_R   0.520928 0.136683 0.476735 -0.272328
C38   C     C_R   0.698086 0.150635 0.539244 0.183566
C39   C     C_R   0.404208 0.796220 0.463228 -0.140686
C40   C     C_R   0.072279 0.418106 0.388827 0.127589
C41   C     C_R   0.813161 0.595996 0.585393 0.338937
C42   C     C_R   0.920621 0.572014 0.614249 -0.251223
C43   C     C_R   0.993514 0.521393 0.583561 -0.231876
C44   C     C_R   0.963333 0.507591 0.522003 0.022865
C45   C     C_R   0.412300 0.489074 0.106079 0.495679
C46   C     C_R   0.850833 0.509132 0.497867 0.139846
C47   C     C_R   0.039537 0.482523 0.485024 -0.050330
C48   C     C_R   0.999734 0.456206 0.424869 0.041532
C49   C     C_R   0.887619 0.459670 0.403068 -0.270083
C50   C     C_R   0.820145 0.459296 0.442311 0.180520
C51   C     C_R   0.152298 0.490482 0.503384 0.237015
C52   C     C_R   0.183764 0.402238 0.414964 0.270578
C53   C     C_R   0.494872 0.644090 0.125626 0.516484
C54   C     C_R   0.495332 0.653217 0.065042 -0.077758
C55   C     C_R   0.448218 0.578318 0.024997 -0.061044
C56   C     C_R   0.405028 0.496800 0.045734 0.010897
H1    H     H_    0.445445 0.173104 0.451459 0.156776
H2    H     H_    0.617330 0.450077 0.812805 0.134409
H3    H     H_    0.358830 0.639470 0.649776 0.152829
N1    N     N_R   0.457423 0.561436 0.144441 -0.355164
N2    N     N_R   0.461368 0.575330 0.847071 -0.353098
N3    N     N_R   0.222200 0.444670 0.469780 -0.121561
N4    N     N_R   0.776960 0.554790 0.529910 -0.135890
O1    O     O_R   0.366740 0.627150 0.485570 -0.622285
O2    O     O_2   0.528558 0.717562 0.165649 -0.568607
O3    O     O_2   0.554561 0.719526 0.861126 -0.561288
O4    O     O_2   0.368704 0.429654 0.828702 -0.560772
O5    O     O_R   0.544830 0.662520 0.504870 -0.614830
O6    O     O_R   0.410930 0.482340 0.574190 -0.607491
O7    O     O_R   0.589010 0.517710 0.593490 -0.607816
O8    O     O_R   0.455170 0.337480 0.495130 -0.621302
O9    O     O_R   0.633260 0.372850 0.514430 -0.606066
O10   O     O_R   0.410990 0.482290 0.406510 -0.616166
O11   O     O_R   0.589070 0.517660 0.425810 -0.627039
O12   O     O_2   0.376160 0.408750 0.126637 -0.566055
Zn1   Zn    Zn3+2 0.381090 0.476380 0.487110 0.925474
Zn2   Zn    Zn3+2 0.618910 0.523620 0.512890 0.921791
C57   C     C_3   0.609313 0.803880 0.084732 -0.780211
H4    H     H_    0.669551 0.757523 0.118588 0.257477
H5    H     H_    0.659095 0.844959 0.062386 0.217553
H6    H     H_    0.557493 0.861962 0.105932 0.268684
H7    H     H_    0.312122 0.539425 0.305898 0.159888
H8    H     H_    0.660793 0.497854 0.330996 0.162692
H9    H     H_    0.642539 0.525784 0.225454 0.136272
C58   C     C_3   0.772175 0.206677 0.586450 -0.889334
H10   H     H_    0.727461 0.238477 0.620313 0.241897
H11   H     H_    0.843308 0.154014 0.609063 0.233278
H12   H     H_    0.803459 0.270128 0.568851 0.251592
C59   C     C_3   0.793980 0.832949 0.491877 -0.910589
H13   H     H_    0.805158 0.751996 0.476155 0.247066
H14   H     H_    0.838870 0.878253 0.468610 0.240716
H15   H     H_    0.831074 0.833007 0.539894 0.234810
H16   H     H_    0.807331 0.010236 0.549250 0.152112
C60   C     C_3   0.200533 0.774486 0.441891 -0.863258
H17   H     H_    0.121242 0.820015 0.423602 0.221595
H18   H     H_    0.210926 0.709152 0.410431 0.256249
H19   H     H_    0.195811 0.746533 0.485314 0.245022
H20   H     H_    0.318163 0.090528 0.451945 0.144483
H21   H     H_    0.182124 0.978913 0.433649 0.143042
C61   C     C_3   0.541009 0.845204 0.956977 -0.782760
H22   H     H_    0.478900 0.864013 0.915940 0.258974
H23   H     H_    0.527233 0.910870 0.987657 0.219529
H24   H     H_    0.623551 0.841853 0.948436 0.264065
C62   C     C_3   0.610981 0.739588 0.409895 -0.781706
H25   H     H_    0.647268 0.770579 0.376243 0.229362
H26   H     H_    0.667556 0.674295 0.431265 0.264703
H27   H     H_    0.534156 0.712033 0.386160 0.223780
C63   C     C_3   0.258821 0.339018 0.381379 -0.827595
H28   H     H_    0.339629 0.317975 0.408064 0.270311
H29   H     H_    0.227331 0.264862 0.366329 0.210386
H30   H     H_    0.266200 0.381272 0.342551 0.235325
H31   H     H_    0.855738 0.434559 0.358247 0.168895
C64   C     C_3   0.030000 0.390381 0.324019 -0.922660
H32   H     H_    0.983464 0.323662 0.320609 0.242501
H33   H     H_    0.977064 0.457548 0.301553 0.241061
H34   H     H_    0.093381 0.370213 0.298377 0.253969
C65   C     C_3   0.193260 0.562802 0.553512 -0.851157
H35   H     H_    0.254526 0.605386 0.543994 0.276395
H36   H     H_    0.129628 0.625581 0.560421 0.211355
H37   H     H_    0.228674 0.519575 0.594588 0.242658
C66   C     C_3   0.741218 0.661837 0.619337 -0.819300
H38   H     H_    0.733289 0.619871 0.658243 0.236400
H39   H     H_    0.778165 0.732954 0.635530 0.202458
H40   H     H_    0.660862 0.687550 0.592614 0.279184
H41   H     H_    0.072959 0.495022 0.608786 0.180161
H42   H     H_    0.947847 0.592375 0.660505 0.165344
C67   C     C_3   0.776211 0.356632 0.438513 -0.777710
H43   H     H_    0.689609 0.360568 0.417480 0.247402
H44   H     H_    0.816950 0.298073 0.411551 0.200344
H45   H     H_    0.795339 0.322293 0.482321 0.240110
H46   H     H_    0.322714 0.366559 0.917385 0.190896
H47   H     H_    0.323742 0.360410 0.021188 0.191291
C68   C     C_3   0.659417 0.387493 0.706146 -0.914228
H48   H     H_    0.709542 0.352563 0.747515 0.244761
H49   H     H_    0.620186 0.325707 0.678513 0.234397
H50   H     H_    0.714018 0.420019 0.682811 0.259331
H51   H     H_    0.341115 0.673255 0.752188 0.141457
H52   H     H_    0.295316 0.568195 0.200902 0.144122

loop_
_geom_bond_atom_site_label_1
_geom_bond_atom_site_label_2
_ccdc_geom_bond_type
C55   C56   A    
C45   N1    A    
C25   H16   S    
C41   C42   A    
C19   C20   A    
C12   O6    A    
N3    Zn1   S    
C8    C56   A    
C62   H26   S    
C7    C8    A    
C10   O4    S    
O9    Zn2   S    
C29   H20   S    
C18   C24   A    
C28   C29   A    
C65   H36   S    
C58   H10   S    
C30   C31   A    
C57   H5    S    
C15   C16   A    
C1    O5    A    
C63   H28   S    
O6    Zn1   S    
C18   C19   A    
C23   C26   S    
C41   C66   S    
C18   H52   S    
C9    O3    S    
C66   H40   S    
C17   N2    S    
C3    C61   S    
C21   H8    S    
C45   C56   A    
C27   C39   A    
C16   C17   A    
O11   Zn2   S    
C8    H47   S    
C68   H50   S    
C59   H14   S    
C19   H7    S    
C53   O2    S    
C7    H46   S    
C44   C47   A    
C64   H34   S    
C20   C34   S    
C21   C22   A    
O7    Zn2   S    
C43   H41   S    
C51   N3    A    
C15   H3    S    
C62   H25   S    
C53   N1    A    
C44   C46   A    
C58   H11   S    
C16   H51   S    
C38   C58   S    
C23   O8    A    
C2    C54   A    
C65   H37   S    
C1    C39   S    
C57   H4    S    
C26   C38   A    
C47   C51   A    
C60   H19   S    
C40   C52   A    
C40   C64   S    
C35   C36   A    
C22   H9    S    
C43   C44   A    
C67   H44   S    
C29   C30   A    
C2    C57   S    
C25   C38   A    
C47   C48   A    
C24   N1    S    
C61   H23   S    
O1    Zn1   S    
C32   C37   A    
C59   H15   S    
C60   H18   S    
C66   H38   S    
C34   O11   A    
C49   H31   S    
C35   C59   S    
C28   H21   S    
C48   C49   A    
C12   C14   S    
C68   H48   S    
C51   C65   S    
O10   Zn1   S    
C9    N2    A    
C10   N2    A    
C42   C43   A    
C41   N4    A    
C67   H43   S    
C11   H2    S    
C1    O1    A    
O8    Zn1   S    
C68   H49   S    
C64   H32   S    
N4    Zn2   S    
C58   H12   S    
O5    Zn2   S    
C40   C48   A    
C12   O7    A    
C54   C55   A    
C11   C17   A    
C31   C36   A    
C13   C68   S    
C23   O9    A    
C5    C55   A    
C4    C5    A    
C6    C10   A    
C26   C37   A    
C53   C54   A    
C6    C7    A    
C46   C50   A    
C63   H30   S    
C36   C62   S    
C46   N4    A    
C45   O12   S    
C32   C33   A    
C2    C3    A    
C59   H13   S    
C67   H45   S    
C52   N3    A    
C65   H35   S    
C30   C32   A    
C11   C13   A    
C57   H6    S    
C5    C6    A    
C61   H22   S    
C33   C35   A    
C63   H29   S    
C22   C24   A    
C61   H24   S    
C60   H17   S    
C66   H39   S    
C42   H42   S    
C34   O10   A    
C20   C21   A    
C52   C63   S    
C49   C50   A    
C27   C28   A    
C31   C39   A    
C14   C15   A    
C27   C60   S    
C50   C67   S    
C4    C9    A    
C13   C14   A    
C62   H27   S    
C37   H1    S    
C3    C4    A    
C25   C33   A    
C64   H33   S    
