data_mof_unit_65019.cif
_audit_creation_date              2012-12-10T16:55:49-0500
_audit_creation_method            fapswitch 2.2
_symmetry_space_group_name_H-M    P1
_symmetry_Int_Tables_number       1
_space_group_crystal_system       triclinic
_cell_length_a                    14.343082
_cell_length_b                    10.94795
_cell_length_c                    9.717731
_cell_angle_alpha                 90.238076
_cell_angle_beta                  89.588117
_cell_angle_gamma                 90.55935
_cell_volume                      1525.82461879

loop_
_atom_site_label
_atom_site_type_symbol
_atom_type_description
_atom_site_fract_x
_atom_site_fract_y
_atom_site_fract_z
_atom_type_partial_charge
C1    C     C_R   0.497572 0.265197 0.499124 0.832547
C2    C     C_1   0.771223 0.499892 0.498891 -0.174927
C3    C     C_2   0.514686 0.932454 0.389336 -0.201326
C4    C     C_2   0.516293 0.865596 0.503816 -0.282056
C5    C     C_2   0.526540 0.066108 0.396713 0.400368
C6    C     C_2   0.481546 0.133709 0.493817 -0.200464
C7    C     C_2   0.462946 0.413328 0.925328 0.073084
C8    C     C_2   0.479777 0.405225 0.077484 -0.120937
C9    C     C_R   0.331135 0.499931 0.500433 0.832484
C10   C     C_R   0.504016 0.734393 0.500477 0.865616
C11   C     C_R   0.668873 0.499991 0.499564 0.809494
C12   C     C_1   0.228795 0.499788 0.501144 -0.134556
C13   C     C_1   0.143376 0.499713 0.501020 0.021842
C14   C     C_1   0.042721 0.499697 0.500392 0.024890
C15   C     C_1   0.957303 0.499731 0.499733 0.021252
C16   C     C_1   0.856646 0.499809 0.499069 0.005207
Cu1   Cu    Cu3+1 0.500020 0.500020 0.638630 0.983108
Cu2   Cu    Cu3+1 0.499980 0.499980 0.361370 0.978093
H1    H     H_    0.509781 0.889480 0.288631 0.159327
H2    H     H_    0.527586 0.908604 0.603414 0.141010
H3    H     H_    0.544675 0.559077 0.892855 0.183702
H4    H     H_    0.466633 0.318380 0.127627 0.176941
H5    H     H_    0.502792 0.582368 0.105616 0.197349
N1    N     N_2   0.499070 0.498660 0.846910 -0.280621
N2    N     N_2   0.499040 0.498630 0.153040 -0.272096
O1    O     O_R   0.500010 0.321960 0.617040 -0.593536
O2    O     O_R   0.499990 0.321920 0.382900 -0.520779
O3    O     O_R   0.376070 0.500020 0.617100 -0.495126
O4    O     O_R   0.376040 0.499980 0.382950 -0.562930
O5    O     O_R   0.500010 0.678080 0.617100 -0.578270
O6    O     O_R   0.499990 0.678040 0.382960 -0.582289
O7    O     O_R   0.623960 0.500020 0.617050 -0.566396
O8    O     O_R   0.623930 0.499980 0.382900 -0.542444
O9    O     O_3   0.587648 0.122867 0.305749 -0.728128
H6    H     H_    0.615238 0.059873 0.244584 0.319307
C17   C     C_2   0.404015 0.086132 0.581766 0.288214
H7    H     H_    0.391691 0.125622 0.682236 0.111936
O10   O     O_2   0.350185 0.007478 0.539927 -0.511179
C18   C     C_2   0.402675 0.315111 0.870544 0.448170
H8    H     H_    0.412152 0.222239 0.906139 0.000085
O11   O     O_2   0.337083 0.337269 0.796058 -0.525968

loop_
_geom_bond_atom_site_label_1
_geom_bond_atom_site_label_2
_ccdc_geom_bond_type
C8    H4    S    
C3    H1    S    
C8    N2    D    
C2    C16   T    
C10   O5    A    
C9    O4    A    
Cu2   O2    S    
C5    O9    S    
C17   O10   D    
Cu1   Cu2   S    
C7    C8    S    
C18   O11   D    
Cu2   O4    S    
C13   C14   S    
Cu1   O5    S    
C5    C6    D    
Cu2   N2    S    
Cu1   O1    S    
C17   H7    S    
C9    C12   S    
C6    C17   S    
C11   O7    A    
H5    N2    S    
C1    O1    A    
Cu2   O8    S    
Cu1   N1    S    
C2    C11   S    
C4    C10   S    
C7    N1    D    
C4    H2    S    
C11   O8    A    
C12   C13   T    
O9    H6    S    
H3    N1    S    
C18   H8    S    
C1    O2    A    
Cu1   O7    S    
C7    C18   S    
C14   C15   T    
Cu2   O6    S    
C1    C6    S    
Cu1   O3    S    
C10   O6    A    
C3    C4    D    
C15   C16   S    
C9    O3    A    
C3    C5    S    
