data_mof_unit_8589.cif
_audit_creation_date              2012-12-11T16:43:10-0500
_audit_creation_method            fapswitch 2.2
_symmetry_space_group_name_H-M    P1
_symmetry_Int_Tables_number       1
_space_group_crystal_system       triclinic
_cell_length_a                    6.927247
_cell_length_b                    23.271248
_cell_length_c                    25.834303
_cell_angle_alpha                 104.83311
_cell_angle_beta                  90.27145
_cell_angle_gamma                 90.443392
_cell_volume                      4025.63469833

loop_
_atom_site_label
_atom_site_type_symbol
_atom_type_description
_atom_site_fract_x
_atom_site_fract_y
_atom_site_fract_z
_atom_type_partial_charge
O1    O     O_R   0.505750 0.453350 0.547660 -0.540470
O2    O     O_R   0.170990 0.432220 0.437590 -0.540755
O3    O     O_R   0.005600 0.546650 0.452340 -0.540336
C1    C     C_R   0.339809 0.415150 0.417623 0.711701
O4    O     O_R   0.175720 0.446240 0.546340 -0.542369
O5    O     O_R   0.010370 0.560770 0.561860 -0.538604
C2    C     C_R   0.344780 0.434168 0.562840 0.689707
O6    O     O_R   0.500990 0.439230 0.438140 -0.538738
O7    O     O_3   0.340820 0.537560 0.504970 -0.368773
V1    V     V_3+5 0.064050 0.493030 0.499080 1.397073
O8    O     O_R   0.680940 0.567780 0.562410 -0.541968
C3    C     C_R   0.850764 0.584547 0.582478 0.712876
O9    O     O_R   0.676210 0.553760 0.453660 -0.541966
C4    C     C_R   0.845144 0.565902 0.437219 0.691062
V2    V     V_3+5 0.564640 0.506970 0.500920 1.397245
O10   O     O_3   0.837740 0.462440 0.495030 -0.368993
C5    C     C_R   0.772761 0.876136 0.115322 -0.160883
H1    H     H_    0.640039 0.888423 0.098786 0.121108
C6    C     C_R   0.761328 0.840503 0.151424 -0.143018
H2    H     H_    0.620431 0.825868 0.161102 0.100007
C7    C     C_R   0.929394 0.823262 0.174072 0.094552
C8    C     C_R   0.109440 0.842368 0.159269 -0.141147
H3    H     H_    0.241763 0.830739 0.176450 0.099160
C9    C     C_R   0.120969 0.877855 0.122973 -0.160210
H4    H     H_    0.261943 0.892063 0.112893 0.117714
C10   C     C_R   0.952689 0.895380 0.100621 -0.055202
C11   C     C_R   0.053645 0.741287 0.212703 -0.150633
H5    H     H_    0.168845 0.732992 0.183629 0.110917
C12   C     C_R   0.041410 0.706041 0.249148 -0.151517
H6    H     H_    0.147612 0.671647 0.247051 0.109646
C13   C     C_R   0.891893 0.714205 0.286978 0.080838
C14   C     C_R   0.754891 0.758612 0.287277 -0.150627
H7    H     H_    0.639694 0.766907 0.316352 0.110910
C15   C     C_R   0.767127 0.793860 0.250831 -0.151513
H8    H     H_    0.660930 0.828255 0.252929 0.109633
C16   C     C_R   0.916663 0.785701 0.213007 0.080839
C17   C     C_R   0.699254 0.657547 0.340755 -0.141141
H9    H     H_    0.566889 0.669154 0.323580 0.099158
C18   C     C_R   0.687837 0.622069 0.377063 -0.160177
H10   H     H_    0.546905 0.607844 0.387158 0.117755
C19   C     C_R   0.856182 0.604570 0.399406 -0.055299
C20   C     C_R   0.036055 0.623835 0.384688 -0.160860
H11   H     H_    0.168825 0.611572 0.401216 0.121175
C21   C     C_R   0.047375 0.659456 0.348576 -0.143013
H12   H     H_    0.188235 0.674106 0.338885 0.100011
C22   C     C_R   0.879251 0.676665 0.325931 0.094551
C23   C     C_R   0.713017 0.645024 0.668867 -0.222270
C24   C     C_R   0.864329 0.634267 0.631547 -0.084105
C25   C     C_R   0.031301 0.670411 0.641874 -0.217550
C26   C     C_R   0.047315 0.717009 0.688591 0.088844
C27   C     C_R   0.896389 0.726870 0.726239 0.053203
C28   C     C_R   0.729114 0.690537 0.716452 0.091348
C29   C     C_R   0.211773 0.753916 0.698388 -0.190604
C30   C     C_R   0.227878 0.799768 0.745403 -0.181414
C31   C     C_R   0.080208 0.809408 0.783586 0.091346
C32   C     C_R   0.912931 0.773076 0.773799 0.053197
C33   C     C_R   0.762003 0.782938 0.811446 0.088851
C34   C     C_R   0.597546 0.746031 0.801649 -0.190605
C35   C     C_R   0.581443 0.700178 0.754635 -0.181420
C36   C     C_R   0.096307 0.854920 0.831171 -0.222274
C37   C     C_R   0.944991 0.865679 0.868489 -0.084061
C38   C     C_R   0.778015 0.829537 0.858162 -0.217549
H13   H     H_    0.584552 0.617129 0.661425 0.124069
H14   H     H_    0.148235 0.662631 0.613231 0.128290
H15   H     H_    0.328784 0.747077 0.669825 0.134503
H16   H     H_    0.356737 0.827449 0.752070 0.136254
H17   H     H_    0.224774 0.882814 0.838614 0.124063
H18   H     H_    0.661080 0.837320 0.886805 0.128243
H19   H     H_    0.480534 0.752870 0.830211 0.134499
H20   H     H_    0.452585 0.672496 0.747968 0.136250
C39   C     C_R   0.288354 0.170345 0.140103 -0.213450
C40   C     C_R   0.456247 0.135342 0.131081 -0.085633
C41   C     C_R   0.604816 0.147262 0.169829 -0.224137
C42   C     C_R   0.584237 0.192423 0.217571 0.093593
C43   C     C_R   0.415465 0.227256 0.226066 0.052602
C44   C     C_R   0.267863 0.216442 0.186930 0.087981
C45   C     C_R   0.728487 0.203060 0.257306 -0.180311
C46   C     C_R   0.707673 0.248357 0.304464 -0.194070
C47   C     C_R   0.541526 0.283670 0.312993 0.088001
C48   C     C_R   0.393928 0.272858 0.273858 0.052600
C49   C     C_R   0.225151 0.307690 0.282355 0.093598
C50   C     C_R   0.080903 0.297054 0.242619 -0.180296
C51   C     C_R   0.101716 0.251756 0.195460 -0.194054
C52   C     C_R   0.521024 0.329760 0.359824 -0.213476
C53   C     C_R   0.353122 0.364757 0.368852 -0.085657
C54   C     C_R   0.204559 0.352844 0.330103 -0.224111
H21   H     H_    0.173236 0.161798 0.110458 0.128789
H22   H     H_    0.733864 0.120358 0.163510 0.123948
H23   H     H_    0.858393 0.176598 0.251762 0.137292
H24   H     H_    0.822401 0.256001 0.334168 0.134161
H25   H     H_    0.636133 0.338300 0.389471 0.128728
H26   H     H_    0.075502 0.379743 0.336428 0.123937
H27   H     H_    0.950993 0.323514 0.248164 0.137305
H28   H     H_    0.986983 0.244110 0.165757 0.134173
C55   C     C_R   0.275154 0.115462 0.877674 -0.160123
H29   H     H_    0.143165 0.096198 0.888366 0.120974
C56   C     C_R   0.263847 0.151017 0.841537 -0.143775
H30   H     H_    0.123984 0.157496 0.825129 0.100563
C57   C     C_R   0.430948 0.176778 0.825937 0.094739
C58   C     C_R   0.609939 0.165890 0.847542 -0.141146
H31   H     H_    0.741363 0.185628 0.837083 0.099322
C59   C     C_R   0.621386 0.130128 0.883627 -0.161968
H32   H     H_    0.761539 0.122813 0.899428 0.119502
C60   C     C_R   0.454035 0.104427 0.899201 -0.054927
C61   C     C_R   0.561679 0.212147 0.748318 -0.150978
H33   H     H_    0.682688 0.182366 0.745530 0.110006
C62   C     C_R   0.548728 0.247155 0.711698 -0.151297
H34   H     H_    0.660348 0.243330 0.681845 0.108462
C63   C     C_R   0.391965 0.285602 0.712871 0.081624
C64   C     C_R   0.248482 0.287987 0.751715 -0.150987
H35   H     H_    0.127470 0.317766 0.754503 0.110016
C65   C     C_R   0.261433 0.252980 0.788335 -0.151301
H36   H     H_    0.149808 0.256804 0.818187 0.108478
C66   C     C_R   0.418176 0.214525 0.787157 0.081632
C67   C     C_R   0.200063 0.334178 0.652475 -0.141142
H37   H     H_    0.068687 0.314433 0.662952 0.099316
C68   C     C_R   0.188497 0.369920 0.616377 -0.161951
H38   H     H_    0.048305 0.377213 0.600587 0.119479
C69   C     C_R   0.355775 0.395634 0.600777 -0.055123
C70   C     C_R   0.534712 0.384626 0.622289 -0.160200
H39   H     H_    0.666646 0.403900 0.611575 0.120876
C71   C     C_R   0.546139 0.349088 0.658440 -0.143747
H40   H     H_    0.686037 0.342629 0.674837 0.100556
C72   C     C_R   0.379103 0.323321 0.674070 0.094741
O11   O     O_R   0.308350 0.060850 0.061810 -0.538795
O12   O     O_R   0.633860 0.053770 0.953650 -0.542288
O13   O     O_R   0.798960 0.939210 0.938150 -0.538610
C73   C     C_R   0.464866 0.065881 0.937132 0.689978
O14   O     O_R   0.638360 0.067800 0.062400 -0.540758
O15   O     O_R   0.803500 0.953330 0.047670 -0.540365
C74   C     C_R   0.469537 0.084919 0.082331 0.711713
O16   O     O_R   0.303810 0.046730 0.952290 -0.540701
O17   O     O_3   0.468430 0.962490 0.995010 -0.368816
V3    V     V_3+5 0.745300 0.006960 0.000930 1.397142
O18   O     O_R   0.132880 0.946160 0.046390 -0.542234
C75   C     C_R   0.963880 0.934050 0.062811 0.690794
O19   O     O_R   0.128380 0.932130 0.937650 -0.542030
C76   C     C_R   0.958560 0.915401 0.917556 0.712843
V4    V     V_3+5 0.244670 0.992930 0.999140 1.397375
O20   O     O_3   0.971670 0.037510 0.005000 -0.368920

loop_
_geom_bond_atom_site_label_1
_geom_bond_atom_site_label_2
_ccdc_geom_bond_type
C31   C32   A    
C11   C12   A    
C19   C20   A    
C61   H33   S    
C55   H29   S    
O13   V3    S    
C1    O6    A    
C57   C66   S    
C65   C66   A    
C49   C50   A    
O18   C75   A    
C18   C19   A    
C7    C16   S    
C45   C46   A    
C46   H24   S    
O16   V4    S    
O18   V4    S    
C61   C62   A    
C45   H23   S    
C12   H6    S    
C5    C10   A    
C6    C7    A    
C9    C10   A    
C27   C32   A    
C68   C69   A    
C23   H13   S    
C47   C52   A    
C37   C76   S    
V2    O10   S    
C32   C33   A    
C15   H8    S    
C41   C42   A    
C64   H35   S    
C59   H32   S    
O8    V2    S    
C6    H2    S    
C36   H17   S    
C70   C71   A    
C67   C68   A    
C13   C22   S    
C62   H34   S    
O1    V2    S    
C52   H25   S    
O9    C4    A    
C29   H15   S    
C43   C48   A    
C49   C54   A    
C3    C24   S    
C25   H14   S    
C31   C36   A    
C62   C63   A    
O15   V3    S    
C20   C21   A    
C73   O16   A    
C44   C51   A    
C65   H36   S    
C56   C57   A    
C21   C22   A    
C56   H30   S    
C71   H40   S    
C26   C29   A    
C42   C43   A    
C27   C28   A    
C23   C24   A    
C2    C69   S    
C61   C66   A    
C33   C38   A    
C9    H4    S    
C18   H10   S    
O4    C2    A    
C46   C47   A    
C48   C49   A    
C1    C53   S    
C26   C27   A    
C34   C35   A    
C53   C54   A    
C51   H28   S    
C42   C45   A    
O11   V4    S    
C47   C48   A    
C36   C37   A    
C14   C15   A    
O2    C1    A    
C43   C44   A    
C41   H22   S    
C17   H9    S    
C28   C35   A    
O19   V4    S    
O11   C74   A    
C57   C58   A    
C60   C73   S    
C69   C70   A    
C58   C59   A    
C5    H1    S    
C34   H19   S    
C52   C53   A    
C59   C60   A    
O3    C4    A    
C4    C19   S    
C39   H21   S    
C24   C25   A    
O13   C76   A    
O17   V4    S    
O6    V2    S    
O9    V2    S    
O17   V3    S    
C8    C9    A    
C20   H11   S    
C71   C72   A    
O2    V1    S    
C70   H39   S    
C40   C74   S    
O7    V1    S    
C30   C31   A    
O12   C73   A    
C67   C72   A    
O1    C2    A    
C13   C14   A    
O15   C75   A    
C21   H12   S    
C40   C41   A    
O5    V1    S    
V4    O20   S    
C55   C56   A    
C63   C72   S    
C29   C30   A    
C23   C28   A    
C30   H16   S    
V3    O20   S    
C11   C16   A    
O19   C76   A    
C38   H18   S    
C14   H7    S    
O7    V2    S    
C39   C40   A    
C17   C18   A    
O3    V1    S    
V1    O10   S    
C68   H38   S    
C55   C60   A    
O5    C3    A    
C33   C34   A    
C39   C44   A    
C58   H31   S    
C5    C6    A    
C15   C16   A    
C37   C38   A    
C64   C65   A    
C10   C75   S    
C35   H20   S    
O14   V3    S    
O4    V1    S    
O12   V3    S    
C12   C13   A    
C25   C26   A    
C63   C64   A    
C11   H5    S    
C50   H27   S    
C8    H3    S    
C54   H26   S    
C50   C51   A    
C17   C22   A    
C7    C8    A    
C67   H37   S    
O8    C3    A    
O14   C74   A    
