data_mof_unit_26419.cif
_audit_creation_date              2012-12-11T14:28:16-0500
_audit_creation_method            fapswitch 2.2
_symmetry_space_group_name_H-M    P1
_symmetry_Int_Tables_number       1
_space_group_crystal_system       triclinic
_cell_length_a                    10.982173
_cell_length_b                    19.203762
_cell_length_c                    18.501265
_cell_angle_alpha                 90.11884
_cell_angle_beta                  89.75014
_cell_angle_gamma                 89.514574
_cell_volume                      3901.71313013

loop_
_atom_site_label
_atom_site_type_symbol
_atom_type_description
_atom_site_fract_x
_atom_site_fract_y
_atom_site_fract_z
_atom_type_partial_charge
C1    C     C_R   0.318835 0.968638 0.645461 0.525838
C2    C     C_R   0.318667 0.967678 0.855264 0.529230
C3    C     C_R   0.322110 0.029108 0.352185 0.528558
C4    C     C_R   0.322609 0.028786 0.148206 0.524276
C5    C     C_R   0.818835 0.468638 0.645461 0.525838
C6    C     C_R   0.818666 0.467689 0.855265 0.529183
C7    C     C_R   0.822110 0.529109 0.352185 0.528558
C8    C     C_R   0.822612 0.528788 0.148208 0.524280
C9    C     C_3   0.053043 0.682200 0.483612 -0.091955
C10   C     C_3   0.160018 0.729597 0.036243 -0.116228
C11   C     C_3   0.181403 0.282189 0.530281 -0.129359
C12   C     C_3   0.162493 0.218948 0.966587 -0.150674
C13   C     C_3   0.553043 0.182200 0.483612 -0.091955
C14   C     C_3   0.660011 0.229652 0.036240 -0.116297
C15   C     C_3   0.681403 0.782189 0.530281 -0.129359
C16   C     C_3   0.662503 0.718936 0.966584 -0.150717
C17   C     C_3   0.062895 0.743653 0.431336 0.058499
C18   C     C_3   0.028009 0.727351 0.062479 0.060395
C19   C     C_3   0.068754 0.256128 0.569866 0.055621
C20   C     C_3   0.056954 0.257877 0.932395 0.059497
C21   C     C_3   0.562895 0.243653 0.431336 0.058500
C22   C     C_3   0.528021 0.227365 0.062477 0.060381
C23   C     C_3   0.568754 0.756128 0.569866 0.055621
C24   C     C_3   0.556966 0.757868 0.932390 0.059529
C25   C     C_R   0.336269 0.990070 0.420383 -0.028354
C26   C     C_R   0.338320 0.987445 0.081452 -0.028890
C27   C     C_R   0.321572 0.998463 0.571714 -0.027631
C28   C     C_R   0.322287 0.994394 0.930286 -0.025958
C29   C     C_R   0.836269 0.490070 0.420383 -0.028354
C30   C     C_R   0.838336 0.487452 0.081458 -0.028874
C31   C     C_R   0.821572 0.498463 0.571714 -0.027631
C32   C     C_R   0.822286 0.494411 0.930290 -0.025987
C33   C     C_R   0.560649 0.999986 0.429070 -0.149980
C34   C     C_R   0.561777 0.996789 0.071833 -0.125759
C35   C     C_R   0.538958 0.025474 0.576744 -0.127771
C36   C     C_R   0.541649 0.017253 0.923740 -0.137699
C37   C     C_R   0.060649 0.499987 0.429071 -0.149980
C38   C     C_R   0.061790 0.496804 0.071829 -0.125744
C39   C     C_R   0.038958 0.525474 0.576745 -0.127772
C40   C     C_R   0.041648 0.517269 0.923738 -0.137703
C41   C     C_R   0.663873 0.019121 0.469011 0.271221
C42   C     C_R   0.665655 0.012471 0.030803 0.279061
C43   C     C_R   0.652816 0.031688 0.543345 0.276463
C44   C     C_R   0.656295 0.018962 0.955695 0.257790
C45   C     C_R   0.163873 0.519121 0.469011 0.271221
C46   C     C_R   0.165671 0.512451 0.030788 0.279049
C47   C     C_R   0.152816 0.531689 0.543346 0.276462
C48   C     C_R   0.156299 0.518933 0.955680 0.257845
C49   C     C_R   0.435155 0.006366 0.537202 -0.046180
C50   C     C_R   0.436613 0.001302 0.964039 -0.057046
C51   C     C_R   0.444249 0.997789 0.461595 -0.052147
C52   C     C_R   0.445858 0.994223 0.039717 -0.049684
C53   C     C_R   0.935155 0.506366 0.537203 -0.046180
C54   C     C_R   0.936614 0.501326 0.964041 -0.057048
C55   C     C_R   0.944249 0.497790 0.461595 -0.052147
C56   C     C_R   0.945867 0.494243 0.039719 -0.049653
C57   C     C_R   0.214431 0.992606 0.528656 -0.001512
C58   C     C_R   0.216054 0.986991 0.974260 0.001118
C59   C     C_R   0.227122 0.974725 0.455588 0.008885
C60   C     C_R   0.230260 0.970056 0.047381 0.001093
C61   C     C_R   0.714431 0.492606 0.528656 -0.001512
C62   C     C_R   0.716060 0.486996 0.974272 0.001094
C63   C     C_R   0.727122 0.474725 0.455588 0.008885
C64   C     C_R   0.730281 0.470052 0.047392 0.001099
C65   C     C_R   0.094383 0.999556 0.556483 -0.103367
C66   C     C_R   0.095550 0.993401 0.948091 -0.088936
C67   C     C_R   0.126113 0.949469 0.416758 -0.087058
C68   C     C_R   0.130428 0.946443 0.088298 -0.092780
C69   C     C_R   0.594383 0.499556 0.556483 -0.103367
C70   C     C_R   0.595551 0.493400 0.948107 -0.088985
C71   C     C_R   0.626114 0.449469 0.416758 -0.087058
C72   C     C_R   0.630472 0.446418 0.088313 -0.092778
C73   C     C_R   0.994698 0.977070 0.516638 -0.080132
C74   C     C_R   0.997389 0.972926 0.990427 -0.081019
C75   C     C_R   0.010501 0.951882 0.446842 -0.093527
C76   C     C_R   0.014216 0.952525 0.061409 -0.101929
C77   C     C_R   0.494698 0.477070 0.516638 -0.080132
C78   C     C_R   0.497409 0.472903 0.990447 -0.080991
C79   C     C_R   0.510501 0.451882 0.446842 -0.093527
C80   C     C_R   0.514254 0.452476 0.061425 -0.101926
C81   C     C_R   0.133619 0.757632 0.643955 0.540815
C82   C     C_R   0.135660 0.758564 0.857007 0.543036
C83   C     C_R   0.133041 0.242315 0.355982 0.540246
C84   C     C_R   0.130555 0.242731 0.145018 0.536890
C85   C     C_R   0.633619 0.257632 0.643955 0.540809
C86   C     C_R   0.635645 0.258557 0.857000 0.543023
C87   C     C_R   0.633041 0.742315 0.355982 0.540248
C88   C     C_R   0.630558 0.742730 0.145016 0.536889
C89   C     C_R   0.543047 0.769270 0.645158 0.540486
C90   C     C_R   0.538885 0.770465 0.856326 0.545364
C91   C     C_R   0.540051 0.229934 0.355969 0.553774
C92   C     C_R   0.497806 0.212705 0.137235 0.568777
C93   C     C_R   0.043047 0.269269 0.645158 0.540487
C94   C     C_R   0.038879 0.270468 0.856329 0.545364
C95   C     C_R   0.040051 0.729934 0.355969 0.553779
C96   C     C_R   0.997787 0.712697 0.137236 0.568780
C97   C     C_3   0.182722 0.766407 0.463980 -0.158857
C98   C     C_3   0.997124 0.793594 0.020439 -0.109518
C99   C     C_3   0.069287 0.187475 0.527978 -0.105879
C100  C     C_3   0.964833 0.224725 0.984500 -0.108803
C101  C     C_3   0.682722 0.266407 0.463980 -0.158857
C102  C     C_3   0.497063 0.293571 0.020408 -0.109491
C103  C     C_3   0.569288 0.687475 0.527978 -0.105878
C104  C     C_3   0.464838 0.724718 0.984495 -0.108802
C105  C     C_3   0.174542 0.704840 0.516781 -0.083083
C106  C     C_3   0.129691 0.795626 0.992921 -0.119176
C107  C     C_3   0.183079 0.213265 0.487138 -0.113935
C108  C     C_3   0.072394 0.185795 0.020357 -0.100417
C109  C     C_3   0.674543 0.204840 0.516781 -0.083083
C110  C     C_3   0.629615 0.295644 0.992891 -0.119186
C111  C     C_3   0.683079 0.713265 0.487138 -0.113935
C112  C     C_3   0.572398 0.685787 0.020356 -0.100433
C113  C     C_3   0.100697 0.751024 0.569002 0.052970
C114  C     C_3   0.091095 0.749540 0.929754 0.045100
C115  C     C_3   0.098934 0.247685 0.431170 0.057084
C116  C     C_3   0.088413 0.248689 0.071067 0.058859
C117  C     C_3   0.600697 0.251024 0.569002 0.052971
C118  C     C_3   0.591090 0.249528 0.929746 0.045063
C119  C     C_3   0.598934 0.747685 0.431170 0.057084
C120  C     C_3   0.588422 0.748683 0.071064 0.058875
C121  C     C_3   0.109896 0.812616 0.517267 -0.121230
C122  C     C_3   0.959665 0.748116 0.955455 -0.146619
C123  C     C_3   0.986041 0.221221 0.470363 -0.124017
C124  C     C_3   0.980847 0.287141 0.037034 -0.150991
C125  C     C_3   0.609896 0.312616 0.517267 -0.121230
C126  C     C_3   0.459675 0.248059 0.955446 -0.146595
C127  C     C_3   0.486042 0.721221 0.470363 -0.124017
C128  C     C_3   0.480858 0.787135 0.037029 -0.150986
C129  C     C_3   0.988251 0.789840 0.483152 -0.118564
C130  C     C_3   0.989839 0.681475 0.998984 -0.136127
C131  C     C_3   0.984093 0.290172 0.513855 -0.115148
C132  C     C_3   0.070741 0.320256 0.983302 -0.106953
C133  C     C_3   0.488250 0.289840 0.483152 -0.118564
C134  C     C_3   0.489924 0.181459 0.999005 -0.136105
C135  C     C_3   0.484093 0.790172 0.513855 -0.115148
C136  C     C_3   0.570759 0.820247 0.983297 -0.106947
C137  C     C_3   0.980493 0.728423 0.536717 -0.159730
C138  C     C_3   0.122829 0.683780 0.972237 -0.109026
C139  C     C_3   0.097829 0.316058 0.473504 -0.114139
C140  C     C_3   0.177872 0.281608 0.017719 -0.109723
C141  C     C_3   0.480493 0.228423 0.536717 -0.159730
C142  C     C_3   0.622889 0.183804 0.972254 -0.109055
C143  C     C_3   0.597829 0.816058 0.473504 -0.114139
C144  C     C_3   0.677886 0.781596 0.017715 -0.109757
Cr1   Cr    Cr6+3 0.488160 0.884660 0.750000 1.006126
Cr2   Cr    Cr6+3 0.488160 0.115340 0.250000 0.991116
Cr3   Cr    Cr6+3 0.988160 0.384660 0.750000 1.006134
Cr4   Cr    Cr6+3 0.988160 0.615340 0.250000 0.991099
Cr5   Cr    Cr6+3 0.173480 0.883120 0.750000 1.010984
Cr6   Cr    Cr6+3 0.173480 0.116880 0.250000 1.024288
Cr7   Cr    Cr6+3 0.673480 0.383120 0.750000 1.010995
Cr8   Cr    Cr6+3 0.673480 0.616880 0.250000 1.024282
Cr9   Cr    Cr6+3 0.333410 0.727260 0.750000 1.016545
Cr10  Cr    Cr6+3 0.333410 0.272740 0.250000 0.989473
Cr11  Cr    Cr6+3 0.833410 0.227260 0.750000 1.016533
Cr12  Cr    Cr6+3 0.833410 0.772740 0.250000 0.989467
H1    H     H_    0.252868 0.671342 0.531556 0.204453
H2    H     H_    0.189713 0.841182 0.986495 0.132167
H3    H     H_    0.263314 0.180435 0.472759 0.121218
H4    H     H_    0.071739 0.130363 0.037325 0.164159
H5    H     H_    0.752868 0.171342 0.531556 0.204452
H6    H     H_    0.689582 0.341210 0.986434 0.132239
H7    H     H_    0.763314 0.680435 0.472759 0.121218
H8    H     H_    0.571737 0.630356 0.037324 0.164151
H9    H     H_    0.906002 0.975857 0.541120 0.209913
H10   H     H_    0.908634 0.970107 0.967575 0.225289
H11   H     H_    0.933692 0.933394 0.416115 0.137813
H12   H     H_    0.937630 0.938473 0.095139 0.138670
H13   H     H_    0.406002 0.475857 0.541120 0.209913
H14   H     H_    0.408655 0.470077 0.967605 0.225373
H15   H     H_    0.433692 0.433394 0.416115 0.137813
H16   H     H_    0.437679 0.438400 0.095160 0.138662
H17   H     H_    0.260709 0.784162 0.430772 0.100587
H18   H     H_    0.942167 0.834580 0.045225 0.116936
H19   H     H_    0.056693 0.136132 0.553532 0.137531
H20   H     H_    0.879598 0.199824 0.966753 0.151335
H21   H     H_    0.760709 0.284162 0.430772 0.100587
H22   H     H_    0.442096 0.334570 0.045177 0.116893
H23   H     H_    0.556694 0.636131 0.553532 0.137531
H24   H     H_    0.379586 0.699813 0.966763 0.151303
H25   H     H_    0.138820 0.863375 0.538055 0.155891
H26   H     H_    0.885120 0.760013 0.917224 0.115692
H27   H     H_    0.910196 0.194967 0.442257 0.140925
H28   H     H_    0.907491 0.315130 0.066970 0.104439
H29   H     H_    0.638819 0.363375 0.538055 0.155891
H30   H     H_    0.385159 0.259895 0.917194 0.115683
H31   H     H_    0.410196 0.694967 0.442257 0.140925
H32   H     H_    0.407491 0.815122 0.066958 0.104437
H33   H     H_    0.910829 0.823245 0.466365 0.125818
H34   H     H_    0.929165 0.636123 0.004478 0.120837
H35   H     H_    0.903091 0.322649 0.527675 0.120040
H36   H     H_    0.072713 0.375443 0.966440 0.146098
H37   H     H_    0.410829 0.323244 0.466365 0.125818
H38   H     H_    0.429331 0.136084 0.004530 0.120882
H39   H     H_    0.403091 0.822649 0.527675 0.120040
H40   H     H_    0.572742 0.875435 0.966438 0.146088
H41   H     H_    0.902486 0.711252 0.570273 0.100656
H42   H     H_    0.184936 0.645100 0.949193 0.198461
H43   H     H_    0.110563 0.367720 0.448683 0.128002
H44   H     H_    0.259366 0.310060 0.033053 0.129194
H45   H     H_    0.402485 0.211251 0.570272 0.100655
H46   H     H_    0.685011 0.145141 0.949265 0.198575
H47   H     H_    0.610563 0.867720 0.448683 0.128002
H48   H     H_    0.759415 0.810029 0.033031 0.129165
H49   H     H_    0.021369 0.630968 0.465724 0.144520
H50   H     H_    0.240297 0.721141 0.071480 0.140150
H51   H     H_    0.258163 0.307969 0.558045 0.120631
H52   H     H_    0.230769 0.187714 0.936117 0.100269
H53   H     H_    0.521370 0.130968 0.465724 0.144520
H54   H     H_    0.740276 0.221234 0.071482 0.140144
H55   H     H_    0.758163 0.807969 0.558045 0.120631
H56   H     H_    0.730816 0.687709 0.936142 0.100288
H57   H     H_    0.572264 0.987146 0.372493 0.122288
H58   H     H_    0.572776 0.986474 0.128887 0.123822
H59   H     H_    0.530817 0.039726 0.633193 0.115439
H60   H     H_    0.535026 0.032479 0.867659 0.123129
H61   H     H_    0.072264 0.487146 0.372493 0.122289
H62   H     H_    0.072796 0.486494 0.128884 0.123822
H63   H     H_    0.030817 0.539726 0.633193 0.115439
H64   H     H_    0.035021 0.532491 0.867655 0.123116
H65   H     H_    0.136593 0.929672 0.362154 0.119884
H66   H     H_    0.142007 0.928025 0.143227 0.125471
H67   H     H_    0.076008 0.021868 0.609161 0.145711
H68   H     H_    0.074743 0.015379 0.895821 0.157315
H69   H     H_    0.636593 0.429672 0.362154 0.119883
H70   H     H_    0.642071 0.428000 0.143242 0.125453
H71   H     H_    0.576008 0.521868 0.609161 0.145712
H72   H     H_    0.574744 0.515366 0.895834 0.157344
O1    O     O_R   0.575450 0.828820 0.667950 -0.515428
O2    O     O_R   0.575450 0.828820 0.832050 -0.522880
O3    O     O_R   0.575450 0.171180 0.332050 -0.512635
O4    O     O_R   0.575450 0.171180 0.167950 -0.513739
O5    O     O_R   0.075450 0.328820 0.667950 -0.515428
O6    O     O_R   0.075450 0.328820 0.832050 -0.522864
O7    O     O_R   0.075450 0.671180 0.332050 -0.512634
O8    O     O_R   0.075450 0.671180 0.167950 -0.513770
O9    O     O_R   0.416860 0.942890 0.674680 -0.500573
O10   O     O_R   0.416860 0.942890 0.825320 -0.507570
O11   O     O_R   0.416860 0.057110 0.325320 -0.517075
O12   O     O_R   0.416860 0.057110 0.174680 -0.528050
O13   O     O_R   0.916860 0.442890 0.674680 -0.500575
O14   O     O_R   0.916860 0.442890 0.825320 -0.507545
O15   O     O_R   0.916860 0.557110 0.325320 -0.517074
O16   O     O_R   0.916860 0.557110 0.174680 -0.528066
O17   O     O_R   0.213790 0.953680 0.668330 -0.533733
O18   O     O_R   0.213790 0.953680 0.831670 -0.530119
O19   O     O_R   0.213790 0.046320 0.331670 -0.506743
O20   O     O_R   0.213790 0.046320 0.168330 -0.514143
O21   O     O_R   0.713790 0.453680 0.668330 -0.533731
O22   O     O_R   0.713790 0.453680 0.831670 -0.530102
O23   O     O_R   0.713790 0.546320 0.331670 -0.506742
O24   O     O_R   0.713790 0.546320 0.168330 -0.514136
O25   O     O_R   0.121360 0.817890 0.672660 -0.509974
O26   O     O_R   0.121360 0.817890 0.827340 -0.501201
O27   O     O_R   0.121360 0.182110 0.327340 -0.492632
O28   O     O_R   0.121360 0.182110 0.172660 -0.503392
O29   O     O_R   0.621360 0.317890 0.672660 -0.509975
O30   O     O_R   0.621360 0.317890 0.827340 -0.501199
O31   O     O_R   0.621360 0.682110 0.327340 -0.492631
O32   O     O_R   0.621360 0.682110 0.172660 -0.503403
O33   O     O_R   0.206850 0.711370 0.665820 -0.526591
O34   O     O_R   0.206850 0.711370 0.834180 -0.536675
O35   O     O_R   0.206850 0.288630 0.334180 -0.535069
O36   O     O_R   0.206850 0.288630 0.165820 -0.541799
O37   O     O_R   0.706850 0.211370 0.665820 -0.526598
O38   O     O_R   0.706850 0.211370 0.834180 -0.536660
O39   O     O_R   0.706850 0.788630 0.334180 -0.535069
O40   O     O_R   0.706850 0.788630 0.165820 -0.541795
O41   O     O_R   0.457710 0.733190 0.672630 -0.505280
O42   O     O_R   0.457710 0.733190 0.827370 -0.508499
O43   O     O_R   0.457710 0.266810 0.327370 -0.512883
O44   O     O_R   0.457710 0.266810 0.172630 -0.519581
O45   O     O_R   0.957710 0.233190 0.672630 -0.505281
O46   O     O_R   0.957710 0.233190 0.827370 -0.508503
O47   O     O_R   0.957710 0.766810 0.327370 -0.512881
O48   O     O_R   0.957710 0.766810 0.172630 -0.519581
O49   O     O_3   0.331690 0.831680 0.750000 -0.257328
O50   O     O_3   0.331690 0.168320 0.250000 -0.272804
O51   O     O_3   0.831690 0.331680 0.750000 -0.257320
O52   O     O_3   0.831690 0.668320 0.250000 -0.272814
O53   O     O_3   0.773992 0.031272 0.435598 -0.696166
H73   H     H_    0.765666 0.023059 0.382920 0.305598
O54   O     O_3   0.774932 0.026921 0.063519 -0.703925
H74   H     H_    0.764835 0.023974 0.116725 0.306019
O55   O     O_3   0.753096 0.053355 0.581724 -0.718546
H75   H     H_    0.730239 0.059994 0.633205 0.314806
O56   O     O_3   0.758383 0.034255 0.915100 -0.728139
H76   H     H_    0.736504 0.036422 0.863193 0.310030
O57   O     O_3   0.273992 0.531273 0.435599 -0.696166
H77   H     H_    0.265666 0.523060 0.382920 0.305599
O58   O     O_3   0.274972 0.526864 0.063492 -0.703974
H78   H     H_    0.264858 0.523955 0.116702 0.306017
O59   O     O_3   0.253096 0.553355 0.581724 -0.718545
H79   H     H_    0.230239 0.559992 0.633205 0.314806
O60   O     O_3   0.258390 0.534167 0.915068 -0.728121
H80   H     H_    0.236504 0.536315 0.863160 0.310016

loop_
_geom_bond_atom_site_label_1
_geom_bond_atom_site_label_2
_ccdc_geom_bond_type
C6    C32   S    
Cr1   O2    S    
C7    C29   S    
C119  C143  S    
C38   H62   S    
O58   H78   S    
C120  C144  S    
C65   H67   S    
C110  C118  S    
C24   C104  S    
C11   H51   S    
C121  H25   S    
C16   C144  S    
C70   H72   S    
C57   C59   A    
C8    O16   A    
C58   C60   A    
C62   C70   A    
C61   C63   A    
C62   C64   A    
Cr10  O35   S    
C144  H48   S    
C23   C103  S    
C49   C51   A    
C34   C42   A    
C84   O28   A    
Cr4   O15   S    
C50   C52   A    
C23   C89   S    
C5    O13   A    
C97   C105  S    
C40   H64   S    
C73   C75   A    
C87   C119  S    
C90   O42   A    
C42   C44   A    
C20   C132  S    
Cr10  O44   S    
C21   C133  S    
C45   C47   A    
C112  H8    S    
C46   C48   A    
C115  C123  S    
C6    O22   A    
C27   C57   A    
C87   O31   A    
C112  C120  S    
C33   H57   S    
C88   O40   A    
C29   C55   A    
C30   C56   A    
C100  C124  S    
C68   H66   S    
C83   C115  S    
C104  C128  S    
Cr10  O50   S    
C12   C20   S    
C13   C21   S    
C85   C117  S    
Cr11  O37   S    
C137  H41   S    
C113  C137  S    
C36   C44   A    
C33   C51   A    
C80   H16   S    
C37   C45   A    
C130  C138  S    
C36   C50   A    
C39   C47   A    
C40   C48   A    
C20   C94   S    
C34   C52   A    
Cr1   O49   S    
C24   C90   S    
C136  H40   S    
C28   C58   A    
C98   C106  S    
C140  H44   S    
C121  C129  S    
C33   C41   A    
C111  H7    S    
C1    O17   A    
C10   C18   S    
C76   H12   S    
C46   O58   S    
Cr12  O48   S    
C2    C28   S    
C32   C62   A    
C134  H38   S    
C129  C137  S    
C126  C134  S    
C7    O23   A    
C92   O4    A    
C84   O36   A    
C133  C141  S    
C10   C138  S    
C81   O25   A    
C130  H34   S    
C143  H47   S    
C14   C142  S    
C81   O33   A    
Cr5   O18   S    
C83   O35   A    
C71   C79   A    
C42   O54   S    
C110  H6    S    
Cr6   O20   S    
C74   C76   A    
C39   H63   S    
C124  H28   S    
C78   C80   A    
Cr3   O13   S    
Cr5   O25   S    
C66   C74   A    
C78   H14   S    
C124  C132  S    
C125  H29   S    
C67   H65   S    
C97   C121  S    
C59   C67   A    
C129  H33   S    
C35   C49   A    
C101  C125  S    
Cr5   O49   S    
C35   C43   A    
C132  H36   S    
C24   C136  S    
C135  C143  S    
C84   C116  S    
C9    C137  S    
Cr11  O46   S    
Cr7   O22   S    
Cr2   O3    S    
C100  C108  S    
C13   H53   S    
C103  C127  S    
C73   H9    S    
C104  C112  S    
C1    O9    A    
C91   O3    A    
C93   O45   A    
O59   H79   S    
C127  H31   S    
Cr12  O40   S    
Cr1   O10   S    
O57   H77   S    
C15   C143  S    
C40   C54   A    
C96   O48   A    
C10   C106  S    
C67   C75   A    
Cr3   O5    S    
Cr8   O24   S    
Cr7   O29   S    
C14   C110  S    
C44   O56   S    
Cr1   O1    S    
C8    O24   A    
C45   O57   S    
C102  C126  S    
C103  C111  S    
C68   C76   A    
Cr4   O7    S    
C85   O29   A    
C14   C22   S    
C10   H50   S    
C72   C80   A    
C36   H60   S    
Cr8   O31   S    
Cr6   O27   S    
C102  H22   S    
C114  C138  S    
C47   O59   S    
C38   C46   A    
C99   H19   S    
Cr10  O36   S    
C37   C55   A    
Cr3   O6    S    
C113  C121  S    
C133  H37   S    
O54   H74   S    
Cr4   O16   S    
C22   C92   S    
C90   O2    A    
C25   C59   A    
C85   O37   A    
Cr2   O50   S    
C17   C97   S    
C27   C49   A    
C87   O39   A    
C119  C127  S    
C29   C63   A    
C30   C64   A    
C41   C43   A    
C31   C61   A    
Cr9   O42   S    
C37   H61   S    
C109  C117  S    
C11   C19   S    
C142  H46   S    
C127  C135  S    
Cr12  O52   S    
C128  C136  S    
C92   O44   A    
C101  C109  S    
C95   O47   A    
Cr9   O49   S    
C79   H15   S    
C11   C139  S    
C86   O30   A    
C69   C77   A    
C105  H1    S    
C82   O34   A    
C12   C140  S    
C17   C95   S    
C13   C141  S    
C88   C120  S    
C19   C93   S    
C77   C79   A    
Cr5   O17   S    
C72   H70   S    
C3    O19   A    
C32   C54   A    
C123  H27   S    
C5    O21   A    
C126  H30   S    
C97   H17   S    
C35   H59   S    
C34   H58   S    
O60   H80   S    
C93   O5    A    
C43   O55   S    
Cr4   O52   S    
C83   O27   A    
C117  C141  S    
O55   H75   S    
C134  C142  S    
C107  H3    S    
O56   H76   S    
C20   C100  S    
C3    C25   S    
Cr5   O26   S    
C4    O12   A    
C86   C118  S    
C63   C71   A    
C22   C134  S    
C102  C110  S    
Cr10  O43   S    
C74   H10   S    
C16   C112  S    
C12   C108  S    
C21   C91   S    
C105  C113  S    
C19   C99   S    
C116  C124  S    
C123  C131  S    
C128  H32   S    
C94   O6    A    
C57   C65   A    
C94   O46   A    
C4    C26   S    
C120  C128  S    
C100  H20   S    
C132  C140  S    
C99   C107  S    
Cr2   O12   S    
C41   O53   S    
C23   C135  S    
C8    C30   S    
C108  C116  S    
C2    O18   A    
C136  C144  S    
C39   C53   A    
C103  H23   S    
Cr11  O38   S    
C101  H21   S    
C88   O32   A    
C135  H39   S    
Cr2   O11   S    
C60   C68   A    
C81   C113  S    
C82   O26   A    
C9    H49   S    
C9    C105  S    
C71   H69   S    
C3    O11   A    
C70   C78   A    
C18   C96   S    
Cr11  O45   S    
Cr7   O21   S    
Cr2   O4    S    
C106  C114  S    
C89   O41   A    
C12   H52   S    
C111  C119  S    
C141  H45   S    
C91   O43   A    
C98   H18   S    
C139  H43   S    
C65   C73   A    
Cr7   O51   S    
C4    O20   A    
Cr12  O47   S    
C15   H55   S    
Cr8   O52   S    
C28   C50   A    
C58   C66   A    
Cr1   O9    S    
Cr11  O51   S    
C21   C101  S    
C15   C23   S    
C13   C109  S    
C16   C24   S    
C95   O7    A    
C69   H71   S    
C53   C55   A    
C19   C131  S    
Cr6   O19   S    
C54   C56   A    
C14   H54   S    
C17   C129  S    
C15   C111  S    
C16   H56   S    
C131  C139  S    
C82   C114  S    
C66   H68   S    
C2    O10   A    
Cr3   O14   S    
O53   H73   S    
C106  H2    S    
Cr4   O8    S    
Cr6   O50   S    
C26   C52   A    
Cr8   O32   S    
Cr6   O28   S    
C125  C133  S    
C96   O8    A    
C38   C56   A    
C31   C53   A    
Cr9   O34   S    
C107  C115  S    
C48   O60   S    
C98   C122  S    
C138  H42   S    
C9    C17   S    
C11   C107  S    
Cr9   O33   S    
C99   C123  S    
C61   C69   A    
Cr9   O41   S    
C115  C139  S    
C118  C142  S    
Cr3   O51   S    
C108  H4    S    
C131  H35   S    
C118  C126  S    
C25   C51   A    
C22   C102  S    
C89   O1    A    
C109  H5    S    
C104  H24   S    
Cr12  O39   S    
C26   C60   A    
C64   C72   A    
C18   C130  S    
C114  C122  S    
C122  H26   S    
C77   H13   S    
C7    O15   A    
C1    C27   S    
C86   O38   A    
C6    O14   A    
C75   H11   S    
C18   C98   S    
C116  C140  S    
C117  C125  S    
C122  C130  S    
Cr8   O23   S    
Cr7   O30   S    
C5    C31   S    
