data_mof_unit_32757.cif
_audit_creation_date              2013-03-05T15:50:13-0500
_audit_creation_method            fapswitch 2.2
_symmetry_space_group_name_H-M    P1
_symmetry_Int_Tables_number       1
_space_group_crystal_system       triclinic
_cell_length_a                    14.665297
_cell_length_b                    16.159787
_cell_length_c                    9.717746
_cell_angle_alpha                 88.920708
_cell_angle_beta                  88.346608
_cell_angle_gamma                 89.607
_cell_volume                      2301.57673137

loop_
_atom_site_label
_atom_site_type_symbol
_atom_site_description
_atom_site_fract_x
_atom_site_fract_y
_atom_site_fract_z
_atom_type_partial_charge
O1    O     O_R   0.409820 0.909830 0.618810 -0.620423
O2    O     O_R   0.409820 0.090170 0.618810 -0.591000
O3    O     O_R   0.909820 0.409830 0.618810 -0.604974
O4    O     O_R   0.909820 0.590170 0.618810 -0.605656
O5    O     O_R   0.409840 0.909830 0.381240 -0.547570
O6    O     O_R   0.409840 0.090170 0.381240 -0.551819
O7    O     O_R   0.909840 0.409830 0.381240 -0.547353
O8    O     O_R   0.909840 0.590170 0.381240 -0.537428
C1    C     C_R   0.384500 0.878923 0.503508 0.824713
C2    C     C_R   0.382026 0.119405 0.499679 0.819311
C3    C     C_R   0.881499 0.381133 0.501739 0.818854
C4    C     C_R   0.880914 0.619040 0.501160 0.822078
Cu1   Cu    Cu3+1 0.499990 0.000000 0.640660 0.919238
Cu2   Cu    Cu3+1 0.999990 0.500000 0.640660 0.920455
Cu3   Cu    Cu3+1 0.500010 0.000000 0.359340 0.930006
Cu4   Cu    Cu3+1 0.000010 0.500000 0.359340 0.934011
O9    O     O_R   0.590170 0.090170 0.618760 -0.585516
O10   O     O_R   0.590170 0.909830 0.618760 -0.591697
O11   O     O_R   0.090170 0.590170 0.618760 -0.579550
O12   O     O_R   0.090170 0.409830 0.618760 -0.593039
O13   O     O_R   0.590190 0.090180 0.381190 -0.608094
O14   O     O_R   0.590190 0.909820 0.381190 -0.604928
O15   O     O_R   0.090190 0.590180 0.381190 -0.604406
O16   O     O_R   0.090190 0.409820 0.381190 -0.610950
C5    C     C_R   0.612811 0.123326 0.498984 0.759310
C6    C     C_R   0.608470 0.874061 0.501547 0.778675
C7    C     C_R   0.115710 0.621564 0.497872 0.756836
C8    C     C_R   0.110721 0.375329 0.501623 0.764920
C9    C     C_R   0.365432 0.242334 0.717290 -0.188813
C10   C     C_R   0.285315 0.815829 0.765678 -0.196184
C11   C     C_R   0.842049 0.729721 0.743552 -0.181517
C12   C     C_R   0.838096 0.271946 0.745374 -0.193365
H1    H     H_    0.435309 0.223025 0.700229 0.164566
H2    H     H_    0.350810 0.838319 0.793982 0.197455
H3    H     H_    0.911043 0.708157 0.740682 0.173207
H4    H     H_    0.909942 0.286526 0.745935 0.174402
C13   C     C_R   0.337562 0.264816 0.849809 0.181724
C14   C     C_R   0.222129 0.805714 0.874610 0.189559
C15   C     C_R   0.807631 0.758415 0.869900 0.180288
C16   C     C_R   0.790412 0.262108 0.870964 0.199807
C17   C     C_R   0.716371 0.783718 0.881793 0.162664
C18   C     C_R   0.695312 0.249531 0.868788 0.174145
C19   C     C_R   0.245780 0.287224 0.874681 0.175476
C20   C     C_R   0.138998 0.767219 0.852055 0.169350
C21   C     C_R   0.665422 0.790231 0.763937 -0.144595
C22   C     C_R   0.657966 0.220336 0.749649 -0.149616
C23   C     C_R   0.188403 0.298376 0.763139 -0.164449
C24   C     C_R   0.121105 0.740041 0.720550 -0.155728
H5    H     H_    0.593523 0.804712 0.775830 0.172357
H6    H     H_    0.585682 0.207999 0.750884 0.171518
H7    H     H_    0.117439 0.312680 0.785325 0.176917
H8    H     H_    0.054540 0.716490 0.702594 0.153446
C25   C     C_R   0.704946 0.773642 0.633417 0.015742
C26   C     C_R   0.708657 0.222994 0.625421 0.019869
C27   C     C_R   0.219561 0.281980 0.627657 0.019147
C28   C     C_R   0.188532 0.740792 0.614410 0.018253
C29   C     C_R   0.301560 0.238073 0.611863 -0.024584
C30   C     C_R   0.266792 0.789241 0.630818 -0.010709
C31   C     C_R   0.787027 0.728655 0.626237 -0.015746
C32   C     C_R   0.790287 0.267863 0.622170 -0.023821
C33   C     C_R   0.312492 0.185329 0.498389 -0.150066
C34   C     C_R   0.323549 0.806903 0.512516 -0.150937
C35   C     C_R   0.806742 0.681633 0.505690 -0.152551
C36   C     C_R   0.811299 0.316326 0.503252 -0.148260
C37   C     C_R   0.245504 0.185542 0.395928 0.162086
C38   C     C_R   0.316973 0.758233 0.395459 0.152161
C39   C     C_R   0.741853 0.681972 0.400187 0.163074
C40   C     C_R   0.752547 0.312227 0.390676 0.173577
C41   C     C_R   0.670633 0.740714 0.400845 0.092634
C42   C     C_R   0.690732 0.246601 0.383697 0.083782
C43   C     C_R   0.174807 0.244640 0.398956 0.096509
C44   C     C_R   0.248215 0.699748 0.388454 0.083549
C45   C     C_R   0.661749 0.795722 0.510453 -0.170949
C46   C     C_R   0.672204 0.197202 0.501117 -0.172791
C47   C     C_R   0.167891 0.299645 0.509403 -0.170544
C48   C     C_R   0.181555 0.691127 0.496172 -0.162559
H9    H     H_    0.358685 0.001829 0.137217 0.159235
H10   H     H_    0.858649 0.505187 0.136961 0.170376
C49   C     C_R   0.661237 0.007700 0.147671 -0.209126
C50   C     C_R   0.160974 0.493441 0.146562 -0.223518
H11   H     H_    0.663606 0.000603 0.254881 0.236556
H12   H     H_    0.161594 0.497197 0.253375 0.234820
C51   C     C_R   0.744352 0.023849 0.091115 -0.290377
C52   C     C_R   0.245920 0.488845 0.090338 -0.262636
H13   H     H_    0.800825 0.030591 0.159736 0.162586
H14   H     H_    0.302761 0.483493 0.159042 0.158339
C53   C     C_R   0.757252 0.027718 0.951806 0.212348
C54   C     C_R   0.259881 0.495575 0.951833 0.231296
C55   C     C_R   0.682428 0.012527 0.862007 0.204052
C56   C     C_R   0.183343 0.498847 0.861206 0.192757
C57   C     C_R   0.586213 0.004384 0.922300 0.108519
C58   C     C_R   0.086432 0.498617 0.921764 0.101748
C59   C     C_R   0.581816 0.003631 0.072922 0.143013
C60   C     C_R   0.081789 0.497635 0.072281 0.135644
N1    N     N_R   0.501200 0.000000 0.147910 -0.211052
N2    N     N_R   0.001200 0.500000 0.147910 -0.204375
C61   C     C_R   0.422340 0.000272 0.078073 -0.035065
C62   C     C_R   0.922434 0.502891 0.078201 -0.057767
C63   C     C_R   0.421357 0.002771 0.931514 0.242713
C64   C     C_R   0.921343 0.502293 0.931970 0.241743
N3    N     N_R   0.501270 0.000000 0.852040 -0.193631
N4    N     N_R   0.001270 0.500000 0.852040 -0.188796
N5    N     N_3   0.246622 0.122705 0.293388 -0.578890
H15   H     H_    0.254205 0.151038 0.196470 0.223661
H16   H     H_    0.184470 0.091335 0.298867 0.229764
N6    N     N_3   0.386274 0.763195 0.287894 -0.583624
H17   H     H_    0.409358 0.703802 0.263423 0.238123
H18   H     H_    0.358652 0.790050 0.200345 0.252347
N7    N     N_3   0.742295 0.616591 0.302030 -0.568550
H19   H     H_    0.743370 0.642324 0.202933 0.214992
H20   H     H_    0.682104 0.582779 0.316076 0.229339
N8    N     N_3   0.748710 0.379708 0.292889 -0.573356
H21   H     H_    0.769352 0.358817 0.196688 0.215578
H22   H     H_    0.681424 0.401199 0.288374 0.222295
C65   C     C_3   0.856410 0.043483 0.904920 -0.853464
H23   H     H_    0.902436 0.053297 0.991940 0.230174
H24   H     H_    0.885064 0.989866 0.848196 0.225818
H25   H     H_    0.861525 0.100472 0.840118 0.244516
C66   C     C_3   0.361052 0.499900 0.907039 -0.871218
H26   H     H_    0.407523 0.501021 0.995333 0.223346
H27   H     H_    0.382043 0.444893 0.847161 0.231318
H28   H     H_    0.375612 0.557562 0.846957 0.234000
C67   C     C_3   0.725924 0.999655 0.717847 -0.653236
H29   H     H_    0.769389 0.943133 0.720858 0.190145
H30   H     H_    0.695018 0.996788 0.620047 0.239855
H31   H     H_    0.768921 0.053684 0.689232 0.179732
C68   C     C_3   0.225714 0.503748 0.714433 -0.646774
H32   H     H_    0.194990 0.498691 0.616762 0.233080
H33   H     H_    0.262416 0.563403 0.701537 0.188543
H34   H     H_    0.274382 0.451697 0.700105 0.181903
C69   C     C_3   0.330529 0.019953 0.868503 -0.781743
H35   H     H_    0.320995 0.985895 0.773408 0.267075
H36   H     H_    0.273239 0.002740 0.940273 0.189519
H37   H     H_    0.323911 0.087153 0.846633 0.240066
C70   C     C_3   0.828115 0.505228 0.871510 -0.805337
H38   H     H_    0.827902 0.498510 0.759900 0.288463
H39   H     H_    0.785774 0.454295 0.916666 0.193743
H40   H     H_    0.794510 0.565028 0.896941 0.213265
N9    N     N_3   0.401391 0.257368 0.958191 -0.622249
H41   H     H_    0.377214 0.213425 0.030399 0.229637
H42   H     H_    0.405734 0.314528 0.006063 0.224580
N10   N     N_3   0.243940 0.834963 0.007607 -0.624061
H43   H     H_    0.238234 0.785188 0.077033 0.230138
H44   H     H_    0.194919 0.879034 0.036669 0.218098
N11   N     N_3   0.865182 0.758324 0.986051 -0.624693
H45   H     H_    0.837514 0.719305 0.062809 0.231543
H46   H     H_    0.867574 0.818448 0.023600 0.228904
N12   N     N_3   0.839704 0.264866 0.995752 -0.608466
H47   H     H_    0.799886 0.241789 0.078414 0.240950
H48   H     H_    0.856847 0.326350 0.012627 0.213875
C71   C     C_3   0.672030 0.800293 0.018915 -0.894641
H49   H     H_    0.668984 0.740811 0.076205 0.250403
H50   H     H_    0.711967 0.845453 0.076320 0.250376
H51   H     H_    0.601353 0.824477 0.009634 0.233235
C72   C     C_3   0.629684 0.281747 0.974995 -0.893274
H52   H     H_    0.664540 0.318586 0.051506 0.251319
H53   H     H_    0.581187 0.325221 0.925105 0.239881
H54   H     H_    0.589512 0.229730 0.020628 0.265378
C73   C     C_3   0.204834 0.291470 0.016981 -0.898018
H55   H     H_    0.255294 0.307899 0.094556 0.245039
H56   H     H_    0.149062 0.337931 0.020502 0.237072
H57   H     H_    0.174650 0.230357 0.043322 0.243636
C74   C     C_3   0.072385 0.748768 0.968509 -0.857703
H58   H     H_    0.041316 0.807163 0.006336 0.240994
H59   H     H_    0.019142 0.705808 0.935417 0.261184
H60   H     H_    0.106672 0.716190 0.053966 0.224656
N13   N     N_3   0.596276 0.729147 0.311452 -0.625728
H61   H     H_    0.541397 0.709153 0.373941 0.226945
H62   H     H_    0.578266 0.784914 0.263986 0.273922
N14   N     N_3   0.640147 0.237533 0.262467 -0.627385
H63   H     H_    0.659834 0.182013 0.216724 0.259588
H64   H     H_    0.570323 0.237397 0.287714 0.239170
N15   N     N_3   0.103012 0.238682 0.302353 -0.611168
H65   H     H_    0.041159 0.231119 0.357276 0.216864
H66   H     H_    0.099054 0.293037 0.243785 0.263801
N16   N     N_3   0.253751 0.644949 0.275603 -0.613996
H67   H     H_    0.263682 0.585687 0.316867 0.210534
H68   H     H_    0.194694 0.650460 0.218960 0.252308

loop_
_geom_bond_atom_site_label_1
_geom_bond_atom_site_label_2
_geom_bond_distance
_ccdc_geom_bond_type
C30   C34   1.425348 A    
C70   H40   1.110506 S    
C51   C53   1.361827 A    
C28   C48   1.420380 A    
C72   H53   1.111156 S    
C54   C56   1.446639 A    
C74   H58   1.109377 S    
O10   C6    1.307126 A    
C44   C48   1.417090 A    
C69   H37   1.106744 S    
N8    H22   1.045691 S    
N11   H45   1.042563 S    
C25   C31   1.402644 A    
C67   H29   1.110635 S    
N13   H62   1.040559 S    
C26   C32   1.403094 A    
N15   H65   1.045827 S    
O7    C3    1.308856 A    
O5    C1    1.324390 A    
N6    H18   1.039141 S    
Cu1   O10   1.971438 S    
C36   C40   1.414745 A    
C74   H59   1.106981 S    
C52   H14   1.084926 S    
C49   C59   1.392923 A    
C24   H8    1.070352 S    
C19   C73   1.494197 S    
N7    H20   1.045569 S    
Cu3   N1    2.054195 S    
C55   C57   1.517727 A    
Cu2   N4    2.054765 S    
N14   H63   1.044011 S    
C65   H23   1.111446 S    
C9    H1    1.078318 S    
C6    C45   1.485541 S    
C10   C14   1.394608 A    
C70   H39   1.110522 S    
C5    C46   1.483419 S    
C18   C22   1.386967 A    
C71   H51   1.110730 S    
C11   C31   1.416017 A    
O2    Cu1   1.973597 S    
C42   C46   1.401377 A    
C67   H30   1.066590 S    
N11   H46   1.045420 S    
O6    Cu3   1.971340 S    
C26   C46   1.406403 A    
C39   N7    1.436556 S    
Cu3   O14   1.973815 S    
C38   C44   1.390722 A    
C28   C30   1.408261 A    
C65   H24   1.109415 S    
N2    C62   1.355948 A    
H10   C62   1.082576 S    
C56   C68   1.540133 S    
C73   H56   1.106697 S    
C41   C45   1.402766 A    
C20   C74   1.500464 S    
O15   C7    1.315957 A    
O4    C4    1.307528 A    
O11   C7    1.316235 A    
C53   C65   1.532848 S    
C64   C70   1.503708 S    
C58   N4    1.437807 A    
C27   C47   1.418163 A    
C40   C42   1.403750 A    
C66   H27   1.108561 S    
C71   H49   1.102206 S    
C21   C25   1.408846 A    
O8    Cu4   1.971340 S    
C72   H54   1.108147 S    
C14   N10   1.430046 S    
C15   N11   1.428731 S    
C57   N3    1.440529 A    
C71   H50   1.107629 S    
C58   C60   1.462094 A    
N8    H21   1.036208 S    
C61   C63   1.424520 A    
N15   H66   1.039806 S    
C38   N6    1.438270 S    
C35   C39   1.418722 A    
Cu4   N2    2.054195 S    
C10   H2    1.074288 S    
C1    C34   1.472107 S    
Cu2   O12   1.971438 S    
C70   H38   1.092152 S    
C74   H60   1.106180 S    
O1    C1    1.300165 A    
N12   H47   1.044013 S    
C15   C17   1.398956 A    
C3    C36   1.473149 S    
N13   H61   1.043485 S    
C49   H11   1.047523 S    
C4    C35   1.480565 S    
C34   C38   1.401034 A    
C67   H31   1.107039 S    
C23   H7    1.081030 S    
O12   C8    1.303539 A    
C37   C43   1.404834 A    
C43   N15   1.435614 S    
C39   C41   1.406506 A    
C52   C54   1.358028 A    
C13   C19   1.406815 A    
C60   N2    1.374303 A    
C68   H33   1.110602 S    
C14   C20   1.397242 A    
C33   C37   1.418722 A    
C57   C59   1.463093 A    
C56   C58   1.522489 A    
C73   H55   1.108525 S    
C21   H5    1.081912 S    
O8    C4    1.320949 A    
C65   H25   1.107554 S    
C22   C26   1.399478 A    
C37   N5    1.435701 S    
C64   N4    1.388015 A    
C73   H57   1.107570 S    
N5    H16   1.045526 S    
C54   C66   1.535823 S    
H9    C61   1.082450 S    
O3    Cu2   1.992804 S    
C50   H12   1.041206 S    
N16   H67   1.042162 S    
C63   N3    1.385736 A    
C9    C29   1.410920 A    
Cu4   O15   1.993021 S    
C62   C64   1.421808 A    
C41   N13   1.429082 S    
C27   C29   1.398152 A    
O14   C6    1.328252 A    
Cu2   Cu4   2.733787 S    
C2    C33   1.469791 S    
O1    Cu1   1.992804 S    
C12   C32   1.407635 A    
Cu1   N3    2.054765 S    
C7    C48   1.486486 S    
O2    C2    1.316639 A    
C12   H4    1.081423 S    
C72   H52   1.100579 S    
N10   H44   1.045292 S    
C23   C27   1.410359 A    
C66   H28   1.108953 S    
C13   N9    1.431974 S    
C24   C28   1.408072 A    
O13   C5    1.324667 A    
O7    Cu4   1.978810 S    
C16   N12   1.431125 S    
C51   H13   1.085490 S    
Cu2   O11   1.978907 S    
C25   C45   1.407493 A    
O16   C8    1.328333 A    
N12   H48   1.043648 S    
C19   C23   1.399511 A    
C69   H36   1.109849 S    
O6    C2    1.305769 A    
N9    H41   1.045310 S    
N1    C61   1.357652 A    
C29   C33   1.411196 A    
C17   C71   1.493733 S    
Cu1   O9    1.978907 S    
C55   C67   1.539583 S    
C22   H6    1.079679 S    
C31   C35   1.429769 A    
C63   C69   1.503963 S    
C32   C36   1.411526 A    
O9    C5    1.307191 A    
Cu1   Cu3   2.733787 S    
C18   C72   1.489495 S    
C42   N14   1.420600 S    
C68   H34   1.107586 S    
N7    H19   1.041471 S    
C50   C52   1.347927 A    
C43   C47   1.407393 A    
N9    H42   1.045178 S    
C59   N1    1.371800 A    
N14   H64   1.046061 S    
C10   C30   1.421000 A    
C16   C18   1.411604 A    
C11   C15   1.399926 A    
C11   H3    1.067654 S    
C12   C16   1.395984 A    
O4    Cu2   1.973597 S    
C69   H35   1.097315 S    
C44   N16   1.422635 S    
O5    Cu3   1.978810 S    
O3    C3    1.315917 A    
C49   C51   1.347670 A    
C20   C24   1.391737 A    
Cu3   O13   1.993021 S    
Cu4   O16   1.973815 S    
C66   H26   1.111531 S    
N6    H17   1.044917 S    
C9    C13   1.393788 A    
N5    H15   1.042802 S    
C53   C55   1.446687 A    
C17   C21   1.387382 A    
N10   H43   1.042290 S    
C8    C47   1.480065 S    
C50   C60   1.385517 A    
C40   N8    1.434752 S    
C68   H32   1.067082 S    
N16   H68   1.041941 S    
