data_mof_unit_62334.cif
_audit_creation_date              2012-10-26T18:34:56-0400
_audit_creation_method            fapswitch 2.2
_symmetry_space_group_name_H-M    P1
_symmetry_Int_Tables_number       1
_space_group_crystal_system       triclinic
_cell_length_a                    13.146457
_cell_length_b                    14.433099
_cell_length_c                    13.978539
_cell_angle_alpha                 90.000634
_cell_angle_beta                  84.976926
_cell_angle_gamma                 90.00148
_cell_volume                      2642.15923116

loop_
_atom_site_label
_atom_site_type_symbol
_atom_type_description
_atom_site_fract_x
_atom_site_fract_y
_atom_site_fract_z
_atom_type_partial_charge
C1    C     C_R   0.500001 0.671300 0.500000 0.552986
C2    C     C_2   0.456528 0.499688 0.977845 0.303985
C3    C     C_1   0.465497 0.499807 0.873660 -0.010055
C4    C     C_1   0.534503 0.500191 0.126339 -0.010055
C5    C     C_1   0.500003 0.772880 0.500000 -0.040659
C6    C     C_1   0.499997 0.227120 0.500000 -0.040659
C7    C     C_1   0.500003 0.857692 0.500000 -0.036161
C8    C     C_1   0.499997 0.142308 0.500000 -0.036162
C9    C     C_1   0.500001 0.957595 0.500000 0.005466
C10   C     C_1   0.499999 0.042404 0.500000 0.005466
C11   C     C_1   0.826370 0.500000 0.499985 0.127534
C12   C     C_R   0.499999 0.328700 0.500000 0.552985
C13   C     C_1   0.173630 0.500000 0.500015 0.127534
C14   C     C_3   0.278036 0.498265 0.978261 -0.118048
C15   C     C_3   0.721964 0.501724 0.021739 -0.118048
C16   C     C_1   0.949320 0.500000 0.499995 -0.043001
C17   C     C_1   0.050680 0.500000 0.500004 -0.043001
C18   C     C_R   0.484428 0.500005 0.685306 0.561244
C19   C     C_R   0.515572 0.499995 0.314694 0.561244
C20   C     C_1   0.525732 0.500092 0.212474 -0.034999
C21   C     C_1   0.474268 0.499907 0.787526 -0.034999
C22   C     C_2   0.543472 0.500309 0.022155 0.303985
Cu1   Cu    Cu3+1 0.407320 0.500000 0.500010 0.991030
Cu2   Cu    Cu3+1 0.592680 0.500000 0.499990 0.991030
H1    H     H_    0.277721 0.434692 0.933281 0.122777
H2    H     H_    0.276463 0.561778 0.933321 0.122786
H3    H     H_    0.207176 0.497707 0.027567 0.149809
H4    H     H_    0.723533 0.438208 0.066675 0.122785
H5    H     H_    0.722283 0.565295 0.066722 0.122778
H6    H     H_    0.792824 0.502281 0.972433 0.149809
N1    N     N_1   0.731930 0.500000 0.499980 -0.164120
N2    N     N_1   0.268070 0.500000 0.500020 -0.164120
O1    O     O_R   0.421720 0.623950 0.500010 -0.472315
O2    O     O_3   0.637341 0.501010 0.966226 -0.584758
O3    O     O_R   0.578280 0.376050 0.499990 -0.472315
O4    O     O_R   0.578280 0.623950 0.499990 -0.472321
O5    O     O_R   0.421720 0.376050 0.500010 -0.472320
O6    O     O_R   0.410670 0.500000 0.637850 -0.491629
O7    O     O_R   0.589330 0.500000 0.362150 -0.491629
O8    O     O_R   0.567200 0.500000 0.637840 -0.469552
O9    O     O_R   0.432800 0.500000 0.362160 -0.469551
O10   O     O_3   0.362659 0.498987 0.033774 -0.584758

loop_
_geom_bond_atom_site_label_1
_geom_bond_atom_site_label_2
_ccdc_geom_bond_type
C2    C22   D    
Cu1   Cu2   S    
C14   H3    S    
Cu1   O6    S    
C4    C22   S    
C9    C10   T    
C13   N2    T    
C19   C20   S    
Cu1   O9    S    
C13   C17   S    
C14   O10   S    
Cu1   N2    S    
C2    C3    S    
C18   O6    A    
Cu2   N1    S    
C11   N1    T    
C14   H2    S    
C12   O3    A    
C15   H4    S    
Cu2   O4    S    
C19   O7    A    
C2    O10   S    
C1    C5    S    
Cu2   O8    S    
C15   H5    S    
C5    C7    T    
C14   H1    S    
C6    C12   S    
C22   O2    S    
C3    C21   T    
Cu2   O3    S    
C1    O1    A    
C4    C20   T    
Cu2   O7    S    
C15   H6    S    
C8    C10   S    
C11   C16   S    
C12   O5    A    
C7    C9    S    
C18   O8    A    
C18   C21   S    
C6    C8    T    
C15   O2    S    
Cu1   O5    S    
C19   O9    A    
C1    O4    A    
C16   C17   T    
Cu1   O1    S    
