data_mof_unit_67683.cif
_audit_creation_date              2012-12-10T19:48:29-0500
_audit_creation_method            fapswitch 2.2
_symmetry_space_group_name_H-M    P1
_symmetry_Int_Tables_number       1
_space_group_crystal_system       triclinic
_cell_length_a                    11.43184
_cell_length_b                    10.872939
_cell_length_c                    9.680869
_cell_angle_alpha                 90.088135
_cell_angle_beta                  90.942747
_cell_angle_gamma                 90.83562
_cell_volume                      1203.01699848

loop_
_atom_site_label
_atom_site_type_symbol
_atom_type_description
_atom_site_fract_x
_atom_site_fract_y
_atom_site_fract_z
_atom_type_partial_charge
C1    C     C_R   0.497902 0.260270 0.499046 0.903810
C2    C     C_R   0.500737 0.739809 0.500804 0.907813
C3    C     C_R   0.872182 0.501436 0.504387 -0.226553
C4    C     C_R   0.128068 0.493947 0.495867 -0.211270
C5    C     C_R   0.945648 0.590265 0.573022 -0.091723
C6    C     C_R   0.054623 0.405990 0.424993 -0.061194
C7    C     C_3   0.595063 0.046932 0.559692 0.409441
C8    C     C_3   0.401289 0.953429 0.439696 0.424004
C9    C     C_3   0.591514 0.961257 0.432150 -0.187535
C10   C     C_3   0.405351 0.039192 0.566993 -0.208033
C11   C     C_3   0.500800 0.877160 0.503473 -0.190975
C12   C     C_3   0.495900 0.122955 0.495837 -0.176367
C13   C     C_3   0.504385 0.963226 0.631402 -0.171597
C14   C     C_3   0.492104 0.037251 0.367907 -0.187295
C15   C     C_3   0.488463 0.607936 0.048230 -0.203067
C16   C     C_3   0.511643 0.392117 0.952204 -0.196812
C17   C     C_3   0.403346 0.542998 0.946791 0.495122
C18   C     C_3   0.596439 0.458111 0.052834 0.433578
C19   C     C_3   0.584264 0.567136 0.949036 0.341251
C20   C     C_3   0.415405 0.433586 0.050727 0.388938
C21   C     C_R   0.262712 0.493858 0.498216 0.916723
C22   C     C_R   0.737453 0.503806 0.501710 0.912291
C23   C     C_R   0.102647 0.359457 0.048780 0.476375
C24   C     C_R   0.891354 0.668682 0.940867 0.409041
C25   C     C_R   0.100811 0.417801 0.178416 -0.091404
C26   C     C_R   0.894300 0.599755 0.817433 -0.028379
C27   C     C_R   0.093967 0.345466 0.298530 -0.095432
C28   C     C_R   0.903314 0.661213 0.690448 -0.083147
C29   C     C_R   0.094434 0.216426 0.289920 0.543459
C30   C     C_R   0.905358 0.789863 0.684532 0.500054
C31   C     C_R   0.095879 0.157024 0.159890 -0.156148
C32   C     C_R   0.902659 0.859674 0.807653 -0.106530
C33   C     C_R   0.102061 0.229718 0.038754 -0.159176
C34   C     C_R   0.889161 0.798436 0.935552 -0.141948
C35   C     C_R   0.930266 0.405264 0.439086 0.414638
C36   C     C_R   0.070099 0.589351 0.562162 0.405225
Cu1   Cu    Cu3+1 0.500030 0.499990 0.643150 1.122053
Cu2   Cu    Cu3+1 0.499970 0.500010 0.356850 1.122583
N1    N     N_3   0.500090 0.499970 0.858290 -0.282081
N2    N     N_3   0.499910 0.500030 0.141710 -0.281057
O1    O     O_R   0.500060 0.316850 0.620870 -0.567751
O2    O     O_R   0.499940 0.683150 0.379130 -0.569455
O3    O     O_R   0.500000 0.316860 0.379090 -0.552132
O4    O     O_R   0.500000 0.683140 0.620910 -0.547334
O5    O     O_R   0.319670 0.500010 0.620890 -0.477544
O6    O     O_R   0.680330 0.499990 0.379110 -0.481920
O7    O     O_R   0.319620 0.500010 0.379110 -0.566262
O8    O     O_R   0.680380 0.499990 0.620890 -0.570674
C37   C     C_2   0.124244 0.172038 0.903433 0.512867
H1    H     H_    0.174906 0.089178 0.896800 0.051595
O9    O     O_2   0.087092 0.217598 0.796732 -0.421294
C38   C     C_2   0.854104 0.865667 0.061234 0.428707
H2    H     H_    0.881209 0.832926 0.161993 0.199958
O10   O     O_2   0.787452 0.952216 0.054317 -0.528817
Cl1   Cl    Cl    0.305286 0.650534 0.873223 -0.415203
Cl2   Cl    Cl    0.703420 0.360213 0.126767 -0.453512
C39   C     C_2   0.480570 0.736295 0.104210 0.624353
H3    H     H_    0.559599 0.787036 0.132386 0.115971
O11   O     O_2   0.385842 0.783880 0.118913 -0.423259
C40   C     C_2   0.530005 0.265255 0.896942 0.617493
H4    H     H_    0.615498 0.239887 0.861089 0.154807
O12   O     O_2   0.449433 0.190738 0.891129 -0.497980
Cl3   Cl    Cl    0.649143 0.693636 0.866545 -0.611814
Cl4   Cl    Cl    0.343791 0.311271 0.133306 -0.589456
Cl5   Cl    Cl    0.129583 0.447787 0.901266 -0.528258
Cl6   Cl    Cl    0.862441 0.594491 0.098455 -0.589579
C41   C     C_2   0.111374 0.554307 0.191952 0.563454
H5    H     H_    0.059013 0.603345 0.265594 0.107648
O13   O     O_2   0.182273 0.613565 0.126487 -0.421423
C42   C     C_2   0.880169 0.463442 0.815295 0.563209
H6    H     H_    0.934343 0.407528 0.750205 0.135408
O14   O     O_2   0.801432 0.412169 0.875537 -0.489117
Cl7   Cl    Cl    0.089921 0.132501 0.445480 -0.362093
Cl8   Cl    Cl    0.921139 0.858647 0.520049 -0.401014
C43   C     C_2   0.087713 0.020277 0.149390 0.523065
H7    H     H_    0.114886 0.971583 0.058250 0.040354
O15   O     O_2   0.046233 0.958584 0.241863 -0.423599
C44   C     C_2   0.922448 0.994680 0.805486 0.548925
H8    H     H_    0.912732 0.050313 0.897012 0.088278
O16   O     O_2   0.954775 0.046860 0.701537 -0.366164
Cl9   Cl    Cl    0.846238 0.276401 0.382796 -0.473882
Cl10  Cl    Cl    0.154649 0.717444 0.620104 -0.494889
C45   C     C_2   0.695591 0.921667 0.354178 0.500783
H9    H     H_    0.757117 0.990446 0.317359 0.177733
O17   O     O_2   0.712282 0.812809 0.332778 -0.535238
C46   C     C_2   0.301741 0.081285 0.643522 0.582365
H10   H     H_    0.240839 0.014089 0.684970 0.115150
O18   O     O_2   0.284907 0.190949 0.657979 -0.465743
Cl11  Cl    Cl    0.719144 0.119508 0.636816 -0.499422
Cl12  Cl    Cl    0.271837 0.886270 0.367856 -0.404271
C47   C     C_2   0.505444 0.928418 0.780710 0.579463
H11   H     H_    0.435208 0.871820 0.820840 0.118250
O19   O     O_2   0.583447 0.965379 0.858287 -0.453614
C48   C     C_2   0.490654 0.073844 0.219104 0.566180
H12   H     H_    0.561386 0.130110 0.179162 0.121544
O20   O     O_2   0.411193 0.039736 0.142023 -0.443527

loop_
_geom_bond_atom_site_label_1
_geom_bond_atom_site_label_2
_ccdc_geom_bond_type
C22   O8    A    
C4    C36   A    
C27   C29   A    
C25   C41   S    
C9    C14   S    
C35   Cl9   S    
C15   C19   S    
Cu2   N2    S    
C24   C26   A    
Cu2   O2    S    
C16   C40   S    
C30   Cl8   S    
C44   O16   D    
C39   O11   D    
C29   Cl7   S    
C33   C37   S    
C7    Cl11  S    
C5    C36   A    
C17   C20   S    
C6    C35   A    
C40   O12   D    
C18   C19   S    
C17   N1    S    
C18   N2    S    
C1    O3    A    
C2    O4    A    
C45   H9    S    
C19   Cl3   S    
C37   O9    D    
C31   C33   A    
C42   H6    S    
C17   Cl1   S    
C18   Cl2   S    
C13   C47   S    
C29   C31   A    
C15   C39   S    
C1    C12   S    
C2    C11   S    
C10   C12   S    
C38   O10   D    
C21   O5    A    
C7    C12   S    
C41   H5    S    
C4    C6    A    
C36   Cl10  S    
C47   H11   S    
C44   H8    S    
C23   C33   A    
C24   C34   A    
C40   H4    S    
C41   O13   D    
C32   C34   A    
C20   Cl4   S    
C43   H7    S    
Cu1   Cu2   S    
C47   O19   D    
C5    C28   S    
C43   O15   D    
C31   C43   S    
C6    C27   S    
C3    C35   A    
C16   C20   S    
C16   C18   S    
Cu1   O8    S    
C48   O20   D    
C9    C11   S    
Cu2   O7    S    
C19   N1    S    
C9    C45   S    
C1    O1    A    
C22   O6    A    
C12   C14   S    
C26   C42   S    
C8    Cl12  S    
Cu1   O5    S    
C38   H2    S    
C15   C17   S    
C10   C46   S    
C8    C14   S    
C45   O17   D    
C46   H10   S    
C34   C38   S    
C3    C5    A    
C10   C13   S    
C24   Cl6   S    
C25   C27   A    
C26   C28   A    
C23   Cl5   S    
Cu1   O4    S    
C28   C30   A    
Cu2   O3    S    
Cu1   N1    S    
C30   C32   A    
C4    C21   S    
C11   C13   S    
C39   H3    S    
C2    O2    A    
C8    C11   S    
C20   N2    S    
C46   O18   D    
C23   C25   A    
Cu1   O1    S    
C48   H12   S    
C15   N2    S    
Cu2   O6    S    
C16   N1    S    
C32   C44   S    
C7    C9    S    
C7    C13   S    
C8    C10   S    
C37   H1    S    
C3    C22   S    
C42   O14   D    
C14   C48   S    
C21   O7    A    
