data_mof_unit_28188.cif
_audit_creation_date              2012-12-10T17:02:29-0500
_audit_creation_method            fapswitch 2.2
_symmetry_space_group_name_H-M    P1
_symmetry_Int_Tables_number       1
_space_group_crystal_system       triclinic
_cell_length_a                    10.787083
_cell_length_b                    10.768198
_cell_length_c                    9.796602
_cell_angle_alpha                 108.575954
_cell_angle_beta                  101.308723
_cell_angle_gamma                 90.092759
_cell_volume                      1055.20406111

loop_
_atom_site_label
_atom_site_type_symbol
_atom_type_description
_atom_site_fract_x
_atom_site_fract_y
_atom_site_fract_z
_atom_type_partial_charge
C1    C     C_R   0.495235 0.253352 0.444067 0.846585
C2    C     C_R   0.514717 0.746744 0.555964 0.868997
C3    C     C_2   0.503133 0.113194 0.421743 -0.442859
C4    C     C_2   0.537233 0.886622 0.577827 -0.404364
C5    C     C_2   0.598412 0.067085 0.499600 0.230770
C6    C     C_2   0.590255 0.926772 0.483478 0.275743
C7    C     C_2   0.510803 0.510771 0.081472 -0.040005
C8    C     C_2   0.490507 0.487665 0.918152 -0.042425
C9    C     C_R   0.261711 0.511826 0.498073 0.803134
C10   C     C_R   0.738844 0.490784 0.502670 0.771961
C11   C     C_R   0.161599 0.698036 0.732251 -0.135221
C12   C     C_R   0.842207 0.309519 0.268745 -0.126093
C13   C     C_R   0.127799 0.753858 0.867352 -0.146039
C14   C     C_R   0.876455 0.257147 0.133193 -0.151730
C15   C     C_R   0.023326 0.700015 0.897047 -0.173882
C16   C     C_R   0.978817 0.315648 0.104259 -0.168967
C17   C     C_R   0.946730 0.596457 0.787998 0.017749
C18   C     C_R   0.053614 0.419262 0.214872 0.022366
C19   C     C_R   0.966248 0.556123 0.640282 0.024038
C20   C     C_R   0.034501 0.454646 0.362053 0.022372
C21   C     C_R   0.084715 0.594378 0.620347 0.063137
C22   C     C_R   0.917165 0.414041 0.381707 0.063344
C23   C     C_R   0.876512 0.478341 0.512881 -0.216726
C24   C     C_R   0.124808 0.529127 0.489321 -0.213062
Cu1   Cu    Cu3+1 0.521920 0.521810 0.644910 0.947229
Cu2   Cu    Cu3+1 0.478080 0.478190 0.355090 0.960100
H1    H     H_    0.996568 0.284293 0.993754 0.133315
H2    H     H_    0.006537 0.734112 0.008167 0.143580
H3    H     H_    0.247193 0.737667 0.714557 0.135312
H4    H     H_    0.758034 0.266643 0.285868 0.137463
H5    H     H_    0.187461 0.833128 0.952413 0.142225
H6    H     H_    0.818845 0.176638 0.047783 0.137007
H7    H     H_    0.509824 0.958300 0.671500 0.120984
H8    H     H_    0.425704 0.046529 0.345602 0.131638
H9    H     H_    0.419385 0.412335 0.844198 0.159797
H10   H     H_    0.583313 0.584563 0.155031 0.179918
H11   H     H_    0.620605 0.626632 0.935701 0.194473
H12   H     H_    0.377340 0.375382 0.064695 0.191806
N1    N     N_2   0.445130 0.445420 0.137360 -0.276153
N2    N     N_2   0.554870 0.554580 0.862640 -0.272470
O1    O     O_R   0.511700 0.332340 0.577400 -0.558452
O2    O     O_R   0.488300 0.667660 0.422600 -0.528336
O3    O     O_R   0.474680 0.295500 0.332650 -0.575833
O4    O     O_R   0.525320 0.704500 0.667350 -0.589197
O5    O     O_R   0.338170 0.518410 0.622370 -0.571576
O6    O     O_R   0.661830 0.481590 0.377630 -0.565689
O7    O     O_R   0.301150 0.481570 0.377630 -0.570191
O8    O     O_R   0.698850 0.518430 0.622370 -0.573505
C25   C     C_1   0.874986 0.515174 0.841246 0.256114
N3    N     N_1   0.818194 0.450583 0.885249 -0.303699
C26   C     C_1   0.125155 0.505080 0.166751 0.252701
N4    N     N_1   0.182099 0.573988 0.128156 -0.293270
N5    N     N_2   0.640820 0.836892 0.369270 -0.411797
H13   H     H_    0.635212 0.866118 0.277793 0.236902
C27   C     C_3   0.766448 0.799500 0.417761 -0.656830
H14   H     H_    0.793662 0.720847 0.325825 0.218259
H15   H     H_    0.769017 0.761525 0.511124 0.223154
H16   H     H_    0.836427 0.885261 0.452607 0.227673
N6    N     N_2   0.714072 0.144473 0.577613 -0.417338
H17   H     H_    0.724503 0.237507 0.571473 0.259507
C28   C     C_3   0.769593 0.132327 0.719131 -0.655088
H18   H     H_    0.862691 0.189115 0.761753 0.223225
H19   H     H_    0.786421 0.028507 0.709489 0.224419
H20   H     H_    0.706416 0.171275 0.797687 0.233799

loop_
_geom_bond_atom_site_label_1
_geom_bond_atom_site_label_2
_ccdc_geom_bond_type
Cu2   O3    S    
C28   H20   S    
C19   C23   A    
C27   H14   S    
C9    C24   S    
C9    O5    A    
C19   C21   A    
Cu1   O5    S    
C10   C23   S    
C7    H10   S    
C2    C4    S    
C11   C21   A    
C16   H1    S    
N5    C27   S    
C12   C14   A    
C21   C24   A    
N6    H17   S    
C27   H15   S    
N5    H13   S    
C11   C13   A    
Cu1   O8    S    
C11   H3    S    
C15   H2    S    
C28   H18   S    
Cu2   O7    S    
C2    O2    A    
Cu1   O4    S    
C1    O1    A    
C17   C19   A    
C20   C22   A    
C18   C26   S    
C9    O7    A    
H11   N2    S    
C18   C20   A    
C13   C15   A    
Cu1   N2    S    
C10   O8    A    
C5    C6    S    
C14   C16   A    
Cu2   N1    S    
N6    C28   S    
C4    C6    D    
C5    N6    S    
C6    N5    S    
Cu1   O1    S    
C26   N4    T    
C12   C22   A    
C10   O6    A    
C7    C8    S    
C14   H6    S    
Cu2   O2    S    
C16   C18   A    
C25   N3    T    
C27   H16   S    
C17   C25   S    
C1    C3    S    
C15   C17   A    
C13   H5    S    
C4    H7    S    
C7    N1    D    
C8    N2    D    
C3    H8    S    
C12   H4    S    
Cu1   Cu2   S    
C22   C23   A    
Cu2   O6    S    
C1    O3    A    
C28   H19   S    
C20   C24   A    
C2    O4    A    
C3    C5    D    
C8    H9    S    
H12   N1    S    
