data_mof_unit_55552.cif
_audit_creation_date              2012-12-11T14:54:28-0500
_audit_creation_method            fapswitch 2.2
_symmetry_space_group_name_H-M    P1
_symmetry_Int_Tables_number       1
_space_group_crystal_system       triclinic
_cell_length_a                    19.042172
_cell_length_b                    11.237335
_cell_length_c                    18.79424
_cell_angle_alpha                 90.135532
_cell_angle_beta                  89.953429
_cell_angle_gamma                 88.135412
_cell_volume                      4019.5106191

loop_
_atom_site_label
_atom_site_type_symbol
_atom_type_description
_atom_site_fract_x
_atom_site_fract_y
_atom_site_fract_z
_atom_type_partial_charge
C1    C     C_R   0.715857 0.345158 0.637871 0.567894
C2    C     C_R   0.268803 0.379916 0.351655 0.546320
C3    C     C_R   0.228901 0.877669 0.646390 0.578517
C4    C     C_R   0.770474 0.871282 0.355227 0.606386
C5    C     C_3   0.451824 0.377150 0.467546 -0.037655
C6    C     C_3   0.471669 0.373924 0.545754 -0.082210
C7    C     C_3   0.009278 0.876261 0.467751 -0.071900
C8    C     C_3   0.007068 0.875678 0.549146 -0.073270
C9    C     C_R   0.727224 0.834250 0.546452 0.114715
C10   C     C_R   0.307670 0.889167 0.467466 0.119528
C11   C     C_R   0.244187 0.373982 0.544799 0.147691
C12   C     C_R   0.807062 0.376717 0.463144 0.075409
C13   C     C_R   0.730721 0.810901 0.473722 -0.150529
C14   C     C_R   0.300586 0.873255 0.540274 -0.117545
C15   C     C_R   0.257563 0.342013 0.475194 -0.152910
C16   C     C_R   0.793348 0.353046 0.534728 -0.147876
C17   C     C_R   0.747909 0.902176 0.426993 0.059454
C18   C     C_R   0.245181 0.928234 0.578039 0.044015
C19   C     C_R   0.250319 0.425237 0.421222 0.067933
C20   C     C_R   0.729391 0.389496 0.567624 0.035872
C21   C     C_R   0.754370 0.017375 0.452479 0.149279
C22   C     C_R   0.197071 0.009678 0.542856 0.137631
C23   C     C_R   0.238285 0.547416 0.437664 0.159204
C24   C     C_R   0.676794 0.457116 0.528824 0.124904
C25   C     C_R   0.749734 0.039540 0.524870 -0.149935
C26   C     C_R   0.213706 0.041607 0.474002 -0.144053
C27   C     C_R   0.233688 0.580020 0.510567 -0.158810
C28   C     C_R   0.688676 0.466639 0.457102 -0.106723
C29   C     C_R   0.743897 0.945970 0.571867 0.050306
C30   C     C_R   0.265823 0.980259 0.434949 0.025164
C31   C     C_R   0.237420 0.493083 0.564086 0.037656
C32   C     C_R   0.751159 0.428560 0.423747 0.025503
C33   C     C_R   0.544979 0.044580 0.977806 -0.000589
C34   C     C_R   0.536175 0.050983 0.051700 0.049087
C35   C     C_R   0.984247 0.554908 0.957916 0.001631
C36   C     C_R   0.993386 0.548834 0.031498 0.013564
C37   C     C_R   0.509476 0.158863 0.082115 0.036310
C38   C     C_R   0.540992 0.152022 0.936824 -0.047137
C39   C     C_R   0.990267 0.656950 0.071366 0.019864
C40   C     C_R   0.997101 0.663411 0.922693 -0.005930
C41   C     C_R   0.506243 0.263342 0.041743 -0.121060
C42   C     C_R   0.524140 0.260442 0.970366 -0.168018
C43   C     C_R   0.990628 0.766403 0.035427 -0.139986
C44   C     C_R   0.997536 0.769350 0.961827 -0.153383
C45   C     C_R   0.529941 0.154486 0.647626 0.574682
C46   C     C_R   0.462153 0.153300 0.356158 0.604662
C47   C     C_R   0.030581 0.655010 0.647514 0.567124
C48   C     C_R   0.965390 0.653431 0.355059 0.598081
C49   C     C_R   0.769233 0.862789 0.951184 0.177141
C50   C     C_R   0.176236 0.935545 0.045451 0.173946
C51   C     C_R   0.266967 0.369057 0.951271 0.143420
C52   C     C_R   0.676845 0.435787 0.045191 0.171087
C53   C     C_R   0.775930 0.832657 0.022817 -0.094951
C54   C     C_R   0.169753 0.907431 0.974070 -0.118863
C55   C     C_R   0.275072 0.337333 0.022380 -0.134547
C56   C     C_R   0.672835 0.414710 0.973096 -0.125388
C57   C     C_R   0.753413 0.911988 0.076431 0.014680
C58   C     C_R   0.225659 0.854704 0.936117 -0.053405
C59   C     C_R   0.250129 0.413278 0.076690 0.018176
C60   C     C_R   0.727672 0.356436 0.936124 -0.061575
C61   C     C_R   0.723634 0.024377 0.059869 0.074024
C62   C     C_R   0.287639 0.815919 0.973157 0.018164
C63   C     C_R   0.211520 0.518965 0.060345 0.071179
C64   C     C_R   0.787460 0.310178 0.975073 0.025657
C65   C     C_R   0.713574 0.052064 0.988078 -0.138978
C66   C     C_R   0.294217 0.844718 0.044843 -0.145656
C67   C     C_R   0.204551 0.550961 0.988472 -0.153238
C68   C     C_R   0.793432 0.342025 0.046496 -0.132342
C69   C     C_R   0.737950 0.974693 0.934267 0.067758
C70   C     C_R   0.241088 0.910002 0.080002 0.046189
C71   C     C_R   0.234367 0.479008 0.934715 0.064062
C72   C     C_R   0.740893 0.409526 0.080615 0.029635
C73   C     C_R   0.740319 0.975166 0.646359 0.595918
C74   C     C_R   0.271223 0.013677 0.360507 0.540852
C75   C     C_R   0.227255 0.522367 0.640192 0.566639
C76   C     C_R   0.759601 0.471514 0.352719 0.570418
C77   C     C_R   0.713373 0.335007 0.860603 0.525306
C78   C     C_R   0.269436 0.378308 0.148505 0.585239
C79   C     C_R   0.212696 0.834144 0.860378 0.530950
C80   C     C_R   0.770405 0.876867 0.148121 0.607899
C81   C     C_R   0.559055 0.151440 0.860763 0.511054
C82   C     C_R   0.470020 0.155235 0.148807 0.571930
C83   C     C_R   0.030709 0.657463 0.852232 0.549062
C84   C     C_R   0.966322 0.654767 0.145738 0.564301
C85   C     C_R   0.729101 0.014660 0.861498 0.493520
C86   C     C_R   0.257324 0.968275 0.147224 0.560782
C87   C     C_R   0.227866 0.517807 0.861337 0.545702
C88   C     C_R   0.757119 0.467773 0.147632 0.545717
C89   C     C_R   0.476499 0.156288 0.432218 0.019641
C90   C     C_R   0.488271 0.151258 0.580687 -0.000438
C91   C     C_R   0.987336 0.657228 0.430013 0.018022
C92   C     C_R   0.990969 0.657224 0.579796 0.009886
C93   C     C_R   0.443454 0.245743 0.473445 -0.086541
C94   C     C_R   0.454532 0.247525 0.546814 -0.036382
C95   C     C_R   0.971000 0.761063 0.468640 -0.056904
C96   C     C_R   0.975197 0.760123 0.542367 -0.021693
C97   C     C_R   0.492517 0.044389 0.540802 -0.007141
C98   C     C_R   0.504761 0.054317 0.466954 -0.010200
C99   C     C_R   0.985929 0.549447 0.542622 0.001170
C100  C     C_R   0.999556 0.549108 0.468086 0.007908
Cr1   Cr    Cr6+3 0.771950 0.169480 0.750100 1.090468
Cr2   Cr    Cr6+3 0.228050 0.169480 0.249900 1.055142
Cr3   Cr    Cr6+3 0.271950 0.669480 0.750100 1.087935
Cr4   Cr    Cr6+3 0.728050 0.669480 0.249900 1.012164
Cr5   Cr    Cr6+3 0.614930 0.323340 0.749170 1.000530
Cr6   Cr    Cr6+3 0.385070 0.323340 0.250830 1.042540
Cr7   Cr    Cr6+3 0.114930 0.823340 0.749170 1.005814
Cr8   Cr    Cr6+3 0.885070 0.823340 0.250830 1.057868
Cr9   Cr    Cr6+3 0.616590 0.010620 0.750610 1.057878
Cr10  Cr    Cr6+3 0.383410 0.010620 0.249390 1.025883
Cr11  Cr    Cr6+3 0.116590 0.510620 0.750610 1.054064
Cr12  Cr    Cr6+3 0.883410 0.510620 0.249390 1.034985
H1    H     H_    0.802088 0.749107 0.037389 0.107913
H2    H     H_    0.120387 0.927042 0.947614 0.138310
H3    H     H_    0.302102 0.253740 0.035459 0.109522
H4    H     H_    0.624463 0.440098 0.946258 0.142330
H5    H     H_    0.688245 0.135958 0.973615 0.089143
H6    H     H_    0.342893 0.821747 0.072270 0.172761
H7    H     H_    0.175020 0.631219 0.973900 0.108796
H8    H     H_    0.839579 0.313820 0.076290 0.212015
H9    H     H_    0.982336 0.951950 0.442275 0.118468
H10   H     H_    0.058572 0.866616 0.574864 0.194865
H11   H     H_    0.400699 0.423695 0.456185 0.165151
H12   H     H_    0.527800 0.374055 0.556041 0.148265
H13   H     H_    0.720473 0.722385 0.454176 0.127708
H14   H     H_    0.331686 0.802645 0.564945 0.154802
H15   H     H_    0.267614 0.249353 0.462462 0.093998
H16   H     H_    0.833333 0.305202 0.565099 0.155873
H17   H     H_    0.759049 0.127818 0.544724 0.107022
H18   H     H_    0.179527 0.107054 0.447846 0.133953
H19   H     H_    0.223692 0.671746 0.525655 0.137723
H20   H     H_    0.648484 0.514072 0.426970 0.171800
H21   H     H_    0.486262 0.346525 0.064315 0.160956
H22   H     H_    0.519667 0.342294 0.940271 0.134662
H23   H     H_    0.985800 0.849713 0.064251 0.146365
H24   H     H_    0.004149 0.853892 0.935617 0.133011
O1    O     O_R   0.787510 0.042610 0.670410 -0.499571
O2    O     O_R   0.212490 0.042610 0.329590 -0.512474
O3    O     O_R   0.287510 0.542610 0.670410 -0.465589
O4    O     O_R   0.712490 0.542610 0.329590 -0.546855
O5    O     O_R   0.556450 0.252890 0.823790 -0.516236
O6    O     O_R   0.443550 0.252890 0.176210 -0.505009
O7    O     O_R   0.056450 0.752890 0.823790 -0.522289
O8    O     O_R   0.943550 0.752890 0.176210 -0.510749
O9    O     O_R   0.545750 0.051070 0.830560 -0.449520
O10   O     O_R   0.454250 0.051070 0.169440 -0.482823
O11   O     O_R   0.045750 0.551070 0.830560 -0.483381
O12   O     O_R   0.954250 0.551070 0.169440 -0.484495
O13   O     O_R   0.681210 0.959150 0.825320 -0.493414
O14   O     O_R   0.318790 0.959150 0.174680 -0.515965
O15   O     O_R   0.181210 0.459150 0.825320 -0.463925
O16   O     O_R   0.818790 0.459150 0.174680 -0.508786
O17   O     O_3   0.667820 0.167810 0.749960 -0.348715
O18   O     O_3   0.332180 0.167810 0.250040 -0.305523
O19   O     O_3   0.167820 0.667810 0.749960 -0.349768
O20   O     O_3   0.832180 0.667810 0.250040 -0.288346
O21   O     O_R   0.765670 0.292090 0.675090 -0.486479
O22   O     O_R   0.234330 0.292090 0.324910 -0.501741
O23   O     O_R   0.265670 0.792090 0.675090 -0.520091
O24   O     O_R   0.734330 0.792090 0.324910 -0.518157
O25   O     O_R   0.670220 0.409020 0.668560 -0.515957
O26   O     O_R   0.329780 0.409020 0.331440 -0.537633
O27   O     O_R   0.170220 0.909020 0.668560 -0.519575
O28   O     O_R   0.829780 0.909020 0.331440 -0.491760
O29   O     O_R   0.556580 0.251590 0.674980 -0.513087
O30   O     O_R   0.443420 0.251590 0.325020 -0.472704
O31   O     O_R   0.056580 0.751590 0.674980 -0.507716
O32   O     O_R   0.943420 0.751590 0.325020 -0.488584
O33   O     O_R   0.545890 0.049670 0.670030 -0.488727
O34   O     O_R   0.454110 0.049670 0.329970 -0.534072
O35   O     O_R   0.045890 0.549670 0.670030 -0.507241
O36   O     O_R   0.954110 0.549670 0.329970 -0.508561
O37   O     O_R   0.681340 0.957860 0.676500 -0.501092
O38   O     O_R   0.318660 0.957860 0.323500 -0.506600
O39   O     O_R   0.181340 0.457860 0.676500 -0.474341
O40   O     O_R   0.818660 0.457860 0.323500 -0.504026
O41   O     O_R   0.787380 0.044010 0.830940 -0.485683
O42   O     O_R   0.212620 0.044010 0.169060 -0.478123
O43   O     O_R   0.287380 0.544010 0.830940 -0.476625
O44   O     O_R   0.712620 0.544010 0.169060 -0.525733
O45   O     O_R   0.765540 0.293390 0.823910 -0.420734
O46   O     O_R   0.234460 0.293390 0.176090 -0.474380
O47   O     O_R   0.265540 0.793390 0.823910 -0.452523
O48   O     O_R   0.734460 0.793390 0.176090 -0.508141
O49   O     O_R   0.670090 0.410410 0.829090 -0.527889
O50   O     O_R   0.329910 0.410410 0.170910 -0.517603
O51   O     O_R   0.170090 0.910410 0.829090 -0.515480
O52   O     O_R   0.829910 0.910410 0.170910 -0.473218
C101  C     C_2   0.464652 0.934320 0.572875 0.560650
O53   O     O_2   0.433835 0.939365 0.630073 -0.493092
O54   O     O_R   0.470141 0.826175 0.537338 -0.714056
H25   H     H_    0.454071 0.758178 0.567486 0.337757
C102  C     C_2   0.557825 0.976776 0.428776 0.576783
O55   O     O_2   0.596528 0.021483 0.385001 -0.481609
O56   O     O_R   0.563223 0.854512 0.440363 -0.711696
H26   H     H_    0.598079 0.812494 0.407309 0.334174
C103  C     C_2   0.955107 0.450705 0.583218 0.578351
O57   O     O_2   0.906028 0.473777 0.623643 -0.492838
O58   O     O_R   0.983848 0.335751 0.581288 -0.707435
H27   H     H_    0.963373 0.285259 0.620141 0.333149
C104  C     C_2   0.041757 0.451540 0.432496 0.576602
O59   O     O_2   0.082792 0.476456 0.385059 -0.487956
O60   O     O_R   0.036221 0.333000 0.452032 -0.716546
H28   H     H_    0.066984 0.277189 0.421958 0.324593
N1    N     N_2   0.796994 0.783516 0.897700 -0.510940
H29   H     H_    0.801958 0.818242 0.847368 0.291055
C105  C     C_3   0.770181 0.664349 0.897292 -0.254742
H30   H     H_    0.795846 0.611567 0.853922 0.206100
H31   H     H_    0.712627 0.667710 0.887757 0.155577
H32   H     H_    0.781878 0.617850 0.948130 0.150139
N2    N     N_2   0.117492 0.986247 0.083442 -0.492535
H33   H     H_    0.091792 0.927726 0.115702 0.281396
C106  C     C_3   0.073597 0.076853 0.049235 -0.263466
H34   H     H_    0.040599 0.123276 0.090029 0.180201
H35   H     H_    0.038054 0.036246 0.009978 0.125215
H36   H     H_    0.106539 0.143537 0.022706 0.186482
N3    N     N_2   0.288550 0.288569 0.896370 -0.482061
H37   H     H_    0.266955 0.206039 0.901744 0.260276
C107  C     C_3   0.363591 0.279058 0.885429 -0.242708
H38   H     H_    0.375090 0.225663 0.836774 0.193478
H39   H     H_    0.388853 0.233430 0.931474 0.130895
H40   H     H_    0.385701 0.368615 0.878454 0.183862
N4    N     N_2   0.614156 0.472436 0.081895 -0.511842
H41   H     H_    0.609768 0.446098 0.134177 0.291437
C108  C     C_3   0.586393 0.590803 0.066345 -0.252752
H42   H     H_    0.538240 0.608745 0.098477 0.181456
H43   H     H_    0.571783 0.598397 0.009379 0.151538
H44   H     H_    0.625695 0.658366 0.079559 0.203646
C109  C     C_2   0.703839 0.114062 0.115532 0.605276
O61   O     O_2   0.660259 0.192777 0.102179 -0.542881
O62   O     O_R   0.734796 0.110224 0.182965 -0.658228
H45   H     H_    0.716772 0.176861 0.215291 0.347196
C110  C     C_2   0.347215 0.746160 0.941522 0.612159
O63   O     O_2   0.379550 0.784914 0.890945 -0.420061
O64   O     O_R   0.369710 0.639420 0.973568 -0.710545
H46   H     H_    0.411638 0.600419 0.948448 0.335389
C111  C     C_2   0.175493 0.593305 0.115890 0.589869
O65   O     O_2   0.152993 0.693275 0.101408 -0.562762
O66   O     O_R   0.163188 0.547310 0.183569 -0.673552
H47   H     H_    0.135131 0.604891 0.215031 0.353115
C112  C     C_2   0.842553 0.222389 0.949343 0.612433
O67   O     O_2   0.868807 0.229140 0.890432 -0.449958
O68   O     O_R   0.867775 0.133924 0.995969 -0.703527
H48   H     H_    0.905245 0.079564 0.973649 0.333327
C113  C     C_2   0.509379 0.416208 0.418530 0.573419
O69   O     O_2   0.562809 0.354394 0.410294 -0.523619
O70   O     O_R   0.499979 0.522397 0.380735 -0.719095
H49   H     H_    0.541210 0.539114 0.348522 0.328490
C114  C     C_2   0.426307 0.451921 0.592540 0.553692
O71   O     O_2   0.417330 0.425385 0.654863 -0.474057
O72   O     O_R   0.399910 0.560094 0.565783 -0.744928
H50   H     H_    0.381380 0.615417 0.604352 0.341665
C115  C     C_2   0.080874 0.857603 0.435499 0.556487
O73   O     O_2   0.128435 0.812250 0.470504 -0.574869
O74   O     O_R   0.090868 0.885103 0.363851 -0.676044
H51   H     H_    0.139025 0.858742 0.345867 0.352383
C116  C     C_2   0.955499 0.958808 0.586648 0.526691
O75   O     O_2   0.922751 0.923750 0.638188 -0.479365
O76   O     O_R   0.947950 0.076933 0.565931 -0.751341
H52   H     H_    0.908353 0.119671 0.592716 0.335132
N5    N     N_2   0.689108 0.760073 0.590897 -0.513940
H53   H     H_    0.699826 0.671045 0.582656 0.280920
C117  C     C_3   0.615378 0.796410 0.590820 -0.220449
H54   H     H_    0.588206 0.745359 0.549816 0.213517
H55   H     H_    0.606672 0.891787 0.576911 0.195396
H56   H     H_    0.592354 0.785600 0.644517 0.158903
N6    N     N_2   0.340443 0.793820 0.427562 -0.527749
H57   H     H_    0.337844 0.712110 0.451981 0.274029
C118  C     C_3   0.409274 0.808729 0.397632 -0.178951
H58   H     H_    0.446845 0.739797 0.418515 0.229259
H59   H     H_    0.427833 0.897127 0.410723 0.212194
H60   H     H_    0.407577 0.796577 0.339097 0.157289
N7    N     N_2   0.207823 0.293774 0.586278 -0.505036
H61   H     H_    0.227435 0.207925 0.586535 0.261805
C119  C     C_3   0.132861 0.313373 0.575975 -0.210290
H62   H     H_    0.113906 0.249273 0.537148 0.197124
H63   H     H_    0.118048 0.402646 0.554258 0.180839
H64   H     H_    0.106321 0.312682 0.628218 0.196461
N8    N     N_2   0.878629 0.364744 0.437323 -0.491548
H65   H     H_    0.913016 0.345940 0.477337 0.313528
C120  C     C_3   0.901272 0.299739 0.373106 -0.222256
H66   H     H_    0.944931 0.235720 0.384828 0.128305
H67   H     H_    0.927080 0.356925 0.334840 0.217670
H68   H     H_    0.857586 0.257310 0.344989 0.159120
N9    N     N_2   0.794655 0.093991 0.412735 -0.498005
H69   H     H_    0.775967 0.180371 0.413883 0.263146
C121  C     C_3   0.867789 0.072802 0.430822 -0.273667
H70   H     H_    0.884552 0.142801 0.467272 0.192894
H71   H     H_    0.899681 0.065309 0.381642 0.168951
H72   H     H_    0.876439 0.987338 0.459663 0.168261
N10   N     N_2   0.125030 0.037089 0.564265 -0.509627
H73   H     H_    0.091160 0.057167 0.522870 0.265417
C122  C     C_3   0.098955 0.085016 0.632225 -0.240436
H74   H     H_    0.055827 0.150423 0.623494 0.160495
H75   H     H_    0.141656 0.121533 0.665160 0.172394
H76   H     H_    0.070088 0.017660 0.662520 0.192009
N11   N     N_2   0.223341 0.636153 0.384352 -0.485013
H77   H     H_    0.215694 0.720143 0.404558 0.304646
C123  C     C_3   0.263248 0.639358 0.318781 -0.249069
H78   H     H_    0.320426 0.630374 0.329367 0.180120
H79   H     H_    0.252808 0.725762 0.291462 0.151250
H80   H     H_    0.246549 0.569520 0.281822 0.208067
N12   N     N_2   0.611011 0.515464 0.553154 -0.540127
H81   H     H_    0.579534 0.549684 0.513025 0.261538
C124  C     C_3   0.580190 0.548647 0.622258 -0.249075
H82   H     H_    0.533890 0.609660 0.614973 0.114458
H83   H     H_    0.617977 0.592985 0.657375 0.187711
H84   H     H_    0.557949 0.472121 0.650121 0.208696
C125  C     C_2   0.553059 0.923488 0.945569 0.632733
O77   O     O_2   0.505189 0.884136 0.910340 -0.426259
O78   O     O_R   0.611530 0.850331 0.961261 -0.715510
H85   H     H_    0.609540 0.769555 0.937441 0.324731
C126  C     C_2   0.550879 0.943256 0.096759 0.612322
O79   O     O_2   0.523709 0.848995 0.082647 -0.530062
O80   O     O_R   0.590970 0.953172 0.158628 -0.655990
H86   H     H_    0.595020 0.875734 0.186104 0.339689
C127  C     C_2   0.965611 0.447223 0.916944 0.647832
O81   O     O_2   0.915572 0.452847 0.876262 -0.476924
O82   O     O_R   0.009755 0.345191 0.918897 -0.657954
H87   H     H_    0.996270 0.282588 0.883020 0.356036
C128  C     C_2   0.006662 0.430106 0.065463 0.625342
O83   O     O_2   0.966248 0.349352 0.056074 -0.520172
O84   O     O_R   0.064557 0.412525 0.110118 -0.653481
H88   H     H_    0.067718 0.329477 0.131018 0.335435

loop_
_geom_bond_atom_site_label_1
_geom_bond_atom_site_label_2
_ccdc_geom_bond_type
C44   H24   S    
C55   C59   A    
N11   C123  S    
N10   H73   S    
N12   C124  S    
C120  H68   S    
Cr8   O28   S    
Cr3   O47   S    
Cr6   O30   S    
C5    C6    S    
Cr9   O37   S    
C86   O42   A    
C108  H44   S    
C103  O58   S    
C9    C13   A    
C11   N7    S    
C11   C15   A    
C12   C16   A    
C6    C94   S    
C48   C91   S    
C105  H32   S    
C77   O45   A    
C121  H71   S    
C115  O73   D    
C78   O50   A    
C91   C100  A    
C26   H18   S    
C13   H13   S    
Cr10  O38   S    
O58   H27   S    
C49   C69   A    
C113  O69   D    
C40   C83   S    
C51   C71   A    
C53   H1    S    
Cr6   O6    S    
C106  H35   S    
C25   C29   A    
Cr7   O31   S    
C27   C31   A    
O54   H25   S    
Cr2   O46   S    
C28   C32   A    
Cr6   O50   S    
Cr1   O1    S    
C64   C112  S    
C17   C21   A    
Cr4   O4    S    
C98   C102  S    
C35   C36   A    
C19   C23   A    
C43   C44   A    
C109  O61   D    
C52   C72   A    
C100  C104  S    
C10   C30   A    
N12   H81   S    
C68   C72   A    
C56   H4    S    
C45   C90   S    
C58   C79   S    
C118  H59   S    
C38   C81   S    
Cr7   O7    S    
Cr8   O8    S    
C115  O74   S    
C117  H55   S    
C1    C20   S    
C2    C19   S    
Cr8   O52   S    
Cr9   O9    S    
Cr10  O14   S    
C63   C111  S    
C34   C126  S    
C47   O35   A    
C57   C61   A    
C59   C63   A    
C33   C38   A    
C14   H14   S    
C42   H22   S    
C60   C64   A    
C35   C40   A    
C50   C70   A    
N9    C121  S    
C83   O7    A    
C66   C70   A    
C73   O1    A    
C49   C53   A    
C54   H2    S    
C51   C55   A    
N8    C120  S    
C33   C125  S    
O56   H26   S    
C61   C65   A    
C102  O55   D    
C78   O46   A    
Cr11  O19   S    
Cr7   O19   S    
Cr5   O17   S    
C47   C92   S    
Cr2   O22   S    
C41   H21   S    
C97   C98   A    
C7    C8    S    
C46   C89   S    
C114  O71   D    
C64   C68   A    
N10   C122  S    
C39   C84   S    
C74   O38   A    
C86   O14   A    
N5    H53   S    
C30   C74   S    
C126  O80   S    
C84   O8    A    
C92   C96   A    
C112  O67   D    
C101  O54   S    
C24   N12   S    
C124  H83   S    
C110  O63   D    
C67   C71   A    
C97   C101  S    
Cr8   O32   S    
O84   H88   S    
C111  O65   D    
C3    O23   A    
C104  O60   S    
C57   C80   S    
C7    H9    S    
C59   C78   S    
Cr9   O33   S    
C33   C34   A    
C125  O78   S    
C62   C66   A    
C119  H64   S    
C10   C14   A    
N3    H37   S    
C46   O34   A    
C28   H20   S    
C122  H74   S    
C16   H16   S    
N8    H65   S    
C80   O52   A    
C22   N10   S    
Cr12  O40   S    
Cr7   O27   S    
C128  O83   D    
Cr2   O42   S    
Cr5   O25   S    
C69   C85   S    
C21   C25   A    
C18   C22   A    
C36   C39   A    
C24   C28   A    
C45   O33   A    
C32   C76   S    
N6    H57   S    
N4    C108  S    
C26   C30   A    
C120  H67   S    
C13   C17   A    
C89   C98   A    
C75   O3    A    
C68   H8    S    
C107  H40   S    
C8    H10   S    
C21   N9    S    
N7    C119  S    
C79   O47   A    
Cr11  O35   S    
C80   O48   A    
C37   C41   A    
C103  O57   D    
C123  H80   S    
Cr1   O21   S    
C40   C44   A    
Cr12  O20   S    
C105  H31   S    
C65   H5    S    
C15   H15   S    
Cr10  O10   S    
C67   H7    S    
O74   H51   S    
C92   C99   A    
C58   C62   A    
C34   C37   A    
C41   C42   A    
O66   H47   S    
C82   O6    A    
Cr1   O45   S    
O72   H50   S    
C106  H34   S    
C51   N3    S    
C15   C19   A    
C74   O2    A    
C50   C54   A    
C122  H76   S    
O68   H48   S    
C27   H19   S    
C104  O59   D    
C127  O82   S    
Cr6   O18   S    
C61   C109  S    
O64   H46   S    
Cr12  O16   S    
C88   O44   A    
Cr9   O17   S    
Cr2   O18   S    
C90   C97   A    
C3    O27   A    
C1    O25   A    
O80   H86   S    
C62   C110  S    
C118  H58   S    
C2    O26   A    
Cr4   O24   S    
C82   O10   A    
C90   C94   A    
C84   O12   A    
C75   O39   A    
C105  H30   S    
C76   O40   A    
N4    H41   S    
C112  O68   S    
C107  H38   S    
C53   C57   A    
N1    H29   S    
C56   C60   A    
C123  H78   S    
N9    H69   S    
Cr11  O11   S    
C31   C75   S    
C121  H70   S    
Cr8   O20   S    
C2    O22   A    
C121  H72   S    
C12   N8    S    
C71   C87   S    
C4    C17   S    
Cr10  O34   S    
Cr3   O19   S    
Cr4   O48   S    
C49   N1    S    
C113  O70   S    
C37   C82   S    
C106  H36   S    
C46   O30   A    
C6    C114  S    
C5    C113  S    
C38   C42   A    
C109  O62   S    
N6    C118  S    
C126  O79   D    
Cr12  O36   S    
C55   H3    S    
C65   C69   A    
C1    O21   A    
Cr5   O29   S    
Cr3   O43   S    
Cr6   O26   S    
C101  O53   D    
Cr1   O41   S    
O82   H87   S    
C52   N4    S    
C85   O41   A    
C124  H82   S    
C22   C26   A    
C118  H60   S    
C110  O64   S    
C45   O29   A    
C117  H56   S    
O78   H85   S    
C93   C94   A    
C77   O49   A    
N11   H77   S    
C14   C18   A    
C95   C96   A    
C8    C96   S    
C6    H12   S    
C25   H17   S    
C35   C127  S    
Cr4   O44   S    
C125  O77   D    
C79   O51   A    
Cr11  O39   S    
C119  H63   S    
C116  O75   D    
Cr5   O5    S    
C29   C73   S    
Cr7   O51   S    
C3    C18   S    
Cr2   O2    S    
Cr5   O49   S    
C8    C116  S    
C108  H43   S    
C48   O36   A    
N2    H33   S    
C102  O56   S    
C9    N5    S    
C4    O28   A    
C23   C27   A    
C23   N11   S    
C16   C20   A    
C81   O5    A    
C11   C31   A    
C87   O15   A    
C12   C32   A    
C89   C93   A    
C88   O16   A    
C72   C88   S    
C76   O4    A    
C63   C67   A    
C60   C77   S    
C114  O72   S    
C10   N6    S    
C20   C24   A    
N5    C117  S    
C39   C43   A    
C128  O84   S    
C120  H66   S    
C91   C95   A    
Cr12  O12   S    
C116  O76   S    
Cr9   O13   S    
Cr10  O18   S    
Cr3   O3    S    
C107  H39   S    
C47   O31   A    
C99   C100  A    
C48   O32   A    
Cr1   O17   S    
C124  H84   S    
C99   C103  S    
C108  H42   S    
Cr4   O20   S    
C43   H23   S    
C123  H79   S    
C83   O11   A    
N2    C106  S    
C119  H62   S    
C50   N2    S    
C81   O9    A    
C111  O66   S    
O76   H52   S    
C70   C86   S    
C54   C58   A    
Cr11  O15   S    
C5    C93   S    
O70   H49   S    
C9    C29   A    
N3    C107  S    
C7    C95   S    
C5    H11   S    
C117  H54   S    
C122  H75   S    
Cr3   O23   S    
C4    O24   A    
C73   O37   A    
C127  O81   D    
C85   O13   A    
C87   O43   A    
C66   H6    S    
O62   H45   S    
C36   C128  S    
O60   H28   S    
N1    C105  S    
C7    C115  S    
C52   C56   A    
N7    H61   S    
