data_mof_unit_54000.cif
_audit_creation_date              2012-12-10T18:33:32-0500
_audit_creation_method            fapswitch 2.2
_symmetry_space_group_name_H-M    P1
_symmetry_Int_Tables_number       1
_space_group_crystal_system       triclinic
_cell_length_a                    8.703077
_cell_length_b                    15.112253
_cell_length_c                    13.954166
_cell_angle_alpha                 88.978554
_cell_angle_beta                  96.033759
_cell_angle_gamma                 92.016993
_cell_volume                      1823.81282968

loop_
_atom_site_label
_atom_site_type_symbol
_atom_type_description
_atom_site_fract_x
_atom_site_fract_y
_atom_site_fract_z
_atom_type_partial_charge
C1    C     C_R   0.501714 0.329976 0.500559 0.771358
C2    C     C_R   0.499927 0.669601 0.499345 0.770972
C3    C     C_R   0.580788 0.565111 0.110927 -0.308395
C4    C     C_R   0.386478 0.455296 0.887193 -0.312939
C5    C     C_R   0.582442 0.564169 0.211827 0.195100
C6    C     C_R   0.387899 0.453340 0.786566 0.200955
C7    C     C_R   0.420675 0.434946 0.205695 0.074016
C8    C     C_R   0.613446 0.545924 0.796662 0.062139
C9    C     C_R   0.422212 0.432231 0.104739 -0.282003
C10   C     C_R   0.618835 0.545510 0.898186 -0.281544
C11   C     C_R   0.502151 0.498694 0.054782 0.125587
C12   C     C_R   0.503211 0.499951 0.945826 0.125186
C13   C     C_R   0.204957 0.495416 0.476907 0.801123
C14   C     C_R   0.795019 0.505452 0.522924 0.798368
C15   C     C_2   0.040397 0.479262 0.469368 0.168743
C16   C     C_2   0.959571 0.522545 0.529596 0.174197
C17   C     C_R   0.550437 0.094065 0.584641 -0.181191
C18   C     C_R   0.396639 0.902797 0.435836 -0.183110
C19   C     C_R   0.552211 0.186060 0.584921 -0.212031
C20   C     C_R   0.396272 0.810800 0.434907 -0.214209
C21   C     C_R   0.505142 0.233368 0.500455 -0.020888
C22   C     C_R   0.501930 0.765440 0.498347 0.009171
C23   C     C_R   0.464074 0.187760 0.414395 -0.197323
C24   C     C_R   0.609388 0.811930 0.561655 -0.190834
C25   C     C_R   0.467114 0.095983 0.413294 -0.175813
C26   C     C_R   0.613879 0.903847 0.560202 -0.169997
C27   C     C_R   0.507907 0.047994 0.498721 0.110474
C28   C     C_R   0.506350 0.950372 0.498069 0.102753
Cu1   Cu    Cu3+1 0.500000 0.499990 0.596430 0.948010
Cu2   Cu    Cu3+1 0.500000 0.500010 0.403570 0.952276
H1    H     H_    0.581344 0.059342 0.652012 0.124182
H2    H     H_    0.309703 0.936318 0.388775 0.123810
H3    H     H_    0.591886 0.219956 0.650929 0.135976
H4    H     H_    0.311560 0.774973 0.386448 0.128434
H5    H     H_    0.429494 0.222948 0.347727 0.139912
H6    H     H_    0.691422 0.777139 0.611007 0.117145
H7    H     H_    0.438375 0.062894 0.345291 0.120839
H8    H     H_    0.702318 0.938156 0.607302 0.121053
H9    H     H_    0.642342 0.618608 0.077257 0.133190
H10   H     H_    0.293250 0.420283 0.918843 0.132948
H11   H     H_    0.357234 0.383755 0.241644 0.109552
H12   H     H_    0.702420 0.582242 0.762518 0.116153
H13   H     H_    0.362102 0.377212 0.067190 0.127220
H14   H     H_    0.715012 0.580096 0.938213 0.129715
N1    N     N_R   0.500000 0.500020 0.258690 -0.182428
N2    N     N_R   0.500000 0.499980 0.741310 -0.184285
O1    O     O_R   0.500010 0.371450 0.581430 -0.593410
O2    O     O_R   0.499990 0.628550 0.418570 -0.585637
O3    O     O_R   0.500010 0.371460 0.418560 -0.592030
O4    O     O_R   0.499990 0.628540 0.581440 -0.580136
O5    O     O_R   0.274840 0.499990 0.562640 -0.538155
O6    O     O_R   0.725160 0.500010 0.437360 -0.541813
O7    O     O_R   0.274840 0.500000 0.399770 -0.602743
O8    O     O_R   0.725160 0.500000 0.600230 -0.618254
O9    O     O_3   0.966879 0.420058 0.402328 -0.595751
C29   C     C_3   0.046244 0.339941 0.402575 0.060972
H15   H     H_    0.099883 0.320801 0.475771 0.136248
H16   H     H_    0.137598 0.346017 0.352648 0.153899
C30   C     C_3   0.932198 0.265873 0.367904 -0.771166
H17   H     H_    0.877980 0.281461 0.294175 0.249824
H18   H     H_    0.993330 0.202699 0.366515 0.192397
H19   H     H_    0.840478 0.257948 0.417403 0.251090
O10   O     O_3   0.033985 0.582259 0.595777 -0.597356
C31   C     C_3   0.951229 0.660689 0.599610 0.041521
H20   H     H_    0.868446 0.652778 0.654677 0.150661
H21   H     H_    0.887059 0.678812 0.529066 0.134984
C32   C     C_3   0.064558 0.736808 0.628501 -0.772133
H22   H     H_    0.148257 0.746195 0.574006 0.249104
H23   H     H_    0.001051 0.798819 0.632946 0.190211
H24   H     H_    0.128685 0.722435 0.699836 0.252685
C33   C     C_R   0.682358 0.632602 0.263299 0.138792
C34   C     C_R   0.838146 0.615720 0.291879 -0.129021
C35   C     C_R   0.938089 0.682793 0.332158 -0.180047
C36   C     C_R   0.884133 0.767861 0.341721 -0.142294
C37   C     C_R   0.731059 0.786332 0.309145 -0.130586
C38   C     C_R   0.631127 0.719391 0.268372 -0.138253
H25   H     H_    0.882343 0.550869 0.281880 0.177458
H26   H     H_    0.057456 0.668893 0.355594 0.139246
H27   H     H_    0.961405 0.819636 0.373315 0.131670
H28   H     H_    0.689997 0.852596 0.315061 0.142041
H29   H     H_    0.513506 0.734783 0.241806 0.122124
C39   C     C_R   0.270801 0.393348 0.735397 0.139292
C40   C     C_R   0.114469 0.415488 0.724641 -0.125099
C41   C     C_R   0.000212 0.353301 0.689521 -0.165709
C42   C     C_R   0.040763 0.268271 0.666474 -0.150794
C43   C     C_R   0.195021 0.244347 0.681730 -0.164297
C44   C     C_R   0.308576 0.305918 0.718794 -0.124898
H30   H     H_    0.081024 0.480032 0.745794 0.167287
H31   H     H_    0.879942 0.370340 0.681714 0.160057
H32   H     H_    0.952283 0.220396 0.639005 0.137959
H33   H     H_    0.226061 0.177529 0.667243 0.144966
H34   H     H_    0.425540 0.285172 0.737323 0.121528

loop_
_geom_bond_atom_site_label_1
_geom_bond_atom_site_label_2
_ccdc_geom_bond_type
O9    C29   S    
C1    C21   S    
C6    C39   S    
C35   C36   A    
Cu2   N1    S    
C42   C43   A    
C24   H6    S    
Cu1   O1    S    
C7    N1    A    
Cu2   O2    S    
C19   C21   A    
C24   C26   A    
C43   H33   S    
C33   C38   A    
Cu1   O8    S    
C15   C16   D    
C29   H15   S    
C2    O4    A    
C34   H25   S    
C25   H7    S    
C13   O5    A    
C14   O6    A    
C4    H10   S    
C2    C22   S    
C35   H26   S    
C16   O10   S    
C4    C12   A    
C37   H28   S    
C18   C20   A    
C20   H4    S    
C23   C25   A    
C40   H30   S    
C3    H9    S    
C30   H17   S    
C44   H34   S    
C13   O7    A    
Cu1   O4    S    
Cu2   O7    S    
C30   H18   S    
C9    H13   S    
C36   C37   A    
C10   H14   S    
C32   H22   S    
C17   C27   A    
C31   C32   S    
C18   C28   A    
C41   C42   A    
C4    C6    A    
C19   H3    S    
C43   C44   A    
C26   H8    S    
C2    O2    A    
C5    N1    A    
C32   H23   S    
C31   H21   S    
C37   C38   A    
Cu1   Cu2   S    
C40   C41   A    
C11   C12   S    
C9    C11   A    
C10   C12   A    
C14   O8    A    
Cu2   O3    S    
C20   C22   A    
C23   H5    S    
C36   H27   S    
C13   C15   S    
C17   H1    S    
C22   C24   A    
C18   H2    S    
C41   H31   S    
Cu1   O5    S    
C7    C9    A    
Cu2   O6    S    
C30   H19   S    
C6    N2    A    
C1    O1    A    
C8    H12   S    
C34   C35   A    
C3    C5    A    
C38   H29   S    
C42   H32   S    
C25   C27   A    
C26   C28   A    
C29   C30   S    
Cu1   N2    S    
C32   H24   S    
C31   H20   S    
C21   C23   A    
C33   C34   A    
C5    C33   S    
C17   C19   A    
C29   H16   S    
C14   C16   S    
C7    H11   S    
C8    N2    A    
C3    C11   A    
O10   C31   S    
C8    C10   A    
C39   C40   A    
C27   C28   S    
C1    O3    A    
C39   C44   A    
C15   O9    S    
