data_mof_unit_44969.cif
_audit_creation_date              2012-10-26T18:31:59-0400
_audit_creation_method            fapswitch 2.2
_symmetry_space_group_name_H-M    P1
_symmetry_Int_Tables_number       1
_space_group_crystal_system       triclinic
_cell_length_a                    12.404373
_cell_length_b                    13.260466
_cell_length_c                    14.269134
_cell_angle_alpha                 93.934332
_cell_angle_beta                  107.588517
_cell_angle_gamma                 116.674503
_cell_volume                      1940.91579229

loop_
_atom_site_label
_atom_site_type_symbol
_atom_type_description
_atom_site_fract_x
_atom_site_fract_y
_atom_site_fract_z
_atom_type_partial_charge
C1    C     C_R   0.650195 0.713991 0.507469 0.538458
C2    C     C_R   0.173817 0.443552 0.002523 0.048565
C3    C     C_R   0.160398 0.506449 0.078645 0.027855
C4    C     C_R   0.617924 0.516069 0.687135 0.545787
C5    C     C_R   0.258072 0.397715 0.028763 -0.147881
C6    C     C_R   0.329164 0.412825 0.129958 -0.143090
C7    C     C_R   0.235395 0.522294 0.180214 -0.147771
C8    C     C_R   0.176808 0.958762 0.410079 -0.134355
C9    C     C_R   0.255949 0.162511 0.472991 -0.013480
C10   C     C_R   0.725381 0.922466 0.565855 -0.162568
C11   C     C_R   0.826741 0.035894 0.602317 -0.124287
C12   C     C_R   0.881826 0.541427 0.921073 0.019980
C13   C     C_R   0.942486 0.067802 0.586746 0.144316
C14   C     C_R   0.948631 0.988157 0.518042 0.050348
C15   C     C_R   0.843822 0.871618 0.481130 -0.004654
C16   C     C_R   0.346036 0.285313 0.485692 0.544030
C17   C     C_R   0.055107 0.018487 0.485629 0.028207
C18   C     C_R   0.065680 0.930862 0.432745 0.042160
C19   C     C_R   0.960921 0.818559 0.395764 -0.140394
C20   C     C_R   0.848216 0.792176 0.412871 -0.123366
C21   C     C_R   0.145903 0.133854 0.496551 -0.120207
C22   C     C_R   0.273583 0.074295 0.432768 -0.140738
C23   C     C_R   0.853020 0.584031 0.998199 0.019552
C24   C     C_R   0.737581 0.837324 0.513772 -0.015709
C25   C     C_R   0.248693 0.687041 0.656395 -0.130224
C26   C     C_R   0.650830 0.340000 0.364615 0.015889
C27   C     C_R   0.723741 0.303435 0.330451 -0.150826
C28   C     C_R   0.381992 0.483289 0.313321 0.541161
C29   C     C_R   0.859774 0.362694 0.375672 0.135597
C30   C     C_R   0.925058 0.459403 0.461331 0.024448
C31   C     C_R   0.843059 0.493509 0.492331 0.143860
C32   C     C_R   0.065478 0.524437 0.518124 -0.016842
C33   C     C_R   0.115732 0.621299 0.599009 -0.001728
C34   C     C_R   0.986226 0.516617 0.947169 0.037865
C35   C     C_R   0.033749 0.652466 0.624957 -0.176512
C36   C     C_R   0.901126 0.589390 0.573893 -0.101945
C37   C     C_R   0.160048 0.499291 0.501323 0.014117
C38   C     C_R   0.335905 0.657841 0.636567 0.289477
C39   C     C_R   0.689236 0.530544 0.795643 -0.005142
C40   C     C_R   0.316283 0.473633 0.206081 -0.003378
C41   C     C_R   0.738107 0.589538 0.974851 -0.106041
C42   C     C_R   0.649599 0.554224 0.873999 0.135922
C43   C     C_R   0.803883 0.523841 0.820543 -0.171870
C44   C     C_3   0.143610 0.165801 0.732843 -0.315718
C45   C     C_R   0.066576 0.544198 0.051077 0.031551
C46   C     C_3   0.511647 0.775816 0.802020 -0.312586
C47   C     C_3   0.960400 0.384153 0.253252 -0.316602
C48   C     C_3   0.480058 0.555623 0.932132 -0.328361
C49   C     C_R   0.045578 0.603313 0.124187 -0.147155
C50   C     C_R   0.938011 0.618813 0.098478 -0.140995
C51   C     C_R   0.007257 0.458224 0.873554 -0.140535
C52   C     C_R   0.099901 0.423274 0.901047 -0.144704
Cu1   Cu    Cu3+1 0.416420 0.526630 0.522910 0.953083
Cu2   Cu    Cu3+1 0.583580 0.473370 0.477090 0.906686
H1    H     H_    0.920564 0.657253 0.157891 0.099320
H2    H     H_    0.230540 0.569465 0.241625 0.116996
H3    H     H_    0.072598 0.726143 0.687314 0.110818
H4    H     H_    0.284202 0.761385 0.716858 0.095779
H5    H     H_    0.134085 0.425617 0.445964 0.187478
H6    H     H_    0.546104 0.293890 0.327081 0.128709
H7    H     H_    0.673961 0.229812 0.265939 0.095977
H8    H     H_    0.846822 0.618824 0.601469 0.187312
H9    H     H_    0.391398 0.374434 0.148615 0.120165
H10   H     H_    0.110290 0.375976 0.842412 0.103038
H11   H     H_    0.832913 0.507289 0.760061 0.129454
H12   H     H_    0.266582 0.347676 0.970840 0.096385
H13   H     H_    0.107530 0.635538 0.203043 0.093047
H14   H     H_    0.949369 0.432571 0.793829 0.107663
H15   H     H_    0.031808 0.238968 0.667112 0.244796
H16   H     H_    0.229995 0.252978 0.771895 0.132839
H17   H     H_    0.176991 0.107753 0.707432 0.163579
H18   H     H_    0.096861 0.130971 0.787332 0.140431
H19   H     H_    0.523079 0.781306 0.661257 0.249149
H20   H     H_    0.513705 0.860676 0.810098 0.104372
H21   H     H_    0.611015 0.791124 0.844080 0.167841
H22   H     H_    0.444670 0.717992 0.835722 0.160562
H23   H     H_    0.357823 0.094770 0.413348 0.126187
H24   H     H_    0.882158 0.236060 0.305280 0.251903
H25   H     H_    0.017931 0.354376 0.225042 0.155849
H26   H     H_    0.020189 0.479465 0.285633 0.152591
H27   H     H_    0.871112 0.364536 0.188629 0.151754
H28   H     H_    0.716415 0.616863 0.036712 0.103753
H29   H     H_    0.449989 0.465701 0.793956 0.266962
H30   H     H_    0.378326 0.538451 0.899974 0.145549
H31   H     H_    0.541955 0.646873 0.977727 0.145567
H32   H     H_    0.484391 0.494785 0.980960 0.139441
H33   H     H_    0.963090 0.752643 0.348216 0.101674
H34   H     H_    0.186801 0.891655 0.372045 0.105589
H35   H     H_    0.127509 0.202604 0.516697 0.181249
H36   H     H_    0.641527 0.900258 0.585688 0.116184
H37   H     H_    0.819091 0.097261 0.650397 0.111768
H38   H     H_    0.764589 0.708750 0.370446 0.154017
N1    N     N_R   0.290690 0.566960 0.557640 -0.231370
N2    N     N_R   0.709100 0.433710 0.442970 -0.242564
N3    N     N_2   0.053205 0.175764 0.647324 -0.541047
N4    N     N_2   0.471507 0.723597 0.696248 -0.447298
N5    N     N_2   0.926705 0.325174 0.330100 -0.554946
N6    N     N_2   0.521379 0.538597 0.850583 -0.490033
O1    O     O_R   0.545970 0.684450 0.528810 -0.500773
O2    O     O_R   0.687130 0.639470 0.490120 -0.525741
O3    O     O_R   0.519670 0.535100 0.660030 -0.447065
O4    O     O_R   0.660830 0.490120 0.621340 -0.527816
O5    O     O_R   0.312870 0.360530 0.509880 -0.516413
O6    O     O_R   0.454030 0.315550 0.471190 -0.505172
O7    O     O_R   0.339170 0.509880 0.378660 -0.512748
O8    O     O_R   0.480330 0.464900 0.339970 -0.512007

loop_
_geom_bond_atom_site_label_1
_geom_bond_atom_site_label_2
_ccdc_geom_bond_type
C26   N2    A    
C27   C29   A    
C41   C42   A    
C19   C20   A    
C47   H25   S    
C1    O1    A    
C46   H22   S    
C21   H35   S    
Cu1   Cu2   S    
Cu1   O1    S    
C20   H38   S    
C12   C23   A    
C34   C51   A    
C13   N3    S    
C7    H2    S    
Cu2   O6    S    
C9    C16   S    
C12   C43   A    
C3    C7    A    
C42   N6    S    
C30   C31   A    
C9    C22   A    
C28   C40   S    
C44   H17   S    
C18   C19   A    
C27   H7    S    
C16   O6    A    
C35   C36   A    
C28   O8    A    
H29   N6    S    
C4    O4    A    
C8    C22   A    
C7    C40   A    
C44   H16   S    
C13   C14   A    
C14   C17   A    
Cu2   O2    S    
C47   H26   S    
C36   H8    S    
C1    O2    A    
C46   H21   S    
C39   C42   A    
C15   C20   A    
Cu2   O8    S    
Cu1   N1    S    
C51   C52   A    
C52   H10   S    
Cu1   O3    S    
C23   C50   A    
C39   C43   A    
C10   C24   A    
C3    C45   A    
C8    C18   A    
C48   H30   S    
C8    H34   S    
C6    H9    S    
C29   C30   A    
Cu1   O7    S    
C25   C38   A    
C16   O5    A    
C14   C15   A    
C4    C39   S    
C45   C49   A    
C28   O7    A    
C43   H11   S    
C4    O3    A    
H24   N5    S    
C17   C18   A    
C26   C27   A    
C37   N1    A    
C34   C45   A    
C32   C37   A    
C37   H5    S    
C2    C52   A    
C15   C24   A    
C48   H32   S    
C2    C5    A    
C25   H4    S    
C12   C34   A    
C46   H20   S    
C49   H13   S    
C48   H31   S    
Cu2   O4    S    
C22   H23   S    
C5    H12   S    
H15   N3    S    
C23   C41   A    
C31   N2    A    
C48   N6    S    
C19   H33   S    
C50   H1    S    
C47   N5    S    
C29   N5    S    
C35   H3    S    
C32   C33   A    
C2    C3    A    
C44   N3    S    
C30   C32   A    
C11   C13   A    
C9    C21   A    
C5    C6    A    
Cu1   O5    S    
C41   H28   S    
C38   N1    A    
C33   C35   A    
C44   H18   S    
C6    C40   A    
C51   H14   S    
C47   H27   S    
C17   C21   A    
Cu2   N2    S    
C10   C11   A    
C11   H37   S    
C46   N4    S    
C10   H36   S    
C1    C24   S    
C49   C50   A    
C38   N4    S    
C31   C36   A    
H19   N4    S    
C26   H6    S    
C25   C33   A    
