data_mof_unit_5129.cif
_audit_creation_date              2012-12-10T18:14:44-0500
_audit_creation_method            fapswitch 2.2
_symmetry_space_group_name_H-M    P1
_symmetry_Int_Tables_number       1
_space_group_crystal_system       triclinic
_cell_length_a                    10.746992
_cell_length_b                    9.442506
_cell_length_c                    27.795784
_cell_angle_alpha                 89.806212
_cell_angle_beta                  89.22551
_cell_angle_gamma                 89.868965
_cell_volume                      2820.39456905

loop_
_atom_site_label
_atom_site_type_symbol
_atom_type_description
_atom_site_fract_x
_atom_site_fract_y
_atom_site_fract_z
_atom_type_partial_charge
C1    C     C_R   0.259941 0.500249 0.501096 0.858463
C2    C     C_R   0.497272 0.633152 0.279234 -0.110830
C3    C     C_R   0.506907 0.506340 0.253522 0.362194
C4    C     C_R   0.517079 0.518510 0.101698 -0.045438
C5    C     C_R   0.406189 0.549687 0.127125 -0.019295
C6    C     C_R   0.299169 0.584645 0.101766 -0.147235
C7    C     C_R   0.624421 0.482451 0.127561 -0.020352
C8    C     C_R   0.501094 0.501824 0.354489 -0.031057
C9    C     C_R   0.505358 0.501760 0.645135 -0.070547
C10   C     C_R   0.417330 0.573641 0.974122 0.053056
C11   C     C_R   0.633070 0.483963 0.974174 0.019254
C12   C     C_R   0.499966 0.500324 0.407487 0.870587
C13   C     C_R   0.526466 0.529366 0.948785 0.067927
C14   C     C_R   0.316557 0.627128 0.947355 -0.210899
C15   C     C_R   0.319923 0.629306 0.897508 -0.141934
C16   C     C_R   0.423923 0.578983 0.872217 -0.010584
C17   C     C_R   0.528422 0.529889 0.897534 -0.091955
C18   C     C_R   0.634014 0.480816 0.871520 -0.026413
C19   C     C_R   0.629938 0.478977 0.820625 0.563528
C20   C     C_R   0.425181 0.576648 0.821845 0.539353
C21   C     C_R   0.437001 0.423319 0.724367 -0.103029
C22   C     C_R   0.427703 0.416252 0.674397 0.106955
C23   C     C_R   0.739944 0.499920 0.500318 0.851169
C24   C     C_R   0.589835 0.594441 0.666794 -0.258231
C25   C     C_R   0.598053 0.601194 0.716749 -0.086690
C26   C     C_R   0.521478 0.515745 0.745719 0.303525
C27   C     C_R   0.412328 0.563783 0.025141 0.041063
C28   C     C_R   0.520545 0.523235 0.050539 0.067500
C29   C     C_R   0.632076 0.487116 0.025392 0.055000
C30   C     C_R   0.301797 0.591230 0.051856 -0.209113
C31   C     C_R   0.734957 0.452744 0.102620 -0.149171
C32   C     C_R   0.736987 0.434889 0.947362 -0.262352
C33   C     C_R   0.738610 0.433128 0.897131 0.178193
C34   C     C_R   0.499033 0.499972 0.592429 0.814089
C35   C     C_R   0.739112 0.455433 0.052648 -0.207439
C36   C     C_3   0.069951 0.637019 0.524148 -0.431594
C37   C     C_3   0.069765 0.374074 0.529688 -0.446379
C38   C     C_3   0.928093 0.643288 0.518761 -0.463673
C39   C     C_3   0.927229 0.383487 0.533890 -0.440281
C40   C     C_3   0.077616 0.493225 0.445306 0.269423
C41   C     C_3   0.122150 0.500702 0.499434 0.114507
C42   C     C_3   0.878160 0.499766 0.499012 0.117704
C43   C     C_3   0.928750 0.471986 0.445871 0.281859
C44   C     C_3   0.620217 0.084216 0.481838 0.136648
C45   C     C_3   0.621053 0.915235 0.482731 0.132694
C46   C     C_3   0.483095 0.083106 0.550295 -0.250774
C47   C     C_3   0.481635 0.915814 0.550281 -0.254405
C48   C     C_3   0.396927 0.084006 0.472137 -0.210582
C49   C     C_3   0.398402 0.917251 0.471404 -0.204897
C50   C     C_R   0.404646 0.544087 0.177607 0.531949
C51   C     C_R   0.618969 0.478430 0.178067 0.533686
C52   C     C_R   0.513003 0.377134 0.278259 -0.110272
C53   C     C_R   0.509750 0.374729 0.328451 -0.214833
C54   C     C_R   0.494479 0.631085 0.329368 -0.214686
Cu1   Cu    Cu3+1 0.499860 0.642410 0.500020 0.934531
Cu2   Cu    Cu3+1 0.499860 0.357590 0.500020 0.947679
H1    H     H_    0.487049 0.730702 0.348363 0.144357
H2    H     H_    0.519910 0.278666 0.258538 0.137647
H3    H     H_    0.819442 0.427245 0.121677 0.187552
H4    H     H_    0.818872 0.393138 0.964238 0.137587
H5    H     H_    0.649837 0.661484 0.644931 0.147719
H6    H     H_    0.662988 0.673743 0.732973 0.155014
H7    H     H_    0.828980 0.434509 0.036632 0.138216
H8    H     H_    0.111994 0.735838 0.509573 0.177690
H9    H     H_    0.097125 0.270244 0.514256 0.169375
H10   H     H_    0.093174 0.635409 0.563084 0.190660
H11   H     H_    0.108900 0.376495 0.566470 0.211088
H12   H     H_    0.885093 0.665953 0.554611 0.177167
H13   H     H_    0.900172 0.410572 0.571585 0.185665
H14   H     H_    0.492447 0.733367 0.260285 0.137021
H15   H     H_    0.902871 0.733875 0.495316 0.168850
H16   H     H_    0.885888 0.277806 0.527143 0.179474
H17   H     H_    0.695581 0.117835 0.506429 0.103219
H18   H     H_    0.694510 0.884109 0.508705 0.098852
H19   H     H_    0.558525 0.120299 0.574149 0.159989
H20   H     H_    0.555835 0.876804 0.574532 0.151777
H21   H     H_    0.305903 0.119221 0.487422 0.145477
H22   H     H_    0.306907 0.879088 0.485191 0.148258
H23   H     H_    0.399046 0.126486 0.434905 0.150395
H24   H     H_    0.404877 0.878867 0.433797 0.147539
H25   H     H_    0.394191 0.122106 0.566095 0.198423
H26   H     H_    0.391853 0.877522 0.565879 0.175273
H27   H     H_    0.212167 0.606863 0.120430 0.186852
H28   H     H_    0.376680 0.358681 0.746888 0.169675
H29   H     H_    0.239571 0.670201 0.878808 0.187109
H30   H     H_    0.233742 0.670736 0.963783 0.138326
H31   H     H_    0.214176 0.615127 0.035328 0.137759
H32   H     H_    0.514359 0.273605 0.346752 0.147054
N1    N     N_R   0.510147 0.509068 0.201939 -0.467961
N2    N     N_R   0.526309 0.525338 0.797214 -0.472441
N3    N     N_3   0.500250 0.143650 0.501060 -0.127066
N4    N     N_3   0.500250 0.856350 0.501060 -0.124024
O1    O     O_R   0.317570 0.620260 0.500030 -0.594141
O2    O     O_R   0.317570 0.379740 0.500030 -0.589622
O3    O     O_R   0.499900 0.620250 0.430280 -0.563109
O4    O     O_R   0.499900 0.379750 0.430280 -0.559855
O5    O     O_R   0.682190 0.620260 0.500010 -0.579133
O6    O     O_R   0.682190 0.379740 0.500010 -0.564271
O7    O     O_R   0.499860 0.620280 0.569750 -0.600309
O8    O     O_R   0.499860 0.379720 0.569750 -0.578840
O9    O     O_2   0.298468 0.572734 0.202218 -0.540597
O10   O     O_2   0.325789 0.625155 0.797516 -0.526176
O11   O     O_2   0.721734 0.445269 0.203150 -0.539671
O12   O     O_2   0.727346 0.429455 0.794554 -0.490098
N5    N     N_3   0.847973 0.381756 0.872670 -0.499877
H33   H     H_    0.923557 0.443523 0.883103 0.219224
H34   H     H_    0.864229 0.277667 0.883959 0.221412
N6    N     N_3   0.116210 0.625375 0.420618 -0.591419
H35   H     H_    0.102521 0.617676 0.383555 0.223662
H36   H     H_    0.068052 0.714412 0.432811 0.193289
N7    N     N_3   0.143802 0.377478 0.419906 -0.595629
H37   H     H_    0.135744 0.279493 0.436952 0.191213
H38   H     H_    0.112296 0.368497 0.384635 0.215381
N8    N     N_3   0.865340 0.567746 0.411909 -0.581073
H39   H     H_    0.899749 0.552358 0.376953 0.219263
H40   H     H_    0.874928 0.674134 0.420557 0.199625
N9    N     N_3   0.893128 0.327063 0.431884 -0.574458
H41   H     H_    0.940489 0.248761 0.450801 0.188945
H42   H     H_    0.909821 0.310525 0.395191 0.216779
N10   N     N_3   0.651832 0.145987 0.434698 -0.509276
H43   H     H_    0.591842 0.111154 0.408119 0.190091
H44   H     H_    0.741817 0.115093 0.424722 0.193898
N11   N     N_3   0.657818 0.849614 0.436850 -0.523850
H45   H     H_    0.601273 0.882205 0.408727 0.199315
H46   H     H_    0.749523 0.877565 0.428365 0.166768
I1    I     I_    0.285208 0.285904 0.647118 -0.444629

loop_
_geom_bond_atom_site_label_1
_geom_bond_atom_site_label_2
_ccdc_geom_bond_type
C10   C27   A    
C21   C26   A    
C24   H5    S    
C47   N4    S    
N7    H37   S    
Cu2   O6    S    
Cu1   O1    S    
N8    H39   S    
N11   H45   S    
C49   H22   S    
Cu2   O2    S    
N5    H34   S    
C23   C42   S    
C48   H23   S    
C28   C29   A    
C47   H20   S    
C38   C42   S    
N9    H42   S    
C43   N8    S    
C5    C6    A    
C36   H10   S    
C9    C22   A    
N11   H46   S    
C20   O10   S    
C44   N10   S    
C51   O11   S    
C15   C16   A    
N6    H35   S    
C18   C19   A    
C47   H26   S    
C31   H3    S    
C45   N4    S    
C38   H15   S    
C40   C43   S    
C1    O2    A    
C48   N3    S    
C37   H9    S    
C34   O8    A    
C39   H16   S    
C12   O3    A    
C39   C42   S    
C16   C20   A    
C15   H29   S    
C21   C22   A    
C27   C30   A    
C36   C41   S    
C4    C7    A    
C46   H19   S    
C4    C28   A    
N10   H44   S    
C17   C18   A    
C40   N7    S    
Cu2   N3    S    
C7    C31   A    
C33   N5    S    
C24   C25   A    
C14   H30   S    
Cu1   O3    S    
C10   C14   A    
C8    C54   A    
C16   C17   A    
C46   N3    S    
C25   C26   A    
C20   N2    A    
C45   N11   S    
C45   H18   S    
C48   H21   S    
Cu1   N4    S    
C46   H25   S    
C19   O12   S    
C50   N1    A    
C21   H28   S    
C8    C12   S    
Cu1   O5    S    
Cu1   Cu2   S    
C34   O7    A    
C39   H13   S    
N7    H38   S    
C44   N3    S    
C52   H2    S    
C43   N9    S    
C1    C41   S    
C48   C49   S    
C23   O5    A    
C38   H12   S    
C11   C32   A    
C2    C54   A    
C9    C34   S    
C31   C35   A    
C5    C50   A    
C42   C43   S    
Cu2   O8    S    
C49   N4    S    
C52   C53   A    
Cu2   O4    S    
C46   C47   S    
C40   C41   S    
C6    H27   S    
C6    C30   A    
C14   C15   A    
C44   C45   S    
C4    C5    A    
C10   C13   A    
C8    C53   A    
N8    H40   S    
C3    C52   A    
C9    C24   A    
C26   N2    S    
N5    H33   S    
C29   C35   A    
C49   H24   S    
C13   C17   A    
C3    N1    S    
C32   C33   A    
C36   C38   S    
C2    C3    A    
C7    C51   A    
C37   C39   S    
C19   N2    A    
C36   H8    S    
N9    H41   S    
C51   N1    A    
C11   C13   A    
C37   H11   S    
N6    H36   S    
C53   H32   S    
C25   H6    S    
C37   C41   S    
C44   H17   S    
C18   C33   A    
C22   I1    S    
C40   N6    S    
C23   O6    A    
C11   C29   A    
C50   O9    S    
C1    O1    A    
Cu1   O7    S    
C27   C28   A    
C32   H4    S    
N10   H43   S    
C12   O4    A    
C35   H7    S    
C30   H31   S    
C2    H14   S    
C54   H1    S    
