data_mof_unit_10004.cif
_audit_creation_date              2013-03-05T16:32:33-0500
_audit_creation_method            fapswitch 2.2
_symmetry_space_group_name_H-M    P1
_symmetry_Int_Tables_number       1
_space_group_crystal_system       triclinic
_cell_length_a                    15.871789
_cell_length_b                    10.812876
_cell_length_c                    9.553725
_cell_angle_alpha                 90.016338
_cell_angle_beta                  91.046828
_cell_angle_gamma                 90.10438
_cell_volume                      1639.33082966

loop_
_atom_site_label
_atom_site_type_symbol
_atom_site_description
_atom_site_fract_x
_atom_site_fract_y
_atom_site_fract_z
_atom_type_partial_charge
O1    O     O_R   0.500000 0.319640 0.618810 -0.580428
O2    O     O_R   0.500010 0.319680 0.381230 -0.536072
C1    C     C_R   0.502465 0.262362 0.499834 0.838987
O3    O     O_R   0.379070 0.499970 0.618770 -0.583967
O4    O     O_R   0.379080 0.500010 0.381190 -0.586251
C2    C     C_R   0.339893 0.500066 0.498655 0.798319
Cu1   Cu    Cu3+1 0.500000 0.499980 0.640670 0.962004
Cu2   Cu    Cu3+1 0.500000 0.500020 0.359330 0.979948
O5    O     O_R   0.499990 0.680320 0.618770 -0.560185
O6    O     O_R   0.500000 0.680360 0.381190 -0.596699
O7    O     O_R   0.620920 0.499990 0.618810 -0.583074
O8    O     O_R   0.620930 0.500030 0.381230 -0.533505
C3    C     C_R   0.501591 0.737556 0.500163 0.823332
C4    C     C_R   0.660086 0.500200 0.501319 0.820061
C5    C     C_3   0.973737 0.385041 0.529799 0.312014
C6    C     C_3   0.023369 0.421112 0.398800 0.310209
C7    C     C_1   0.250272 0.500425 0.494905 -0.176287
C8    C     C_1   0.749654 0.500188 0.504910 -0.129406
C9    C     C_3   0.032301 0.464600 0.623865 0.306383
C10   C     C_3   0.083203 0.500739 0.492762 -0.192542
C11   C     C_3   0.976447 0.579616 0.600511 0.310767
C12   C     C_3   0.916647 0.500009 0.506553 -0.198222
C13   C     C_3   0.026061 0.615700 0.469485 0.307797
C14   C     C_3   0.967505 0.536089 0.375449 0.311738
C15   C     C_1   0.174787 0.500690 0.492053 0.147634
C16   C     C_1   0.825110 0.500077 0.507492 0.159059
C17   C     C_R   0.498857 0.063665 0.623468 0.001399
C18   C     C_R   0.511445 0.129104 0.499754 -0.192965
C19   C     C_R   0.535320 0.063849 0.378231 0.483015
C20   C     C_R   0.535243 0.933984 0.381011 -0.310544
H1    H     H_    0.552796 0.883368 0.288639 0.160144
C21   C     C_R   0.510000 0.870495 0.501288 -0.223718
C22   C     C_R   0.498394 0.936729 0.624409 0.118860
C23   C     C_3   0.428913 0.930367 0.727548 0.353824
C24   C     C_3   0.429209 0.071306 0.726337 -0.507434
H2    H     H_    0.370911 0.886115 0.682272 0.066383
H3    H     H_    0.370599 0.111585 0.680114 0.152699
C25   C     C_R   0.570973 0.531439 0.075531 0.275875
N1    N     N_R   0.500530 0.500930 0.147930 -0.219491
C26   C     C_R   0.432993 0.456123 0.072387 -0.100556
C27   C     C_R   0.432984 0.456091 0.923714 -0.079866
N2    N     N_R   0.500530 0.500890 0.852020 -0.176477
C28   C     C_R   0.571135 0.530671 0.928370 0.192539
C29   C     C_3   0.618811 0.649294 0.922548 -0.537848
C30   C     C_3   0.617364 0.651460 0.082000 0.264602
H4    H     H_    0.682745 0.636322 0.879214 0.224383
O9    O     O_3   0.053867 0.339891 0.295723 -0.577072
C31   C     C_3   0.985554 0.286910 0.220189 -0.303055
H5    H     H_    0.955205 0.355346 0.149382 0.198282
H6    H     H_    0.937191 0.246407 0.289296 0.197707
H7    H     H_    0.009950 0.211094 0.154112 0.163913
O10   O     O_3   0.459175 0.881344 0.855852 -0.572989
C32   C     C_3   0.390586 0.852127 0.941322 -0.357518
H8    H     H_    0.352489 0.775390 0.895021 0.179291
H9    H     H_    0.350447 0.934632 0.959854 0.161020
H10   H     H_    0.415457 0.820156 0.044395 0.184582
H11   H     H_    0.450498 0.113713 0.826938 0.212354
H12   H     H_    0.378270 0.422018 0.126029 0.155188
H13   H     H_    0.378203 0.421739 0.867155 0.153029
H14   H     H_    0.581879 0.725132 0.873236 0.232736
O11   O     O_3   0.698249 0.635131 0.143259 -0.528219
C33   C     C_3   0.733584 0.751803 0.174326 -0.248854
H15   H     H_    0.698730 0.797814 0.259717 0.146172
H16   H     H_    0.735155 0.812051 0.079911 0.156927
H17   H     H_    0.799457 0.738582 0.211792 0.214777
H18   H     H_    0.578284 0.726502 0.127207 0.089721
O12   O     O_3   0.940054 0.268004 0.563612 -0.570121
C34   C     C_3   0.004802 0.178595 0.567989 -0.290364
H19   H     H_    0.062644 0.211059 0.624451 0.188214
H20   H     H_    0.021241 0.148376 0.461052 0.187126
H21   H     H_    0.981398 0.096055 0.624370 0.165634
O13   O     O_3   0.925745 0.571071 0.249994 -0.566414
C35   C     C_3   0.984786 0.610638 0.151094 -0.312807
H22   H     H_    0.039759 0.547511 0.143526 0.187548
H23   H     H_    0.006835 0.705902 0.174160 0.190457
H24   H     H_    0.952686 0.612861 0.047214 0.190238
O14   O     O_3   0.059546 0.732836 0.435580 -0.576470
C36   C     C_3   0.994654 0.822046 0.431359 -0.296380
H25   H     H_    0.978780 0.852920 0.538317 0.190979
H26   H     H_    0.936525 0.789102 0.376076 0.180300
H27   H     H_    0.017635 0.904268 0.373900 0.163989
O15   O     O_3   0.945846 0.660856 0.703487 -0.570519
C37   C     C_3   0.014084 0.713881 0.779157 -0.317110
H28   H     H_    0.062460 0.754469 0.710136 0.190723
H29   H     H_    0.044434 0.645450 0.849971 0.191013
H30   H     H_    0.989600 0.789629 0.845246 0.167073
O16   O     O_3   0.073865 0.429163 0.749371 -0.578733
C38   C     C_3   0.014517 0.390427 0.848232 -0.303988
H31   H     H_    0.992032 0.295334 0.825364 0.196203
H32   H     H_    0.959793 0.454052 0.855479 0.192434
H33   H     H_    0.046453 0.388195 0.952239 0.181975
O17   O     O_3   0.562800 0.127430 0.261423 -0.558476
C39   C     C_3   0.510410 0.100281 0.144376 -0.269448
H34   H     H_    0.520524 0.172313 0.063713 0.189780
H35   H     H_    0.442226 0.101912 0.170294 0.139574
H36   H     H_    0.527677 0.010016 0.097587 0.183140

loop_
_geom_bond_atom_site_label_1
_geom_bond_atom_site_label_2
_geom_bond_distance
_ccdc_geom_bond_type
O16   C38   1.409282 S    
C26   C27   1.420374 A    
C39   H34   1.109373 S    
C27   N2    1.370497 A    
C4    C8    1.421389 S    
C3    C21   1.443406 S    
C9    C10   1.552522 S    
C8    C16   1.197426 T    
Cu1   Cu2   2.687844 S    
C5    C12   1.553267 S    
O14   C36   1.412454 S    
C17   C22   1.372573 A    
Cu1   O7    1.934334 S    
C33   H15   1.111912 S    
C1    C18   1.448192 S    
C9    C11   1.542490 S    
C9    O16   1.411391 S    
O4    C2    1.292962 A    
O7    C4    1.293011 A    
C36   H26   1.112633 S    
C10   C15   1.453741 S    
C5    C6    1.540829 S    
C23   C24   1.523998 S    
C35   H22   1.112149 S    
Cu1   N2    2.019066 S    
O5    C3    1.291923 A    
C39   H35   1.114739 S    
C25   C30   1.491641 S    
C33   H16   1.113444 S    
C31   H7    1.109193 S    
C37   H28   1.111040 S    
C34   H19   1.112492 S    
C13   C14   1.542093 S    
C10   C13   1.553730 S    
Cu2   N1    2.019856 S    
C6    C10   1.553856 S    
C31   H6    1.111030 S    
C6    C14   1.542248 S    
C11   C12   1.553394 S    
C35   H23   1.108082 S    
O3    Cu1   1.926941 S    
C6    O9    1.412038 S    
C29   H4    1.112040 S    
C32   H9    1.113187 S    
C25   N1    1.365411 A    
C26   H12   1.080841 S    
O12   C34   1.412286 S    
C27   H13   1.080499 S    
O3    C2    1.295164 A    
N1    C26   1.369044 A    
C36   H25   1.108423 S    
C17   C24   1.494876 S    
C32   H8    1.112638 S    
O1    C1    1.295543 A    
C5    C9    1.542011 S    
C28   C29   1.489602 S    
C19   C20   1.404476 A    
O9    C31   1.411891 S    
C38   H33   1.107478 S    
Cu2   O8    1.926940 S    
C5    O12   1.412718 S    
C22   C23   1.493742 S    
C13   O14   1.412681 S    
Cu2   O6    1.961086 S    
C31   H5    1.107658 S    
C37   H29   1.107670 S    
C38   H32   1.112138 S    
C39   H36   1.110284 S    
C11   C13   1.540939 S    
C35   H24   1.107550 S    
C12   C14   1.551992 S    
N2    C28   1.363919 A    
C30   H18   1.114044 S    
O10   C32   1.408212 S    
C14   O13   1.411053 S    
C32   H10   1.109732 S    
Cu1   O5    1.961247 S    
C2    C7    1.422250 S    
C18   C19   1.416315 A    
C33   H17   1.108393 S    
C24   H3    1.112040 S    
O1    Cu1   1.961086 S    
O2    Cu2   1.961245 S    
C29   C30   1.524131 S    
O8    C4    1.294785 A    
O13   C35   1.408916 S    
O6    C3    1.293663 A    
O4    Cu2   1.934337 S    
C23   O10   1.412093 S    
C24   H11   1.111532 S    
C7    C15   1.197907 T    
C21   C22   1.392252 A    
O2    C1    1.291686 A    
C25   C28   1.406001 A    
C20   C21   1.403032 A    
C11   O15   1.412074 S    
C36   H27   1.109602 S    
C20   H1    1.079444 S    
C29   H14   1.108993 S    
C34   H21   1.109529 S    
C30   O11   1.412533 S    
O17   C39   1.411728 S    
C23   H2    1.116821 S    
O11   C33   1.409000 S    
C37   H30   1.109210 S    
C38   H31   1.108158 S    
C34   H20   1.108359 S    
O15   C37   1.411824 S    
C12   C16   1.453063 S    
C17   C18   1.395042 A    
C19   O17   1.387581 S    
