data_mof_unit_46056.cif
_audit_creation_date              2012-12-11T17:36:17-0500
_audit_creation_method            fapswitch 2.2
_symmetry_space_group_name_H-M    P1
_symmetry_Int_Tables_number       1
_space_group_crystal_system       triclinic
_cell_length_a                    25.885255
_cell_length_b                    6.899633
_cell_length_c                    21.652539
_cell_angle_alpha                 89.999785
_cell_angle_beta                  96.006569
_cell_angle_gamma                 89.999953
_cell_volume                      3845.8857686

loop_
_atom_site_label
_atom_site_type_symbol
_atom_type_description
_atom_site_fract_x
_atom_site_fract_y
_atom_site_fract_z
_atom_type_partial_charge
O1    O     O_R   0.208650 0.594520 0.175450 -0.543320
O2    O     O_R   0.791350 0.405480 0.824550 -0.529007
O3    O     O_R   0.291350 0.094520 0.324550 -0.543318
O4    O     O_R   0.708650 0.905480 0.675450 -0.529008
O5    O     O_R   0.192980 0.260780 0.300160 -0.543485
O6    O     O_R   0.807020 0.739220 0.699840 -0.537098
O7    O     O_R   0.307020 0.760780 0.199840 -0.543486
O8    O     O_R   0.692980 0.239220 0.800160 -0.537098
C1    C     C_R   0.178678 0.432913 0.318271 0.674603
C2    C     C_R   0.821404 0.567193 0.681902 0.678116
C3    C     C_R   0.321322 0.932913 0.181729 0.674599
C4    C     C_R   0.678595 0.067192 0.818097 0.678128
O9    O     O_R   0.202550 0.264660 0.174420 -0.533596
O10   O     O_R   0.797450 0.735340 0.825580 -0.547357
O11   O     O_R   0.297450 0.764660 0.325580 -0.533596
O12   O     O_R   0.702550 0.235340 0.674420 -0.547363
O13   O     O_R   0.300990 0.096480 0.197920 -0.534711
O14   O     O_R   0.699010 0.903520 0.802080 -0.541003
O15   O     O_R   0.199010 0.596480 0.302080 -0.534710
O16   O     O_R   0.800990 0.403520 0.697920 -0.541009
C5    C     C_R   0.191220 0.433794 0.150940 0.754600
C6    C     C_R   0.808846 0.566158 0.849000 0.751992
C7    C     C_R   0.308780 0.933793 0.349060 0.754603
C8    C     C_R   0.691154 0.066159 0.650999 0.751977
O17   O     O_3   0.282290 0.427760 0.257860 -0.367111
O18   O     O_3   0.717710 0.572240 0.742140 -0.367319
O19   O     O_3   0.217710 0.927760 0.242140 -0.367111
O20   O     O_3   0.782290 0.072240 0.757860 -0.367318
V1    V     V_3+5 0.244010 0.152080 0.248540 1.428030
V2    V     V_3+5 0.755990 0.847920 0.751460 1.428394
V3    V     V_3+5 0.255990 0.652080 0.251460 1.428030
V4    V     V_3+5 0.744010 0.347920 0.748540 1.428388
C9    C     C_R   0.657861 0.055572 0.591355 -0.138426
C10   C     C_R   0.342109 0.944385 0.408690 -0.136002
C11   C     C_R   0.842139 0.555568 0.908645 -0.138420
C12   C     C_R   0.157891 0.444388 0.091310 -0.136003
C13   C     C_R   0.649184 0.033252 0.479182 -0.243525
C14   C     C_R   0.351104 0.955157 0.521043 -0.245963
C15   C     C_R   0.850816 0.533230 0.020817 -0.243540
C16   C     C_R   0.148897 0.455176 0.978957 -0.245961
C17   C     C_R   0.680636 0.051354 0.535404 0.397977
C18   C     C_R   0.319402 0.945930 0.464704 0.398825
C19   C     C_R   0.819364 0.551339 0.964596 0.397978
C20   C     C_R   0.180598 0.445943 0.035296 0.398825
C21   C     C_R   0.603469 0.044070 0.590331 -0.289359
C22   C     C_R   0.396434 0.959912 0.409611 -0.289960
C23   C     C_R   0.896531 0.544073 0.909668 -0.289364
C24   C     C_R   0.103566 0.459909 0.090388 -0.289960
C25   C     C_R   0.570722 0.025638 0.533413 0.094622
C26   C     C_R   0.429283 0.974835 0.466567 0.094560
C27   C     C_R   0.929278 0.525635 0.966587 0.094623
C28   C     C_R   0.070717 0.474837 0.033433 0.094560
C29   C     C_R   0.594965 0.022222 0.477662 0.079657
C30   C     C_R   0.405192 0.972219 0.522422 0.081072
C31   C     C_R   0.905035 0.522205 0.022338 0.079666
C32   C     C_R   0.094809 0.472232 0.977577 0.081071
C33   C     C_R   0.515085 0.008452 0.529718 0.070456
C34   C     C_R   0.484929 0.991810 0.470255 0.070566
C35   C     C_R   0.984915 0.508454 0.970281 0.070455
C36   C     C_R   0.015071 0.491806 0.029744 0.070567
C37   C     C_R   0.511467 0.991530 0.416574 -0.185901
C38   C     C_R   0.488632 0.005323 0.583456 -0.186246
C39   C     C_R   0.988533 0.491511 0.083426 -0.185902
C40   C     C_R   0.011368 0.505339 0.916544 -0.186245
C41   C     C_R   0.565189 0.005663 0.420409 -0.180074
C42   C     C_R   0.435014 0.986882 0.579696 -0.178912
C43   C     C_R   0.934811 0.505639 0.079590 -0.180075
C44   C     C_R   0.064986 0.486903 0.920304 -0.178913
H1    H     H_    0.583722 0.003281 0.377760 0.123500
H2    H     H_    0.416589 0.984758 0.622423 0.123833
H3    H     H_    0.916278 0.503247 0.122238 0.123501
H4    H     H_    0.083412 0.484788 0.877577 0.123834
H5    H     H_    0.411533 0.961043 0.365111 0.113443
H6    H     H_    0.588249 0.048215 0.634742 0.113374
H7    H     H_    0.088467 0.461033 0.134888 0.113443
H8    H     H_    0.911752 0.548227 0.865258 0.113374
H9    H     H_    0.667521 0.026080 0.436447 0.130648
H10   H     H_    0.333066 0.950429 0.564019 0.129704
H11   H     H_    0.832479 0.526045 0.063553 0.130640
H12   H     H_    0.166935 0.450457 0.935981 0.129706
H13   H     H_    0.491864 0.978949 0.370407 0.122173
H14   H     H_    0.508281 0.015683 0.629658 0.122198
H15   H     H_    0.008136 0.478923 0.129593 0.122173
H16   H     H_    0.991720 0.515705 0.870342 0.122198
C45   C     C_R   0.431767 0.796366 0.085528 -0.142682
C46   C     C_R   0.580997 0.203607 0.931615 -0.142257
C47   C     C_R   0.068233 0.296365 0.414473 -0.142681
C48   C     C_R   0.919004 0.703611 0.568386 -0.142255
H17   H     H_    0.453006 0.667591 0.074709 0.109505
H18   H     H_    0.569975 0.331150 0.956316 0.108093
H19   H     H_    0.046995 0.167589 0.425292 0.109504
H20   H     H_    0.930028 0.831156 0.543687 0.108090
C49   C     C_R   0.392532 0.781606 0.125581 -0.182915
C50   C     C_R   0.620021 0.218766 0.891329 -0.157581
C51   C     C_R   0.107469 0.281604 0.374420 -0.182914
C52   C     C_R   0.879981 0.718770 0.608672 -0.157585
H21   H     H_    0.384539 0.641332 0.144886 0.123149
H22   H     H_    0.638389 0.357929 0.886090 0.127890
H23   H     H_    0.115462 0.141330 0.355117 0.123146
H24   H     H_    0.861614 0.857935 0.613914 0.127888
C53   C     C_R   0.363869 0.946022 0.140148 -0.052631
C54   C     C_R   0.635723 0.055098 0.859129 -0.051799
C55   C     C_R   0.136130 0.446021 0.359851 -0.052630
C56   C     C_R   0.864276 0.555098 0.640869 -0.051803
C57   C     C_R   0.376159 0.125619 0.114188 -0.150352
C58   C     C_R   0.610552 0.877184 0.867435 -0.181274
C59   C     C_R   0.123839 0.625620 0.385809 -0.150349
C60   C     C_R   0.889444 0.377180 0.632560 -0.181265
H25   H     H_    0.355334 0.255710 0.124484 0.130911
H26   H     H_    0.621248 0.748202 0.843266 0.128030
H27   H     H_    0.144663 0.755712 0.375512 0.130907
H28   H     H_    0.878746 0.248195 0.656725 0.128033
C61   C     C_R   0.415284 0.140065 0.074298 -0.145305
C62   C     C_R   0.571555 0.862463 0.907537 -0.148017
C63   C     C_R   0.084714 0.640066 0.425699 -0.145305
C64   C     C_R   0.928441 0.362459 0.592458 -0.148022
H29   H     H_    0.423622 0.279939 0.054855 0.106320
H30   H     H_    0.553256 0.723381 0.913415 0.110459
H31   H     H_    0.076375 0.779941 0.445140 0.106319
H32   H     H_    0.946738 0.223375 0.586576 0.110456
C65   C     C_R   0.443258 0.975700 0.059517 0.131934
C66   C     C_R   0.556730 0.025033 0.940203 0.131815
C67   C     C_R   0.056741 0.475700 0.440482 0.131935
C68   C     C_R   0.943268 0.525033 0.559795 0.131817
C69   C     C_1   0.483459 0.992166 0.017639 -0.060734
C70   C     C_1   0.516848 0.007601 0.982468 -0.060421
C71   C     C_1   0.016539 0.492167 0.482359 -0.060734
C72   C     C_1   0.983150 0.507602 0.517530 -0.060419
O21   O     O_3   0.266270 0.924932 0.464747 -0.561185
C73   C     C_3   0.244334 0.107130 0.476487 0.087729
H33   H     H_    0.243093 0.199613 0.434247 0.129615
H34   H     H_    0.266248 0.184833 0.516132 0.115769
C74   C     C_3   0.189195 0.077603 0.492891 -0.697906
H35   H     H_    0.189625 0.989190 0.535800 0.220078
H36   H     H_    0.171102 0.220177 0.500821 0.191206
H37   H     H_    0.165691 0.001832 0.454512 0.214279
O22   O     O_3   0.734029 0.047143 0.535639 -0.561435
C75   C     C_3   0.751766 0.234968 0.522841 0.080526
H38   H     H_    0.751375 0.328092 0.564752 0.131767
H39   H     H_    0.727890 0.305019 0.483082 0.115611
C76   C     C_3   0.807202 0.221063 0.505983 -0.690340
H40   H     H_    0.807931 0.140269 0.461724 0.214751
H41   H     H_    0.823195 0.368648 0.500373 0.192208
H42   H     H_    0.831827 0.143397 0.543050 0.221243
O23   O     O_3   0.233730 0.424949 0.035253 -0.561186
C77   C     C_3   0.255666 0.607153 0.023518 0.087726
H43   H     H_    0.256909 0.699618 0.065762 0.129619
H44   H     H_    0.233749 0.684872 0.983878 0.115769
C78   C     C_3   0.310803 0.577634 0.007109 -0.697909
H45   H     H_    0.310371 0.489242 0.964195 0.220078
H46   H     H_    0.328896 0.720212 0.999184 0.191209
H47   H     H_    0.334309 0.501847 0.045483 0.214281
O24   O     O_3   0.765971 0.547121 0.964359 -0.561435
C79   C     C_3   0.748233 0.734931 0.977174 0.080526
H48   H     H_    0.748637 0.828109 0.935277 0.131759
H49   H     H_    0.772102 0.804924 0.016949 0.115617
C80   C     C_3   0.692791 0.721013 0.994009 -0.690354
H50   H     H_    0.692049 0.640162 0.038255 0.214754
H51   H     H_    0.676799 0.868593 0.999632 0.192206
H52   H     H_    0.668174 0.643399 0.956924 0.221244

loop_
_geom_bond_atom_site_label_1
_geom_bond_atom_site_label_2
_ccdc_geom_bond_type
O17   V3    S    
C48   C52   A    
O1    C5    A    
C80   H50   S    
C47   H19   S    
O19   V1    S    
C9    C21   A    
O12   C8    A    
O3    C7    A    
C10   C18   A    
C48   C68   A    
C11   C23   A    
O23   C77   S    
C25   C33   A    
C33   C38   A    
C5    C12   S    
C42   H2    S    
O7    C3    A    
C6    C11   S    
O5    C1    A    
C26   C30   A    
C58   C62   A    
C36   C39   A    
C40   C44   A    
C57   C61   A    
C23   H8    S    
C14   C18   A    
C78   H46   S    
C58   H26   S    
O4    C8    A    
C51   H23   S    
C44   H4    S    
C43   H3    S    
C50   H22   S    
O1    V3    S    
O13   V1    S    
C31   C43   A    
O2    V4    S    
O3    V1    S    
C40   H16   S    
C46   C50   A    
C65   C69   S    
C45   C49   A    
C1    O15   A    
C15   C31   A    
C48   H20   S    
C2    O16   A    
C16   C32   A    
C47   C51   A    
O2    C6    A    
C74   H37   S    
C16   H12   S    
C45   C65   A    
C10   C22   A    
C11   C19   A    
C16   C20   A    
O5    V1    S    
C1    C55   S    
C68   C72   S    
C13   C29   A    
C34   C37   A    
O11   C7    A    
C38   H14   S    
O15   V3    S    
C35   C36   A    
C80   H51   S    
C53   C57   A    
C24   H7    S    
C59   H27   S    
O10   V2    S    
C51   C55   A    
C77   H44   S    
O17   V1    S    
C39   C43   A    
C63   C67   A    
C38   C42   A    
O19   V3    S    
C26   C34   A    
O20   V4    S    
O7    V3    S    
C79   C80   S    
C46   H18   S    
C76   H42   S    
C49   C53   A    
C45   H17   S    
O18   V4    S    
C15   C19   A    
C14   H10   S    
C32   C44   A    
C13   H9    S    
C64   H32   S    
C39   H15   S    
C21   H6    S    
O8    V4    S    
C66   C70   S    
C73   H34   S    
C4    C54   S    
C37   C41   A    
C77   C78   S    
C67   C71   S    
C14   C30   A    
C21   C25   A    
O8    C4    A    
C7    C10   S    
C20   O23   S    
C35   C40   A    
O9    C5    A    
C3    C53   S    
C59   C63   A    
C79   H48   S    
C62   H30   S    
C75   H39   S    
C61   H29   S    
O6    V2    S    
O18   V2    S    
C80   H52   S    
C63   H31   S    
C52   C56   A    
C74   H35   S    
C78   H47   S    
C73   C74   S    
C27   C35   A    
C71   C72   T    
C49   H21   S    
C56   C60   A    
C29   C41   A    
C77   H43   S    
O16   V4    S    
O9    V1    S    
C17   O22   S    
C57   H25   S    
C3    O13   A    
C64   C68   A    
C79   H49   S    
C75   C76   S    
O6    C2    A    
C23   C27   A    
O11   V3    S    
C30   C42   A    
O12   V4    S    
O22   C75   S    
C22   C26   A    
C8    C9    S    
C9    C17   A    
O10   C6    A    
C76   H41   S    
C73   H33   S    
O21   C73   S    
O20   V2    S    
C37   H13   S    
C76   H40   S    
C47   C67   A    
C60   C64   A    
C33   C34   A    
C69   C70   T    
C41   H1    S    
C52   H24   S    
C2    C56   S    
C12   C24   A    
C18   O21   S    
C27   C31   A    
C13   C17   A    
C46   C66   A    
C25   C29   A    
C12   C20   A    
C75   H38   S    
O14   V2    S    
C62   C66   A    
C60   H28   S    
C24   C28   A    
C61   C65   A    
C50   C54   A    
C28   C36   A    
C54   C58   A    
C4    O14   A    
C74   H36   S    
C55   C59   A    
O24   C79   S    
C78   H45   S    
C19   O24   S    
C22   H5    S    
O4    V2    S    
C28   C32   A    
C15   H11   S    
