data_mof_unit_29789.cif
_audit_creation_date              2012-12-10T18:02:51-0500
_audit_creation_method            fapswitch 2.2
_symmetry_space_group_name_H-M    P1
_symmetry_Int_Tables_number       1
_space_group_crystal_system       triclinic
_cell_length_a                    10.825697
_cell_length_b                    9.503033
_cell_length_c                    27.783373
_cell_angle_alpha                 89.652778
_cell_angle_beta                  90.155775
_cell_angle_gamma                 90.01311
_cell_volume                      2858.20572337

loop_
_atom_site_label
_atom_site_type_symbol
_atom_type_description
_atom_site_fract_x
_atom_site_fract_y
_atom_site_fract_z
_atom_type_partial_charge
C1    C     C_R   0.262019 0.499991 0.499970 0.783851
C2    C     C_R   0.737980 0.500008 0.500037 0.793864
C3    C     C_R   0.495601 0.490164 0.101274 -0.053914
C4    C     C_R   0.498588 0.505110 0.898531 -0.054356
C5    C     C_R   0.389074 0.529898 0.126665 -0.059847
C6    C     C_R   0.610723 0.521215 0.873628 -0.056360
C7    C     C_R   0.284558 0.575370 0.101236 -0.258492
C8    C     C_R   0.720642 0.538380 0.899554 -0.259316
C9    C     C_R   0.601922 0.448011 0.126759 -0.053649
C10   C     C_R   0.387484 0.492123 0.872564 -0.052972
C11   C     C_R   0.500571 0.501372 0.353949 -0.113697
C12   C     C_R   0.502673 0.498484 0.645927 -0.113302
C13   C     C_R   0.383494 0.499965 0.974299 0.044740
C14   C     C_R   0.607728 0.468864 0.025280 0.044569
C15   C     C_R   0.610932 0.498641 0.975103 0.046576
C16   C     C_R   0.385048 0.521480 0.024915 0.043204
C17   C     C_R   0.497649 0.501395 0.949372 -0.093033
C18   C     C_R   0.496053 0.493283 0.050427 -0.093715
C19   C     C_R   0.273655 0.471686 0.947987 0.471739
C20   C     C_R   0.709624 0.410945 0.050877 0.475517
C21   C     C_R   0.276558 0.471886 0.897416 -0.259758
C22   C     C_R   0.706543 0.404554 0.101397 -0.257031
C23   C     C_R   0.500683 0.500554 0.407257 0.862139
C24   C     C_R   0.501309 0.499464 0.592699 0.865051
C25   C     C_R   0.282368 0.575329 0.050654 0.476344
C26   C     C_R   0.721668 0.531088 0.950076 0.473058
C27   C     C_R   0.063839 0.372088 0.500125 -0.173367
C28   C     C_R   0.936155 0.627910 0.499898 -0.170642
C29   C     C_R   0.936101 0.372098 0.500181 -0.170279
C30   C     C_R   0.063893 0.627900 0.499846 -0.173880
C31   C     C_R   0.871790 0.500010 0.500050 -0.015552
C32   C     C_R   0.128206 0.499989 0.499969 -0.014410
C33   C     C_R   0.422488 0.074968 0.470318 -0.026180
C34   C     C_R   0.577568 0.925033 0.529659 -0.025790
C35   C     C_R   0.577591 0.073975 0.529648 0.009635
C36   C     C_R   0.422516 0.926021 0.470307 0.017069
C37   C     C_R   0.391462 0.528619 0.177205 0.628270
C38   C     C_R   0.609710 0.523296 0.823102 0.628724
C39   C     C_R   0.600026 0.447444 0.177284 0.603689
C40   C     C_R   0.390815 0.493865 0.822034 0.603231
C41   C     C_R   0.481551 0.370437 0.279479 -0.191067
C42   C     C_R   0.472897 0.625395 0.720577 -0.191613
C43   C     C_R   0.480947 0.374290 0.329478 -0.291526
C44   C     C_R   0.471516 0.622070 0.670566 -0.292986
C45   C     C_R   0.522100 0.626492 0.327239 0.276938
C46   C     C_R   0.537174 0.376714 0.672345 0.282017
C47   C     C_R   0.515778 0.622968 0.276161 0.362144
C48   C     C_R   0.532073 0.378848 0.723436 0.365712
C49   C     C_R   0.498489 0.493859 0.252860 0.293082
C50   C     C_R   0.502901 0.504692 0.746963 0.291079
Cu1   Cu    Cu3+1 0.500000 0.640660 0.500000 0.973004
Cu2   Cu    Cu3+1 0.500000 0.359340 0.500000 0.972259
N1    N     N_R   0.496169 0.488576 0.201307 -0.441222
N2    N     N_R   0.500901 0.508765 0.798517 -0.441683
N3    N     N_R   0.500000 0.852070 0.500000 -0.161923
N4    N     N_R   0.500000 0.147930 0.500000 -0.164124
O1    O     O_R   0.319640 0.618740 0.500000 -0.596355
O2    O     O_R   0.680360 0.381260 0.500000 -0.591575
O3    O     O_R   0.680360 0.618740 0.500000 -0.588612
O4    O     O_R   0.319640 0.381260 0.500000 -0.592925
O5    O     O_R   0.500020 0.618770 0.430260 -0.518362
O6    O     O_R   0.499980 0.381230 0.569740 -0.520364
O7    O     O_R   0.499980 0.618770 0.569740 -0.602670
O8    O     O_R   0.500020 0.381230 0.430260 -0.601190
O9    O     O_2   0.290313 0.567401 0.202119 -0.519190
O10   O     O_2   0.716458 0.539029 0.798671 -0.515689
O11   O     O_2   0.285262 0.479673 0.796566 -0.519764
O12   O     O_2   0.701409 0.407695 0.202254 -0.520029
O13   O     O_3   0.552306 0.748278 0.351498 -0.721241
H1    H     H_    0.605292 0.807515 0.330609 0.333937
O14   O     O_3   0.578899 0.260195 0.647735 -0.735240
H2    H     H_    0.637654 0.207638 0.668465 0.330317
H3    H     H_    0.360446 0.131616 0.446555 0.121068
H4    H     H_    0.639667 0.868392 0.553399 0.125923
H5    H     H_    0.639760 0.129819 0.553354 0.151543
H6    H     H_    0.360523 0.870160 0.446532 0.132579
O15   O     O_3   0.525071 0.742641 0.247967 -0.711721
H7    H     H_    0.495293 0.824160 0.266683 0.333343
O16   O     O_3   0.552706 0.260564 0.751426 -0.711481
H8    H     H_    0.531236 0.176088 0.732469 0.332042
H9    H     H_    0.204990 0.614269 0.120623 0.189064
H10   H     H_    0.806060 0.559752 0.880633 0.185359
H11   H     H_    0.445949 0.716826 0.651104 0.193736
H12   H     H_    0.465425 0.276969 0.349036 0.190515
H13   H     H_    0.449246 0.721757 0.739007 0.173981
H14   H     H_    0.467132 0.271366 0.261238 0.173087
H15   H     H_    0.191913 0.452988 0.877585 0.187158
H16   H     H_    0.785844 0.363491 0.120763 0.188374
O17   O     O_3   0.167978 0.429671 0.971954 -0.670839
H17   H     H_    0.100855 0.412342 0.948356 0.333967
O18   O     O_3   0.805467 0.348556 0.026075 -0.673033
H18   H     H_    0.867738 0.312140 0.049242 0.337055
O19   O     O_3   0.186901 0.640880 0.026123 -0.674390
H19   H     H_    0.123938 0.673677 0.049363 0.337985
O20   O     O_3   0.826478 0.569141 0.975417 -0.670912
H20   H     H_    0.894398 0.590246 0.952599 0.335215
H21   H     H_    0.111890 0.272106 0.500213 0.151817
H22   H     H_    0.888104 0.727892 0.499807 0.152960
H23   H     H_    0.888007 0.272118 0.500325 0.151847
H24   H     H_    0.111986 0.727880 0.499707 0.150892

loop_
_geom_bond_atom_site_label_1
_geom_bond_atom_site_label_2
_ccdc_geom_bond_type
C21   H15   S    
C25   O19   S    
O19   H19   S    
C5    C37   A    
C27   C29   A    
C8    C26   A    
C39   O12   S    
C14   C18   A    
O20   H20   S    
Cu1   O5    S    
C44   H11   S    
C47   C49   A    
O15   H7    S    
C41   H14   S    
C35   H5    S    
C50   N2    S    
C3    C9    A    
C48   O16   S    
C19   C21   A    
C9    C22   A    
C30   H24   S    
C9    C39   A    
C33   C36   A    
C3    C18   A    
C10   C40   A    
C34   C35   A    
Cu2   O4    S    
C38   O10   S    
C40   O11   S    
C37   O9    S    
C6    C38   A    
C11   C43   A    
Cu1   O1    S    
C22   H16   S    
C36   H6    S    
C37   N1    A    
C33   N4    A    
C48   C50   A    
C35   N4    A    
C34   N3    A    
C43   H12   S    
C41   C43   A    
C42   C44   A    
C26   O20   S    
C41   C49   A    
C45   C47   A    
C10   C21   A    
C20   O18   S    
C46   C48   A    
C29   H23   S    
C45   O13   S    
Cu1   Cu2   S    
C14   C20   A    
Cu1   O7    S    
C4    C6    A    
Cu2   O8    S    
C1    O4    A    
O18   H18   S    
C5    C7    A    
C13   C19   A    
C2    O3    A    
C15   C26   A    
C6    C8    A    
C1    C32   S    
C2    C31   S    
C12   C46   A    
C19   O17   S    
C1    O1    A    
C38   N2    A    
C42   H13   S    
C46   O14   S    
Cu2   O2    S    
C34   H4    S    
C4    C17   A    
C33   H3    S    
C23   O8    A    
C7    H9    S    
C42   C50   A    
C24   O7    A    
C40   N2    A    
C8    H10   S    
C11   C45   A    
Cu1   O3    S    
C47   O15   S    
C4    C10   A    
C28   H22   S    
C16   C25   A    
C15   C17   A    
C27   H21   S    
C24   O6    A    
C27   C32   A    
C28   C31   A    
C20   C22   A    
C3    C5    A    
C2    O2    A    
C12   C24   S    
C7    C25   A    
C13   C17   A    
C28   C30   A    
O14   H2    S    
C29   C31   A    
C36   N3    A    
Cu2   O6    S    
C30   C32   A    
C39   N1    A    
C49   N1    S    
C11   C23   S    
Cu1   N3    S    
O13   H1    S    
O16   H8    S    
C23   O5    A    
C16   C18   A    
C13   C16   A    
C14   C15   A    
C12   C44   A    
O17   H17   S    
Cu2   N4    S    
