data_mof_unit_61300.cif
_audit_creation_date              2012-12-10T18:14:37-0500
_audit_creation_method            fapswitch 2.2
_symmetry_space_group_name_H-M    P1
_symmetry_Int_Tables_number       1
_space_group_crystal_system       triclinic
_cell_length_a                    42.268312
_cell_length_b                    29.204935
_cell_length_c                    30.606961
_cell_angle_alpha                 89.993226
_cell_angle_beta                  136.292615
_cell_angle_gamma                 90.004941
_cell_volume                      26106.8251934

loop_
_atom_site_label
_atom_site_type_symbol
_atom_type_description
_atom_site_fract_x
_atom_site_fract_y
_atom_site_fract_z
_atom_type_partial_charge
C1    C     C_R   0.586688 0.500000 0.587097 0.912709
C2    C     C_1   0.996933 0.000083 0.332122 0.153941
C3    C     C_3   0.522945 0.543282 0.244113 0.058644
C4    C     C_3   0.025351 0.958649 0.247397 0.104215
C5    C     C_3   0.019707 0.044756 0.240820 0.058184
C6    C     C_1   0.499436 0.500013 0.119905 -0.080988
C7    C     C_1   0.999435 0.999861 0.119904 -0.081050
C8    C     C_3   0.495802 0.500400 0.284836 -0.275116
C9    C     C_3   0.995758 0.000124 0.284792 -0.275094
C10   C     C_3   0.495825 0.500224 0.200424 -0.245082
C11   C     C_3   0.995805 0.999803 0.200405 -0.245065
C12   C     C_1   0.427373 0.554846 0.210719 0.357537
C13   C     C_1   0.498646 0.500059 0.371862 -0.088708
C14   C     C_1   0.410319 0.479124 0.204969 0.339893
C15   C     C_1   0.923536 0.049417 0.206807 0.357127
C16   C     C_1   0.912056 0.972671 0.206735 0.339989
C17   C     C_1   0.998627 0.000029 0.371843 -0.088650
C18   C     C_1   0.637270 0.500000 0.637606 -0.185369
C19   C     C_1   0.137270 1.000000 0.637606 -0.185305
C20   C     C_1   0.679409 0.500000 0.679694 0.032975
C21   C     C_1   0.179409 1.000000 0.679694 0.033010
C22   C     C_1   0.729145 0.500000 0.729383 0.032311
C23   C     C_1   0.229145 1.000000 0.729383 0.032335
C24   C     C_1   0.771282 0.500000 0.771486 0.028942
C25   C     C_R   0.086688 0.000000 0.587097 0.912707
C26   C     C_1   0.271282 1.000000 0.771486 0.028962
C27   C     C_1   0.821018 0.500000 0.821181 0.023625
C28   C     C_1   0.321018 1.000000 0.821181 0.023639
C29   C     C_R   0.500657 0.500007 0.418384 0.940585
C30   C     C_R   0.000660 0.000005 0.418387 0.940491
C31   C     C_1   0.863157 0.500000 0.863277 -0.194798
C32   C     C_1   0.363157 1.000000 0.863277 -0.194793
C33   C     C_1   0.500004 0.499994 0.636070 -0.205275
C34   C     C_1   0.000004 0.999994 0.636070 -0.205261
C35   C     C_1   0.500035 0.499993 0.677269 0.028320
C36   C     C_3   0.444264 0.500697 0.165025 0.654049
C37   C     C_1   0.000035 0.999993 0.677269 0.028328
C38   C     C_1   0.500072 0.499994 0.726310 0.016884
C39   C     C_1   0.000072 0.999994 0.726310 0.016890
C40   C     C_1   0.500100 0.499995 0.767507 0.016834
C41   C     C_1   0.000100 0.999995 0.767507 0.016839
C42   C     C_1   0.500124 0.499997 0.816535 0.027852
C43   C     C_1   0.000124 0.999997 0.816535 0.027857
C44   C     C_1   0.500123 0.499998 0.857702 -0.204193
C45   C     C_1   0.000123 0.999998 0.857702 -0.204190
C46   C     C_1   0.362676 0.499999 0.362923 -0.199903
C47   C     C_3   0.944344 0.996540 0.165105 0.654046
C48   C     C_1   0.862676 0.999999 0.362924 -0.200094
C49   C     C_1   0.320540 0.499999 0.320691 0.022240
C50   C     C_1   0.820540 0.999999 0.320692 0.022026
C51   C     C_1   0.270807 0.499999 0.270866 0.025125
C52   C     C_1   0.770807 0.999999 0.270866 0.024953
C53   C     C_R   0.413255 0.500000 0.413629 0.900570
C54   C     C_R   0.913255 1.000000 0.413629 0.900429
C55   C     C_1   0.228672 0.499999 0.228669 0.024161
C56   C     C_1   0.728672 0.999999 0.228670 0.024038
C57   C     C_1   0.178939 0.499999 0.178890 0.020566
C58   C     C_3   0.444379 0.508529 0.216433 -0.297727
C59   C     C_1   0.678939 0.999999 0.178890 0.020478
C60   C     C_1   0.136802 0.500000 0.136745 -0.196810
C61   C     C_1   0.636802 1.000000 0.136745 -0.196879
C62   C     C_R   0.500030 0.586641 0.994584 0.909465
C63   C     C_R   0.500030 0.413359 0.994585 0.911073
C64   C     C_R   0.000030 0.086641 0.994583 0.908789
C65   C     C_R   0.000030 0.913359 0.994586 0.911533
C66   C     C_R   0.499942 0.499951 0.075853 0.943737
C67   C     C_R   0.999942 0.000009 0.075853 0.943454
C68   C     C_R   0.500064 0.500000 0.907532 0.881380
C69   C     C_3   0.943880 0.004446 0.215923 -0.297678
C70   C     C_R   0.000064 1.000000 0.907532 0.881381
C71   C     C_R   0.000015 0.413730 0.999135 0.894072
C72   C     C_R   0.000015 0.586270 0.999131 0.894080
C73   C     C_R   0.500015 0.913730 0.999135 0.894072
C74   C     C_R   0.500015 0.086270 0.999131 0.894096
C75   C     C_R   0.913741 0.500000 0.913787 0.894643
C76   C     C_R   0.413741 0.000000 0.913787 0.894663
C77   C     C_R   0.086221 0.500000 0.086214 0.893905
C78   C     C_R   0.586221 1.000000 0.086214 0.893902
C79   C     C_1   0.500038 0.637229 0.995431 -0.188273
C80   C     C_1   0.497919 0.500072 0.156438 0.209035
C81   C     C_1   0.500038 0.362771 0.995431 -0.186320
C82   C     C_1   0.000038 0.137229 0.995430 -0.188717
C83   C     C_1   0.000038 0.862771 0.995432 -0.186060
C84   C     C_R   0.499972 0.499998 0.586150 0.882065
C85   C     C_R   0.999972 0.999998 0.586150 0.882056
C86   C     C_1   0.500039 0.679368 0.996179 0.031727
C87   C     C_1   0.500040 0.320632 0.996178 0.033311
C88   C     C_1   0.000039 0.179368 0.996178 0.031375
C89   C     C_1   0.000040 0.820632 0.996178 0.033531
C90   C     C_1   0.500037 0.729108 0.997062 0.031653
C91   C     C_1   0.997913 0.999750 0.156432 0.209047
C92   C     C_1   0.500038 0.270892 0.997056 0.032781
C93   C     C_1   0.000037 0.229108 0.997061 0.031463
C94   C     C_1   0.000038 0.770892 0.997056 0.032915
C95   C     C_1   0.000034 0.271247 0.997768 0.028362
C96   C     C_1   0.000035 0.728753 0.997760 0.029288
C97   C     C_1   0.500034 0.771247 0.997768 0.028445
C98   C     C_1   0.500035 0.228752 0.997760 0.029213
C99   C     C_1   0.000028 0.320990 0.998502 0.023243
C100  C     C_1   0.000030 0.679010 0.998490 0.023786
C101  C     C_1   0.500029 0.820990 0.998502 0.023265
C102  C     C_1   0.496970 0.500209 0.332159 0.153986
C103  C     C_1   0.500029 0.179010 0.998490 0.023747
C104  C     C_1   0.000023 0.363134 0.998954 -0.195269
C105  C     C_1   0.000024 0.636866 0.998943 -0.194957
C106  C     C_1   0.500023 0.863134 0.998954 -0.195282
C107  C     C_1   0.500023 0.136866 0.998942 -0.194983
C108  C     C_3   0.528078 0.540862 0.299903 0.575004
C109  C     C_3   0.514334 0.452129 0.286239 0.612144
C110  C     C_3   0.024996 0.042803 0.296770 0.575354
C111  C     C_3   0.017766 0.953304 0.289734 0.611872
C112  C     C_3   0.522288 0.456991 0.244278 0.103828
Cl1   Cl    Cl    0.587703 0.532841 0.372180 -0.490023
Cl2   Cl    Cl    0.501291 0.597011 0.202086 -0.434105
Cl3   Cl    Cl    0.021068 0.905791 0.212652 -0.414330
Cl4   Cl    Cl    0.994194 0.096729 0.194861 -0.434218
Cl5   Cl    Cl    0.409980 0.542512 0.101665 -0.473907
Cl6   Cl    Cl    0.416054 0.448135 0.120952 -0.426368
Cl7   Cl    Cl    0.907104 0.035694 0.098731 -0.473307
Cl8   Cl    Cl    0.920046 0.942034 0.125016 -0.427020
Cl9   Cl    Cl    0.566603 0.433042 0.363957 -0.445671
Cl10  Cl    Cl    0.085046 0.039176 0.369483 -0.489595
Cl11  Cl    Cl    0.071287 0.938123 0.368728 -0.446507
Cl12  Cl    Cl    0.476932 0.404996 0.262120 -0.413102
Cl13  Cl    Cl    0.518168 0.595114 0.316869 -0.445933
Cl14  Cl    Cl    0.983903 0.903588 0.269220 -0.413023
Cl15  Cl    Cl    0.011147 0.096229 0.309723 -0.445625
Cl16  Cl    Cl    0.514164 0.404634 0.205623 -0.414901
H1    H     H_    0.557740 0.542038 0.263969 0.169729
H2    H     H_    0.559430 0.463594 0.276093 0.158644
H3    H     H_    0.054503 0.046032 0.260680 0.169558
H4    H     H_    0.061912 0.967936 0.278621 0.158690
N1    N     N_1   0.413207 0.590729 0.205373 -0.078098
N2    N     N_1   0.383522 0.456546 0.195933 -0.115730
N3    N     N_1   0.906787 0.084184 0.198828 -0.078359
N4    N     N_1   0.886977 0.948225 0.199449 -0.115205
O1    O     O_R   0.563110 0.535630 0.563620 -0.591157
O2    O     O_R   0.500010 0.063160 0.964010 -0.591024
O3    O     O_R   0.000000 0.436830 0.034310 -0.589240
O4    O     O_R   0.000000 0.563170 0.034310 -0.588699
O5    O     O_R   0.500000 0.936830 0.034310 -0.589216
O6    O     O_R   0.500000 0.063170 0.034310 -0.588721
O7    O     O_R   0.936840 0.500000 0.901700 -0.588868
O8    O     O_R   0.436840 0.000000 0.901700 -0.588861
O9    O     O_R   0.936840 0.500000 0.972000 -0.590798
O10   O     O_R   0.436840 0.000000 0.972000 -0.590799
O11   O     O_R   0.063130 0.500000 0.028000 -0.590191
O12   O     O_R   0.563110 0.464370 0.563620 -0.591056
O13   O     O_R   0.563130 0.000000 0.028000 -0.590238
O14   O     O_R   0.063120 0.500000 0.098300 -0.590349
O15   O     O_R   0.563120 0.000000 0.098300 -0.590339
O16   O     O_R   0.499970 0.535640 0.438200 -0.599602
O17   O     O_R   0.499970 0.464360 0.438200 -0.595035
O18   O     O_R   0.999970 0.035640 0.438200 -0.598165
O19   O     O_R   0.999970 0.964360 0.438200 -0.596316
O20   O     O_R   0.436830 0.535630 0.437320 -0.595301
O21   O     O_R   0.436830 0.464370 0.437320 -0.592759
O22   O     O_R   0.936830 0.035630 0.437320 -0.594853
O23   O     O_R   0.063110 0.035630 0.563620 -0.591177
O24   O     O_R   0.936830 0.964370 0.437320 -0.593167
O25   O     O_R   0.499970 0.535630 0.562740 -0.591978
O26   O     O_R   0.499970 0.464370 0.562740 -0.592111
O27   O     O_R   0.999970 0.035630 0.562740 -0.591982
O28   O     O_R   0.999970 0.964370 0.562740 -0.592098
O29   O     O_R   0.535670 0.563060 0.029670 -0.595631
O30   O     O_R   0.535670 0.436940 0.029670 -0.594611
O31   O     O_R   0.035670 0.063060 0.029670 -0.595942
O32   O     O_R   0.035670 0.936940 0.029670 -0.594179
O33   O     O_R   0.464380 0.563080 0.958370 -0.589689
O34   O     O_R   0.063110 0.964370 0.563620 -0.591040
O35   O     O_R   0.464380 0.436920 0.958370 -0.590295
O36   O     O_R   0.964380 0.063080 0.958370 -0.589668
O37   O     O_R   0.964380 0.936920 0.958370 -0.590412
O38   O     O_R   0.535670 0.500000 0.091080 -0.614001
O39   O     O_R   0.035670 0.000000 0.091080 -0.613675
O40   O     O_R   0.464370 0.500000 0.019780 -0.581676
O41   O     O_R   0.964370 0.000000 0.019780 -0.581700
O42   O     O_R   0.535670 0.500000 0.966540 -0.593735
O43   O     O_R   0.035670 0.000000 0.966540 -0.593729
O44   O     O_R   0.464380 0.500000 0.895240 -0.593631
O45   O     O_R   0.964380 1.000000 0.895240 -0.593632
O46   O     O_R   0.000010 0.436840 0.964010 -0.590681
O47   O     O_R   0.000010 0.563160 0.964010 -0.591036
O48   O     O_R   0.500010 0.936840 0.964010 -0.590717
Zn1   Zn    Zn3+2 0.499970 0.547590 0.500630 1.024807
Zn2   Zn    Zn3+2 0.499990 0.000000 0.953050 1.002958
Zn3   Zn    Zn3+2 0.999980 0.500000 0.046950 1.004991
Zn4   Zn    Zn3+2 0.499980 0.000000 0.046950 1.004959
Zn5   Zn    Zn3+2 0.499970 0.452410 0.500630 1.029531
Zn6   Zn    Zn3+2 0.999970 0.047590 0.500630 1.026031
Zn7   Zn    Zn3+2 0.999970 0.952410 0.500630 1.028572
Zn8   Zn    Zn3+2 0.547630 0.500000 0.040770 1.012199
Zn9   Zn    Zn3+2 0.047630 0.000000 0.040770 1.012473
Zn10  Zn    Zn3+2 0.452420 0.500000 0.945550 1.039770
Zn11  Zn    Zn3+2 0.952420 0.000000 0.945550 1.039689
Zn12  Zn    Zn3+2 0.999990 0.500000 0.953050 1.003047

loop_
_geom_bond_atom_site_label_1
_geom_bond_atom_site_label_2
_ccdc_geom_bond_type
C25   O34   A    
C9    C111  S    
C71   C104  S    
C75   O7    A    
C34   C37   T    
C41   C43   S    
C4    Cl3   S    
C11   C47   S    
O23   Zn6   S    
C24   C27   S    
C92   C98   T    
C39   C41   T    
O8    Zn2   S    
O20   Zn1   S    
C75   O9    A    
C48   C54   S    
C74   O2    A    
C46   C49   T    
C100  C105  T    
C6    C66   S    
O9    Zn3   S    
O10   Zn4   S    
O2    Zn2   S    
C9    C69   S    
C5    C11   S    
C64   O31   A    
C36   C58   S    
O22   Zn6   S    
C15   C69   S    
C95   C99   S    
C70   O43   A    
C65   C83   S    
C15   N3    T    
C5    C110  S    
C98   C103  S    
O12   Zn5   S    
O29   Zn8   S    
C18   C20   T    
C23   C26   T    
C68   O42   A    
C89   C94   S    
C47   C69   S    
C83   C89   T    
O25   Zn1   S    
C8    C58   S    
C74   C107  S    
C63   O35   A    
C63   O30   A    
C67   O39   A    
C49   C51   S    
O37   Zn11  S    
C50   C52   S    
C10   C112  S    
C108  Cl13  S    
C40   C42   S    
O28   Zn7   S    
C36   Cl6   S    
C77   O11   A    
C90   C97   T    
C51   C55   T    
C110  Cl15  S    
C12   C58   S    
C48   C50   T    
C99   C104  T    
C74   O6    A    
C76   O10   A    
O13   Zn2   S    
C93   C95   T    
C87   C92   S    
C2    C17   T    
C17   C30   S    
O31   Zn9   S    
C71   O46   A    
C66   O40   A    
C42   C44   T    
O35   Zn10  S    
O3    Zn3   S    
C8    C108  S    
C78   O15   A    
O1    Zn1   S    
O15   Zn4   S    
C14   C58   S    
C60   C77   S    
C59   C61   T    
C1    O1    A    
C27   C31   T    
C62   C79   S    
C28   C32   T    
C35   C38   S    
O24   Zn7   S    
C4    H4    S    
C86   C90   S    
C109  C112  S    
O14   Zn3   S    
C73   O48   A    
C10   C80   S    
O17   Zn5   S    
C57   C60   T    
C73   O5    A    
C14   N2    T    
C111  Cl11  S    
O34   Zn7   S    
C68   O44   A    
C10   C36   S    
C34   C85   S    
C108  Cl1   S    
C64   O36   A    
C25   O23   A    
C54   O22   A    
O42   Zn8   S    
C70   O45   A    
C6    C80   T    
C65   O32   A    
C30   O18   A    
C61   C78   S    
C7    C91   T    
C111  Cl14  S    
O47   Zn12  S    
C1    C18   S    
O11   Zn12  S    
O5    Zn4   S    
C4    C11   S    
C94   C96   T    
C36   Cl5   S    
C43   C45   T    
C64   C82   S    
C81   C87   T    
O19   Zn7   S    
C76   O8    A    
C30   O19   A    
C4    C111  S    
C63   C81   S    
C12   N1    T    
C21   C23   S    
C5    Cl4   S    
C67   O41   A    
C85   O27   A    
C22   C24   T    
C44   C68   S    
O46   Zn12  S    
C16   N4    T    
C31   C75   S    
C84   O26   A    
C29   O17   A    
O43   Zn9   S    
C13   C29   S    
C101  C106  T    
C62   O33   A    
C88   C93   S    
C47   Cl8   S    
O41   Zn11  S    
C65   O37   A    
C45   C70   S    
C3    H1    S    
O4    Zn3   S    
C53   O21   A    
C16   C69   S    
C72   O47   A    
C20   C22   S    
O16   Zn1   S    
O36   Zn11  S    
C3    Cl2   S    
C77   O14   A    
C32   C76   S    
C71   O3    A    
C109  Cl12  S    
O33   Zn10  S    
C9    C110  S    
C3    C108  S    
C5    H3    S    
O6    Zn4   S    
C26   C28   S    
C56   C59   S    
O32   Zn9   S    
C112  H2    S    
C55   C57   S    
C37   C39   S    
C3    C10   S    
C8    C109  S    
C110  Cl10  S    
C29   O16   A    
C38   C40   T    
C109  Cl9   S    
C73   C106  S    
O44   Zn10  S    
C82   C88   T    
O7    Zn12  S    
C96   C100  S    
C46   C53   S    
C47   Cl7   S    
C33   C35   T    
O48   Zn2   S    
O27   Zn6   S    
O30   Zn8   S    
C79   C86   T    
O18   Zn6   S    
O45   Zn11  S    
C33   C84   S    
O21   Zn5   S    
C112  Cl16  S    
C19   C25   S    
C54   O24   A    
C11   C91   S    
C72   O4    A    
C62   O29   A    
C72   C105  S    
C53   O20   A    
C7    C67   S    
C85   O28   A    
C66   O38   A    
C1    O12   A    
C103  C107  T    
O40   Zn10  S    
C13   C102  T    
C2    C9    S    
C8    C102  S    
O39   Zn9   S    
O26   Zn5   S    
C97   C101  S    
C84   O25   A    
C52   C56   T    
C78   O13   A    
O38   Zn8   S    
C19   C21   T    
