data_mof_unit_8495.cif
_audit_creation_date              2012-12-11T16:09:25-0500
_audit_creation_method            fapswitch 2.2
_symmetry_space_group_name_H-M    P1
_symmetry_Int_Tables_number       1
_space_group_crystal_system       triclinic
_cell_length_a                    7.085776
_cell_length_b                    21.249872
_cell_length_c                    23.616209
_cell_angle_alpha                 90.108936
_cell_angle_beta                  92.284215
_cell_angle_gamma                 92.214532
_cell_volume                      3550.43564226

loop_
_atom_site_label
_atom_site_type_symbol
_atom_type_description
_atom_site_fract_x
_atom_site_fract_y
_atom_site_fract_z
_atom_type_partial_charge
O1    O     O_R   0.494270 0.443530 0.442350 -0.530421
O2    O     O_R   0.824060 0.436290 0.557250 -0.527843
O3    O     O_R   0.994370 0.556470 0.557650 -0.531307
C1    C     C_R   0.655253 0.421391 0.576334 0.711710
O4    O     O_R   0.823990 0.436120 0.442760 -0.534694
O5    O     O_R   0.994300 0.556300 0.442340 -0.536069
C2    C     C_R   0.649092 0.420940 0.423866 0.707377
O6    O     O_R   0.494350 0.443700 0.557660 -0.530905
O7    O     O_3   0.660800 0.539430 0.500000 -0.376037
V1    V     V_3+5 0.935650 0.492690 0.500000 1.469546
O8    O     O_R   0.324020 0.563710 0.442750 -0.536123
C3    C     C_R   0.155047 0.578836 0.423639 0.728632
O9    O     O_R   0.324090 0.563880 0.557240 -0.539776
C4    C     C_R   0.160339 0.579052 0.576598 0.726930
V2    V     V_3+5 0.435660 0.507310 0.500000 1.464509
O10   O     O_3   0.160640 0.460570 0.500000 -0.367415
C5    C     C_3   0.999942 0.721903 0.787366 -0.115392
C6    C     C_3   0.195503 0.697239 0.772099 -0.282388
H1    H     H_    0.261566 0.654790 0.790097 0.165370
H2    H     H_    0.904030 0.699163 0.817929 0.178075
C7    C     C_1   0.163337 0.625004 0.622455 -0.178509
C8    C     C_1   0.057288 0.874098 0.876959 -0.083276
C9    C     C_3   0.950940 0.732584 0.723079 -0.106700
C10   C     C_3   0.146637 0.708678 0.708319 -0.022891
C11   C     C_3   0.039720 0.800052 0.728333 0.291562
C12   C     C_3   0.085836 0.790072 0.791890 -0.029570
C13   C     C_3   0.232617 0.776311 0.713616 0.213860
C14   C     C_3   0.279649 0.765682 0.777024 0.384871
C15   C     C_1   0.161345 0.662941 0.661109 0.019393
C16   C     C_1   0.063361 0.836002 0.838582 0.155646
H3    H     H_    0.815233 0.718758 0.700445 0.146423
C17   C     C_3   0.280421 0.804547 0.245497 -0.332189
C18   C     C_3   0.915137 0.791706 0.244511 0.187903
C19   C     C_3   0.940376 0.748519 0.297470 -0.378200
H4    H     H_    0.300953 0.782938 0.336268 0.142341
H5    H     H_    0.293523 0.853211 0.262163 0.148688
H6    H     H_    0.799461 0.768666 0.217512 0.086624
H7    H     H_    0.949357 0.776725 0.337236 0.156324
H8    H     H_    0.813927 0.716069 0.300221 0.119783
C20   C     C_1   0.144858 0.625001 0.378406 -0.167627
C21   C     C_3   0.096184 0.792164 0.208073 0.253283
C22   C     C_3   0.293554 0.756887 0.295267 -0.343111
C23   C     C_3   0.120858 0.709780 0.293148 0.245537
C24   C     C_3   0.114057 0.675704 0.234659 -0.322788
C25   C     C_3   0.108741 0.723924 0.184918 -0.413689
C26   C     C_1   0.134759 0.663299 0.340273 -0.067423
C27   C     C_1   0.083861 0.837830 0.160294 -0.041127
C28   C     C_1   0.074376 0.875353 0.121575 -0.153151
H9    H     H_    0.237744 0.720016 0.159931 0.168404
H10   H     H_    0.985766 0.711949 0.155558 0.152229
H11   H     H_    0.239939 0.646389 0.231284 0.165305
H12   H     H_    0.405311 0.799643 0.218900 0.143578
H13   H     H_    0.426413 0.730884 0.292855 0.143505
H14   H     H_    0.986706 0.643409 0.231018 0.157559
C29   C     C_3   0.474272 0.237602 0.693518 -0.387352
C30   C     C_3   0.811807 0.260988 0.718685 0.318134
C31   C     C_3   0.800411 0.210686 0.767471 -0.457978
H15   H     H_    0.487543 0.142913 0.728963 0.128725
H16   H     H_    0.519591 0.211528 0.655768 0.127398
H17   H     H_    0.844284 0.234965 0.679503 0.029503
H18   H     H_    0.828437 0.163354 0.750096 0.139982
H19   H     H_    0.909224 0.219856 0.801899 0.242335
C32   C     C_1   0.576728 0.124020 0.877861 -0.098526
C33   C     C_3   0.619294 0.292407 0.708078 0.062279
C34   C     C_3   0.458795 0.191055 0.744290 -0.290034
C35   C     C_3   0.603125 0.209626 0.793431 0.044461
C36   C     C_3   0.576774 0.278620 0.814912 0.371811
C37   C     C_3   0.559207 0.324722 0.763608 -0.279431
C38   C     C_1   0.590908 0.162397 0.840010 0.056742
C39   C     C_1   0.629707 0.338199 0.660339 0.036195
C40   C     C_1   0.642952 0.375811 0.621845 -0.117037
H20   H     H_    0.417714 0.343295 0.757110 0.267103
H21   H     H_    0.642448 0.368608 0.773223 0.183993
H22   H     H_    0.334721 0.255547 0.680870 0.226785
H23   H     H_    0.313375 0.187342 0.759657 0.228868
H24   H     H_    0.710068 0.293664 0.838611 0.111197
C41   C     C_3   0.385005 0.287410 0.254209 0.212976
C42   C     C_3   0.736223 0.311778 0.252792 -0.308408
C43   C     C_3   0.737529 0.269188 0.199247 0.032139
H25   H     H_    0.872872 0.307578 0.276811 0.171324
H26   H     H_    0.729495 0.362376 0.243179 0.244275
H27   H     H_    0.882157 0.253348 0.199059 0.230489
C44   C     C_1   0.597804 0.123958 0.120898 0.033534
C45   C     C_3   0.577065 0.291060 0.292079 -0.130610
C46   C     C_3   0.386774 0.229756 0.208076 0.574244
C47   C     C_3   0.601035 0.208362 0.206596 -0.264074
C48   C     C_3   0.675365 0.181194 0.266496 0.322719
C49   C     C_3   0.616201 0.223457 0.315693 -0.059346
C50   C     C_1   0.614204 0.161923 0.159521 0.270743
C51   C     C_1   0.587364 0.337113 0.340301 0.152109
C52   C     C_1   0.617681 0.374951 0.378630 -0.148726
H28   H     H_    0.483517 0.203722 0.332524 0.220159
H29   H     H_    0.272164 0.275843 0.284115 0.097088
H30   H     H_    0.830372 0.188140 0.267478 0.183561
O11   O     O_R   0.724990 0.055630 0.941600 -0.540297
O12   O     O_R   0.395220 0.063160 0.056480 -0.506564
O13   O     O_R   0.225040 0.942970 0.056870 -0.540558
C53   C     C_R   0.569852 0.078215 0.075456 0.722854
O14   O     O_R   0.395270 0.063000 0.941990 -0.530178
O15   O     O_R   0.225080 0.942800 0.941570 -0.527002
C54   C     C_R   0.564096 0.077949 0.922950 0.714770
O16   O     O_R   0.724940 0.055790 0.056910 -0.537806
O17   O     O_3   0.558580 0.959880 0.999250 -0.373497
V3    V     V_3+5 0.283680 0.006590 0.999220 1.577784
O18   O     O_R   0.895380 0.935350 0.941950 -0.531820
C55   C     C_R   0.059222 0.920199 0.922626 0.688812
O19   O     O_R   0.895330 0.935520 0.056440 -0.536261
C56   C     C_R   0.064298 0.920699 0.075750 0.722494
V4    V     V_3+5 0.783690 0.991900 0.999180 1.546400
O20   O     O_3   0.058660 0.038680 0.999200 -0.359817
N1    N     N_2   0.845292 0.853421 0.258693 -0.523489
H31   H     H_    0.712568 0.850608 0.275214 0.251746
C57   C     C_3   0.969119 0.900819 0.286388 -0.434334
H32   H     H_    0.883663 0.939327 0.302399 0.231798
H33   H     H_    0.065630 0.922375 0.255429 0.205536
H34   H     H_    0.049422 0.880825 0.322947 0.169417
S1    S     S_3+6 0.005560 0.317102 0.730104 -0.027033
O21   O     O_2   0.961664 0.372517 0.766027 -0.300479
O22   O     O_2   0.154680 0.282026 0.760650 -0.342715
O23   O     O_3   0.085489 0.343916 0.668082 -0.497190
H35   H     H_    0.062457 0.308829 0.640739 0.292831
S2    S     S_3+6 0.399092 0.287445 0.866986 0.064673
O24   O     O_2   0.249988 0.235210 0.862277 -0.323112
O25   O     O_2   0.493605 0.285354 0.925044 -0.307404
O26   O     O_3   0.297565 0.357302 0.858955 -0.452351
H36   H     H_    0.192329 0.356058 0.885359 0.391671
S3    S     S_3+6 0.490686 0.788052 0.816563 -0.043225
O27   O     O_2   0.651603 0.786412 0.777929 -0.389923
O28   O     O_2   0.479858 0.853830 0.839305 -0.335629
O29   O     O_3   0.525553 0.738155 0.870783 -0.484017
H37   H     H_    0.554815 0.697714 0.852815 0.328419
S4    S     S_3+6 0.287061 0.243778 0.134328 0.102426
O30   O     O_2   0.414155 0.274993 0.092917 -0.295888
O31   O     O_2   0.224357 0.181755 0.107521 -0.301673
O32   O     O_3   0.097568 0.287038 0.135012 -0.488499
H38   H     H_    0.067728 0.296088 0.094550 0.368783
S5    S     S_3+6 0.321737 0.365839 0.228830 0.007409
O33   O     O_2   0.119049 0.374877 0.241136 -0.368581
O34   O     O_2   0.435625 0.417049 0.259954 -0.351735
O35   O     O_3   0.349295 0.377859 0.159431 -0.445560
H39   H     H_    0.291712 0.418758 0.151225 0.360059
N2    N     N_2   0.708602 0.302410 0.145856 -0.385008
H40   H     H_    0.743078 0.274785 0.112068 0.292895
C58   C     C_3   0.773166 0.367653 0.138158 -0.305794
H41   H     H_    0.767963 0.379235 0.092285 0.179711
H42   H     H_    0.919085 0.376508 0.154884 0.229263
H43   H     H_    0.681483 0.400741 0.158984 0.227587
N3    N     N_2   0.762454 0.223492 0.361309 -0.461759
H44   H     H_    0.878029 0.254000 0.357928 0.269199
C59   C     C_3   0.701782 0.212446 0.418361 -0.432650
H45   H     H_    0.827417 0.209299 0.447699 0.183239
H46   H     H_    0.618034 0.167267 0.420221 0.233666
H47   H     H_    0.615077 0.251520 0.432392 0.152745
S6    S     S_3+6 0.665015 0.098123 0.284421 0.081785
O36   O     O_2   0.676526 0.057152 0.232845 -0.325783
O37   O     O_2   0.832793 0.085798 0.323246 -0.290671
O38   O     O_3   0.469571 0.078177 0.319384 -0.455713
H48   H     H_    0.477217 0.032385 0.326382 0.354818
N4    N     N_2   0.359549 0.803708 0.672985 -0.514016
H49   H     H_    0.473025 0.776182 0.666064 0.267449
C60   C     C_3   0.411867 0.869766 0.680683 -0.484799
H50   H     H_    0.497266 0.886166 0.644828 0.176821
H51   H     H_    0.496416 0.877520 0.720719 0.245874
H52   H     H_    0.285273 0.898667 0.681171 0.224093
S7    S     S_3+6 0.232269 0.162736 0.231020 0.026113
O39   O     O_2   0.197704 0.163725 0.293324 -0.343889
O40   O     O_2   0.043900 0.162884 0.200090 -0.338085
O41   O     O_3   0.317844 0.093113 0.213467 -0.458477
H53   H     H_    0.218668 0.061238 0.223184 0.388687
N5    N     N_2   0.955268 0.855712 0.704838 -0.514099
H54   H     H_    0.850636 0.872959 0.728882 0.295122
C61   C     C_3   0.904373 0.852227 0.644986 -0.552263
H55   H     H_    0.856767 0.898772 0.630185 0.192476
H56   H     H_    0.788009 0.816465 0.636983 0.194122
H57   H     H_    0.027674 0.839709 0.620303 0.230407

loop_
_geom_bond_atom_site_label_1
_geom_bond_atom_site_label_2
_ccdc_geom_bond_type
C11   N5    S    
C48   C49   S    
S7    O39   D    
C29   H16   S    
C30   S1    S    
N1    H31   S    
C10   C13   S    
C31   C35   S    
C32   C54   S    
C60   H50   S    
O32   H38   S    
C46   C47   S    
C24   C25   S    
C20   C26   T    
S5    O34   D    
O38   H48   S    
C6    C10   S    
C5    C12   S    
C17   H5    S    
C4    C7    S    
N3    C59   S    
S1    O22   D    
C46   S4    S    
O5    C3    A    
C61   H55   S    
C42   H25   S    
C35   C38   S    
N5    H54   S    
C13   N4    S    
V2    O10   S    
C48   H30   S    
O15   V3    S    
C5    H2    S    
C30   C31   S    
C6    H1    S    
H4    C22   S    
C10   C15   S    
C17   H12   S    
C60   H51   S    
O13   C56   A    
O8    V2    S    
C49   H28   S    
S4    O30   D    
C44   C53   S    
O12   C53   A    
O19   C56   A    
C30   C33   S    
C39   C40   T    
C18   N1    S    
C33   C39   S    
O7    V1    S    
S6    O37   D    
C61   H57   S    
C1    O6    A    
C57   H34   S    
C35   C36   S    
C41   C46   S    
S7    O40   D    
O1    C2    A    
O9    C4    A    
O19   V4    S    
N4    H49   S    
C45   C51   S    
C58   H43   S    
C29   C34   S    
C61   H56   S    
C5    C6    S    
C49   N3    S    
C44   C50   T    
S5    O35   S    
C22   H13   S    
C36   C37   S    
C32   C38   T    
C31   H19   S    
C6    C14   S    
N3    H44   S    
S6    O38   S    
C58   H42   S    
O11   V4    S    
S1    O23   S    
O4    C2    A    
C47   C48   S    
C41   C45   S    
C11   C12   S    
C53   O16   A    
C7    C15   T    
C59   H47   S    
C18   H6    S    
C19   H8    S    
C9    H3    S    
C3    C20   S    
O2    C1    A    
C23   C24   S    
S3    O28   D    
C42   C45   S    
H15   C34   S    
C27   C28   T    
C25   H9    S    
C37   H20   S    
C2    C52   S    
C29   C33   S    
N4    C60   S    
C18   C19   S    
C21   C27   S    
C48   S6    S    
N1    C57   S    
C5    C9    S    
O35   H39   S    
S6    O36   D    
O3    C4    A    
O1    V2    S    
C24   H14   S    
C24   H11   S    
O41   H53   S    
O14   C54   A    
C12   C16   S    
O6    V2    S    
O12   V3    S    
O26   H36   S    
N2    C58   S    
C11   C13   S    
C22   C23   S    
C17   C21   S    
S2    O25   D    
S3    O27   D    
O2    V1    S    
C36   S2    S    
C33   C37   S    
O17   V3    S    
C60   H52   S    
O23   H35   S    
C57   H32   S    
S5    O33   D    
O18   V4    S    
C21   C25   S    
C8    C16   T    
C19   H7    S    
O15   C55   A    
C19   C23   S    
C45   C49   S    
C41   S5    S    
C58   H41   S    
C47   C50   S    
O5    V1    S    
C43   H27   S    
O8    C3    A    
C14   S3    S    
C31   H18   S    
S7    O41   S    
O18   C55   A    
C12   C14   S    
C34   H23   S    
O17   V4    S    
C46   S7    S    
S2    O26   S    
O9    V2    S    
O29   H37   S    
C37   H21   S    
S3    O29   S    
C18   C21   S    
O4    V1    S    
C29   H22   S    
O3    V1    S    
C8    C55   S    
S1    O21   D    
C1    C40   S    
V3    O20   S    
C42   C43   S    
C42   H26   S    
C51   C52   T    
C28   C56   S    
N5    C61   S    
C25   H10   S    
S4    O32   S    
C41   H29   S    
O14   V3    S    
C59   H46   S    
C9    C11   S    
O7    V2    S    
C23   C26   S    
O13   V3    S    
C9    C10   S    
C43   N2    S    
C30   H17   S    
S4    O31   D    
C34   C35   S    
C13   C14   S    
C17   C22   S    
N2    H40   S    
O16   V4    S    
V1    O10   S    
C36   H24   S    
S2    O24   D    
V4    O20   S    
C43   C47   S    
O11   C54   A    
C59   H45   S    
C57   H33   S    
