data_mof_unit_21899.cif
_audit_creation_date              2012-12-10T22:11:17-0500
_audit_creation_method            fapswitch 2.2
_symmetry_space_group_name_H-M    P1
_symmetry_Int_Tables_number       1
_space_group_crystal_system       triclinic
_cell_length_a                    12.102975
_cell_length_b                    12.321127
_cell_length_c                    23.136378
_cell_angle_alpha                 90.699721
_cell_angle_beta                  89.429496
_cell_angle_gamma                 92.262249
_cell_volume                      3447.04865615

loop_
_atom_site_label
_atom_site_type_symbol
_atom_type_description
_atom_site_fract_x
_atom_site_fract_y
_atom_site_fract_z
_atom_type_partial_charge
C1    C     C_R   0.656301 0.999092 0.579183 0.992239
C2    C     C_R   0.344469 0.001215 0.420297 0.968672
C3    C     C_R   0.900923 0.809103 0.127581 0.480899
C4    C     C_R   0.098163 0.189537 0.872921 0.476799
C5    C     C_R   0.076003 0.821012 0.206881 -0.043342
C6    C     C_R   0.924482 0.179486 0.792799 -0.041476
C7    C     C_R   0.072752 0.741427 0.164141 -0.182136
C8    C     C_R   0.928069 0.259305 0.835435 -0.183054
C9    C     C_R   0.906169 0.151686 0.193223 -0.282305
C10   C     C_R   0.092129 0.846007 0.805397 -0.266313
C11   C     C_R   0.902925 0.241227 0.158130 0.438316
C12   C     C_R   0.095613 0.756846 0.840735 0.488575
C13   C     C_R   0.103016 0.925666 0.327324 -0.308836
C14   C     C_R   0.896791 0.074747 0.672484 -0.309033
C15   C     C_R   0.174026 0.925409 0.373385 0.402725
C16   C     C_R   0.826495 0.074870 0.626183 0.382730
C17   C     C_R   0.882834 0.100368 0.318847 -0.223862
C18   C     C_R   0.115621 0.900355 0.680065 -0.187748
C19   C     C_R   0.794609 0.107175 0.357116 0.393059
C20   C     C_R   0.204736 0.893285 0.642442 0.443964
C21   C     C_3   0.003064 0.003619 0.245765 0.027198
C22   C     C_3   0.995998 0.996077 0.754005 0.028337
C23   C     C_R   0.653777 0.003663 0.419597 0.899478
C24   C     C_R   0.346380 0.996388 0.580484 0.906772
C25   C     C_R   0.101269 0.012512 0.287913 -0.109590
C26   C     C_R   0.897257 0.988232 0.712164 -0.077267
C27   C     C_R   0.261864 0.002633 0.375072 -0.339871
C28   C     C_R   0.737803 0.998782 0.624791 -0.291039
C29   C     C_R   0.902425 0.005085 0.287327 0.022941
C30   C     C_R   0.096698 0.994950 0.712317 -0.004037
C31   C     C_R   0.736345 0.009290 0.373098 -0.141992
C32   C     C_R   0.263828 0.990892 0.626998 -0.161222
C33   C     C_R   0.003512 0.092692 0.199905 -0.025746
C34   C     C_R   0.995271 0.906038 0.799365 -0.033512
C35   C     C_R   0.993774 0.263969 0.121488 -0.219779
C36   C     C_R   0.005562 0.735023 0.877962 -0.239553
C37   C     C_R   0.995013 0.899715 0.208799 0.053645
C38   C     C_R   0.004424 0.099654 0.791319 0.055426
C39   C     C_R   0.988616 0.738534 0.123026 -0.052136
C40   C     C_R   0.011418 0.261316 0.876961 -0.050742
C41   C     C_R   0.992541 0.659680 0.076381 0.903570
C42   C     C_R   0.007473 0.340292 0.923603 0.902597
C43   C     C_R   0.997100 0.352687 0.081046 0.916675
C44   C     C_R   0.002806 0.647034 0.918823 0.920557
C45   C     C_R   0.179503 0.102697 0.297115 0.446337
C46   C     C_R   0.816737 0.899590 0.703744 0.370346
C47   C     C_R   0.268195 0.086408 0.334143 0.347893
C48   C     C_R   0.727216 0.918267 0.667024 0.347808
C49   C     C_R   0.838610 0.910412 0.300924 -0.145198
C50   C     C_R   0.161677 0.089341 0.699486 -0.142346
C51   C     C_R   0.759175 0.912223 0.344104 -0.170808
C52   C     C_R   0.241463 0.087711 0.656393 -0.177513
C53   C     C_R   0.090785 0.110327 0.158170 0.506406
C54   C     C_R   0.908512 0.888811 0.841450 0.502186
C55   C     C_R   0.082901 0.195621 0.119985 -0.212123
C56   C     C_R   0.916542 0.803512 0.879593 -0.252007
C57   C     C_R   0.903927 0.887556 0.171203 -0.303815
C58   C     C_R   0.094878 0.110778 0.829387 -0.304220
H1    H     H_    0.853566 0.832467 0.281036 0.174689
H2    H     H_    0.147375 0.166989 0.719863 0.170633
H3    H     H_    0.837456 0.943623 0.174057 0.151030
H4    H     H_    0.160607 0.053829 0.826907 0.154748
H5    H     H_    0.146072 0.823253 0.235294 0.190611
H6    H     H_    0.854753 0.177938 0.764169 0.189924
H7    H     H_    0.830749 0.129988 0.216025 0.178588
H8    H     H_    0.167439 0.867084 0.782322 0.208271
H9    H     H_    0.042354 0.859181 0.324250 0.220944
H10   H     H_    0.958269 0.140551 0.675347 0.221197
H11   H     H_    0.933953 0.171733 0.311091 0.225056
H12   H     H_    0.063699 0.829369 0.686824 0.250080
H13   H     H_    0.715203 0.836607 0.354576 0.198870
H14   H     H_    0.286185 0.163143 0.646359 0.193501
H15   H     H_    0.147530 0.208958 0.087858 0.236816
H16   H     H_    0.852377 0.790659 0.912016 0.239021
H17   H     H_    0.138380 0.684125 0.162049 0.187024
H18   H     H_    0.863171 0.317426 0.837175 0.183566
O1    O     O_R   0.621380 0.090460 0.561410 -0.581822
O2    O     O_R   0.378620 0.909540 0.438590 -0.564069
O3    O     O_R   0.617150 0.909540 0.438590 -0.641124
O4    O     O_R   0.382850 0.090460 0.561410 -0.640937
O5    O     O_R   0.619720 0.093230 0.440890 -0.536498
O6    O     O_R   0.380280 0.906770 0.559110 -0.529266
O7    O     O_R   0.618800 0.906770 0.559110 -0.559730
O8    O     O_R   0.381200 0.093230 0.440890 -0.632857
O9    O     O_R   0.087590 0.627480 0.058790 -0.630607
O10   O     O_R   0.912410 0.372520 0.941210 -0.631843
O11   O     O_R   0.905660 0.383870 0.059980 -0.557079
O12   O     O_R   0.094340 0.616130 0.940020 -0.553067
O13   O     O_R   0.092570 0.390420 0.063230 -0.617583
O14   O     O_R   0.907430 0.609580 0.936770 -0.631351
O15   O     O_R   0.900680 0.620930 0.055550 -0.546085
O16   O     O_R   0.099320 0.379070 0.944450 -0.548044
Zn1   Zn    Zn3+2 0.501730 0.123520 0.501540 1.151621
Zn2   Zn    Zn3+2 0.498270 0.876480 0.498460 1.189001
Zn3   Zn    Zn3+2 0.125690 0.504390 0.002180 1.145621
Zn4   Zn    Zn3+2 0.874310 0.495610 0.997820 1.137109
O17   O     O_3   0.363270 0.150947 0.328385 -0.650498
H19   H     H_    0.363456 0.204143 0.360779 0.396016
O18   O     O_3   0.630254 0.855026 0.669242 -0.671910
H20   H     H_    0.618786 0.829231 0.709310 0.394542
S1    S     S_3+6 0.208768 0.030028 0.145733 0.044188
O19   O     O_2   0.255778 0.984243 0.199472 -0.316447
O20   O     O_2   0.176516 0.939002 0.104744 -0.310217
O21   O     O_3   0.309649 0.106756 0.113940 -0.493736
H21   H     H_    0.367389 0.055333 0.103010 0.402047
S2    S     S_3+6 0.792568 0.971309 0.855270 0.048287
O22   O     O_2   0.828347 0.062631 0.895265 -0.262482
O23   O     O_2   0.743971 0.017744 0.802051 -0.349071
O24   O     O_3   0.691801 0.898186 0.889515 -0.494675
H22   H     H_    0.640811 0.871417 0.858832 0.403747
O25   O     O_3   0.816491 0.803656 0.087680 -0.716044
H23   H     H_    0.762541 0.859898 0.097142 0.351119
O26   O     O_3   0.181877 0.194179 0.913230 -0.720518
H24   H     H_    0.235179 0.137150 0.904138 0.351728
S3    S     S_3+6 0.786587 0.324313 0.164997 0.102178
O27   O     O_2   0.824379 0.441904 0.168261 -0.234439
O28   O     O_2   0.713239 0.306899 0.113361 -0.273739
O29   O     O_3   0.713352 0.294176 0.225335 -0.441736
H25   H     H_    0.660787 0.234155 0.214039 0.371039
S4    S     S_3+6 0.211868 0.673759 0.833954 0.068643
O30   O     O_2   0.285647 0.692840 0.885259 -0.267671
O31   O     O_2   0.173927 0.556132 0.831195 -0.287736
O32   O     O_3   0.284239 0.704371 0.773464 -0.508740
H26   H     H_    0.345238 0.653085 0.772384 0.403513
S5    S     S_3+6 0.141823 0.834362 0.430279 0.082105
O33   O     O_2   0.220920 0.743329 0.428837 -0.227426
O34   O     O_2   0.151098 0.895197 0.486829 -0.281980
O35   O     O_3   0.011973 0.782039 0.423643 -0.540851
H27   H     H_    0.999081 0.737391 0.458561 0.408444
S6    S     S_3+6 0.859801 0.164702 0.568909 0.080517
O36   O     O_2   0.850138 0.103219 0.512566 -0.289146
O37   O     O_2   0.781523 0.256422 0.569924 -0.216260
O38   O     O_3   0.990048 0.215989 0.575506 -0.543576
H28   H     H_    0.003461 0.260126 0.540447 0.402153
S7    S     S_3+6 0.757200 0.240934 0.377437 0.108649
O39   O     O_2   0.637971 0.255393 0.362843 -0.205751
O40   O     O_2   0.772329 0.260053 0.441121 -0.212920
O41   O     O_3   0.834403 0.335134 0.341465 -0.456591
H29   H     H_    0.903981 0.344110 0.363523 0.374745
S8    S     S_3+6 0.242318 0.759404 0.622559 0.093558
O42   O     O_2   0.226163 0.739695 0.559018 -0.200304
O43   O     O_2   0.361650 0.745398 0.637202 -0.250816
O44   O     O_3   0.164358 0.666450 0.658946 -0.492217
H30   H     H_    0.196621 0.595840 0.649138 0.398342
S9    S     S_3+6 0.175502 0.240224 0.271919 0.045534
O45   O     O_2   0.250445 0.253206 0.220097 -0.208076
O46   O     O_2   0.063082 0.278080 0.257759 -0.338613
O47   O     O_3   0.224443 0.324672 0.324201 -0.534838
H31   H     H_    0.235027 0.396272 0.305489 0.406640
S10   S     S_3+6 0.822824 0.760455 0.726453 0.026118
O48   O     O_2   0.774484 0.688635 0.679324 -0.208728
O49   O     O_2   0.936350 0.722224 0.737758 -0.305618
O50   O     O_3   0.743784 0.741538 0.785869 -0.585842
H32   H     H_    0.750449 0.663994 0.795546 0.395872

loop_
_geom_bond_atom_site_label_1
_geom_bond_atom_site_label_2
_ccdc_geom_bond_type
C16   C28   A    
S7    O41   S    
C58   H4    S    
S1    O19   D    
O6    Zn2   S    
C5    C37   A    
C1    O1    A    
C2    O8    A    
O25   H23   S    
S8    O44   S    
C19   C31   A    
O35   H27   S    
O17   H19   S    
C44   O14   A    
S7    O39   D    
C39   C41   S    
C29   C49   A    
S4    O30   D    
C17   H11   S    
C43   O13   A    
C45   S9    S    
S8    O43   D    
C20   C32   A    
C21   C33   S    
S2    O22   D    
C19   S7    S    
O44   H30   S    
C22   C38   S    
C8    H18   S    
C17   C29   A    
C5    H5    S    
C45   C47   A    
C6    H6    S    
C24   O6    A    
O29   H25   S    
C32   C52   A    
O15   Zn4   S    
C12   S4    S    
C24   O4    A    
C4    C40   A    
C3    O25   S    
S3    O28   D    
S10   O50   S    
S5    O35   S    
C50   C52   A    
C6    C38   A    
C2    C27   S    
C18   C30   A    
C14   C16   A    
C12   C36   A    
C11   S3    S    
C18   C20   A    
S4    O32   S    
C10   H8    S    
C30   C50   A    
O12   Zn3   S    
C3    C39   A    
S1    O20   D    
C38   C58   A    
C9    C33   A    
C13   C25   A    
C51   H13   S    
O21   H21   S    
S9    O46   D    
S4    O31   D    
S9    O45   D    
C46   C48   A    
C53   C55   A    
C33   C53   A    
C22   C34   S    
C54   C56   A    
C56   H16   S    
C54   S2    S    
C35   C55   A    
C4    O26   S    
O32   H26   S    
S8    O42   D    
O3    Zn2   S    
C53   S1    S    
C5    C7    A    
C7    H17   S    
C49   C51   A    
O7    Zn2   S    
C21   C29   S    
O16   Zn3   S    
C23   C31   S    
O13   Zn3   S    
S6    O37   D    
C24   C32   S    
C52   H14   S    
C1    C28   S    
O5    Zn1   S    
C15   C27   A    
O18   H20   S    
O10   Zn4   S    
S3    O29   S    
O11   Zn4   S    
C10   C34   A    
C14   C26   A    
O14   Zn4   S    
C9    C11   A    
C10   C12   A    
C42   O10   A    
C3    C57   A    
C46   S10   S    
C34   C54   A    
S1    O21   S    
C13   C15   A    
C22   C26   S    
O38   H28   S    
S10   O49   D    
C36   C44   S    
S6    O38   S    
C25   C45   A    
S9    O47   S    
C35   C43   S    
C2    O2    A    
O1    Zn1   S    
O26   H24   S    
C13   H9    S    
C27   C47   A    
S7    O40   D    
C48   O18   S    
C21   C25   S    
C28   C48   A    
C14   H10   S    
C23   O5    A    
C41   O15   A    
C31   C51   A    
C49   H1    S    
C6    C8    A    
C57   H3    S    
C1    O7    A    
C41   O9    A    
C18   H12   S    
C47   O17   S    
C43   O11   A    
C20   S8    S    
C11   C35   A    
S6    O36   D    
O4    Zn1   S    
C50   H2    S    
C22   C30   S    
O24   H22   S    
O9    Zn3   S    
S5    O33   D    
S2    O23   D    
O2    Zn2   S    
C40   C42   S    
C36   C56   A    
C17   C19   A    
C42   O16   A    
O8    Zn1   S    
C9    H7    S    
O41   H29   S    
C26   C46   A    
C55   H15   S    
C21   C37   S    
C15   S5    S    
C4    C58   A    
S5    O34   D    
C7    C39   A    
S10   O48   D    
C16   S6    S    
C8    C40   A    
C23   O3    A    
O50   H32   S    
C44   O12   A    
O47   H31   S    
C37   C57   A    
S3    O27   D    
S2    O24   S    
