data_mof_unit_15900.cif
_audit_creation_date              2012-12-11T14:39:17-0500
_audit_creation_method            fapswitch 2.2
_symmetry_space_group_name_H-M    P1
_symmetry_Int_Tables_number       1
_space_group_crystal_system       triclinic
_cell_length_a                    7.214164
_cell_length_b                    14.09252
_cell_length_c                    16.265002
_cell_angle_alpha                 90.000014
_cell_angle_beta                  97.650543
_cell_angle_gamma                 90.00009
_cell_volume                      1638.87414709

loop_
_atom_site_label
_atom_site_type_symbol
_atom_type_description
_atom_site_fract_x
_atom_site_fract_y
_atom_site_fract_z
_atom_type_partial_charge
O1    O     O_R   0.525340 0.338340 0.164530 -0.556660
O2    O     O_R   0.474660 0.661660 0.835470 -0.556677
O3    O     O_R   0.974660 0.838340 0.835470 -0.556718
O4    O     O_R   0.025340 0.161660 0.164530 -0.556629
O5    O     O_R   0.253520 0.352000 0.336710 -0.542174
O6    O     O_R   0.746480 0.648000 0.663290 -0.542174
O7    O     O_R   0.246480 0.852000 0.663290 -0.542144
O8    O     O_R   0.753520 0.148000 0.336710 -0.542165
O9    O     O_R   0.083330 0.168380 0.337300 -0.534735
O10   O     O_R   0.916670 0.831620 0.662700 -0.534756
O11   O     O_R   0.416670 0.668380 0.662700 -0.534751
O12   O     O_R   0.583330 0.331620 0.337300 -0.534733
C1    C     C_R   0.432518 0.368531 0.363758 0.686335
C2    C     C_R   0.567482 0.631467 0.636243 0.686302
C3    C     C_R   0.067482 0.868531 0.636242 0.686335
C4    C     C_R   0.932518 0.131469 0.363758 0.686344
O13   O     O_R   0.195840 0.349670 0.165140 -0.519758
O14   O     O_R   0.804160 0.650330 0.834860 -0.519738
O15   O     O_R   0.304160 0.849670 0.834860 -0.519632
O16   O     O_R   0.695840 0.150330 0.165140 -0.519819
C5    C     C_R   0.357243 0.373262 0.138607 0.623550
C6    C     C_R   0.642759 0.626740 0.861394 0.623622
C7    C     C_R   0.142760 0.873255 0.861399 0.623923
C8    C     C_R   0.857241 0.126738 0.138607 0.623436
O17   O     O_3   0.387830 0.193120 0.250910 -0.371341
O18   O     O_3   0.612170 0.806880 0.749090 -0.371328
O19   O     O_3   0.112170 0.693120 0.749090 -0.371368
O20   O     O_3   0.887830 0.306880 0.250910 -0.371327
V1    V     V_3+5 0.113010 0.264540 0.250910 1.421388
V2    V     V_3+5 0.886990 0.735460 0.749090 1.421398
V3    V     V_3+5 0.386990 0.764540 0.749090 1.421566
V4    V     V_3+5 0.613010 0.235460 0.250910 1.421308
H1    H     H_    0.105209 0.821139 0.261143 0.105333
H2    H     H_    0.894806 0.178862 0.738858 0.105307
H3    H     H_    0.394881 0.321122 0.738863 0.105312
H4    H     H_    0.605156 0.678867 0.261141 0.105330
C9    C     C_R   0.896012 0.189517 0.530549 -0.142403
C10   C     C_R   0.103993 0.810483 0.469451 -0.142400
C11   C     C_R   0.603977 0.689518 0.469452 -0.142402
C12   C     C_R   0.396033 0.310478 0.530550 -0.142419
C13   C     C_R   0.877217 0.219076 0.610809 -0.104384
C14   C     C_R   0.122795 0.780925 0.389192 -0.104390
C15   C     C_R   0.622765 0.719078 0.389191 -0.104393
C16   C     C_R   0.377256 0.280915 0.610811 -0.104371
C17   C     C_R   0.909216 0.155618 0.676595 -0.141684
C18   C     C_R   0.090792 0.844383 0.323406 -0.141680
C19   C     C_R   0.590752 0.655622 0.323405 -0.141680
C20   C     C_R   0.409271 0.344370 0.676598 -0.141655
C21   C     C_R   0.960158 0.062194 0.662549 -0.146749
C22   C     C_R   0.039839 0.937805 0.337450 -0.146806
C23   C     C_R   0.539805 0.562199 0.337449 -0.146804
C24   C     C_R   0.460204 0.437796 0.662553 -0.146812
C25   C     C_R   0.979489 0.030191 0.581593 0.067177
C26   C     C_R   0.020509 0.969808 0.418407 0.067175
C27   C     C_R   0.520493 0.530193 0.418407 0.067172
C28   C     C_R   0.479509 0.469803 0.581595 0.067177
C29   C     C_R   0.947042 0.094894 0.514453 0.053528
C30   C     C_R   0.052959 0.905106 0.485547 0.053530
C31   C     C_R   0.552947 0.594894 0.485548 0.053530
C32   C     C_R   0.447056 0.405103 0.514454 0.053531
C33   C     C_R   0.032213 0.935621 0.566835 -0.173865
C34   C     C_R   0.967786 0.064379 0.433164 -0.173875
C35   C     C_R   0.467784 0.435620 0.433165 -0.173868
C36   C     C_R   0.532216 0.564377 0.566837 -0.173860
H5    H     H_    0.870889 0.241719 0.481538 0.114196
H6    H     H_    0.129118 0.758282 0.518463 0.114188
H7    H     H_    0.629109 0.741718 0.518464 0.114195
H8    H     H_    0.370901 0.258278 0.481538 0.114199
H9    H     H_    0.838095 0.291649 0.622008 0.130287
H10   H     H_    0.161923 0.708353 0.377993 0.130282
H11   H     H_    0.661891 0.791651 0.377993 0.130279
H12   H     H_    0.338138 0.208341 0.622009 0.130298
H13   H     H_    0.984504 0.015590 0.715766 0.086612
H14   H     H_    0.015485 0.984408 0.284233 0.086596
H15   H     H_    0.515444 0.515597 0.284231 0.086582
H16   H     H_    0.484563 0.484399 0.715771 0.086569
H17   H     H_    0.121868 0.082019 0.045236 0.172446
H18   H     H_    0.878070 0.918019 0.954731 0.172716
H19   H     H_    0.378162 0.582042 0.954787 0.172601
H20   H     H_    0.621849 0.417955 0.045215 0.172562
C37   C     C_2   0.148698 0.949086 0.925450 0.231968
C38   C     C_2   0.851309 0.050889 0.074566 0.232174
C39   C     C_2   0.351322 0.449114 0.074569 0.232092
C40   C     C_2   0.648691 0.550889 0.925433 0.232037
C41   C     C_2   0.001103 0.962722 0.967842 -0.214783
C42   C     C_2   0.998868 0.037288 0.032149 -0.214561
C43   C     C_2   0.498875 0.462706 0.032145 -0.214477
C44   C     C_2   0.501140 0.537293 0.967858 -0.214576
O21   O     O_3   0.691288 0.996239 0.056544 -0.521992
C45   C     C_3   0.691913 0.925476 0.118092 0.140949
H21   H     H_    0.685806 0.957562 0.180266 0.102084
H22   H     H_    0.819254 0.880126 0.120708 0.091577
C46   C     C_3   0.521158 0.862220 0.097260 -0.654933
H23   H     H_    0.521953 0.829526 0.035149 0.220710
H24   H     H_    0.522650 0.804975 0.144252 0.140805
H25   H     H_    0.391386 0.904625 0.097269 0.236175
O22   O     O_3   0.308809 0.003656 0.943514 -0.521979
C47   C     C_3   0.307861 0.074741 0.882229 0.140936
H26   H     H_    0.180827 0.120235 0.880108 0.091752
H27   H     H_    0.313051 0.042982 0.819858 0.101657
C48   C     C_3   0.479090 0.137698 0.902958 -0.654672
H28   H     H_    0.608525 0.095184 0.902298 0.235758
H29   H     H_    0.477156 0.195321 0.856291 0.140702
H30   H     H_    0.479435 0.169895 0.965332 0.221104
O23   O     O_3   0.808728 0.496251 0.943461 -0.522011
C49   C     C_3   0.808119 0.425476 0.881925 0.141027
H31   H     H_    0.813940 0.457544 0.819722 0.101988
H32   H     H_    0.680919 0.380039 0.879407 0.091568
C50   C     C_3   0.979092 0.362351 0.902680 -0.655050
H33   H     H_    0.978578 0.329664 0.964811 0.220713
H34   H     H_    0.977640 0.305100 0.855696 0.140758
H35   H     H_    0.108713 0.404857 0.902589 0.236148
O24   O     O_3   0.191304 0.503766 0.056543 -0.522014
C51   C     C_3   0.191900 0.574516 0.118101 0.140903
H36   H     H_    0.319241 0.619868 0.120734 0.091565
H37   H     H_    0.185762 0.542418 0.180267 0.102123
C52   C     C_3   0.021146 0.637772 0.097261 -0.655016
H38   H     H_    0.891375 0.595353 0.097223 0.236206
H39   H     H_    0.022568 0.694990 0.144274 0.140843
H40   H     H_    0.022007 0.670501 0.035167 0.220652

loop_
_geom_bond_atom_site_label_1
_geom_bond_atom_site_label_2
_ccdc_geom_bond_type
C39   C43   D    
C43   C44   S    
O1    C5    A    
C46   H23   S    
C12   C32   A    
C27   C31   A    
O13   V1    S    
C39   O24   S    
O3    C7    A    
O15   V3    S    
C51   H36   S    
C29   C34   A    
C41   C42   S    
C31   C36   A    
C22   C26   A    
C38   O21   S    
C37   O22   S    
C32   C35   A    
O20   V1    S    
O9    C4    A    
C23   H15   S    
C10   C14   A    
H20   C43   S    
O10   C3    A    
C22   H14   S    
O16   V4    S    
O4    C8    A    
O11   C2    A    
C49   H31   S    
C14   H10   S    
H4    C19   S    
C14   C18   A    
C8    C38   S    
C50   H34   S    
C10   C30   A    
C25   C33   A    
C10   H6    S    
C9    H5    S    
O2    C6    A    
C28   C36   A    
O14   V2    S    
C12   C16   A    
O5    C1    A    
O4    V1    S    
O9    V1    S    
C30   C33   A    
O7    C3    A    
O11   V3    S    
O18   V3    S    
C48   H29   S    
O12   V4    S    
O19   V2    S    
H1    C18   S    
C4    C34   S    
H3    C20   S    
H19   C44   S    
O22   C47   S    
O5    V1    S    
O7    V3    S    
O8    V4    S    
C48   H28   S    
C5    C39   S    
C50   H35   S    
C25   C29   A    
C11   C15   A    
C26   C34   A    
C38   C42   D    
O1    V4    S    
O13   C5    A    
C28   C32   A    
C27   C35   A    
O2    V3    S    
C6    C40   S    
O3    V2    S    
O15   C7    A    
O6    C2    A    
O10   V2    S    
C45   H22   S    
C1    C35   S    
C17   C21   A    
C11   C31   A    
C40   O23   S    
C3    C33   S    
H2    C17   S    
C2    C36   S    
H18   C41   S    
O6    V2    S    
H17   C42   S    
C48   H30   S    
C47   H27   S    
C21   H13   S    
C52   H40   S    
C45   C46   S    
C13   H9    S    
O24   C51   S    
C26   C30   A    
C51   H37   S    
C15   H11   S    
C7    C37   S    
O14   C6    A    
C11   H7    S    
C40   C44   D    
C24   H16   S    
C19   C23   A    
C46   H25   S    
C47   C48   S    
O23   C49   S    
C18   C22   A    
C52   H39   S    
C52   H38   S    
C45   H21   S    
C46   H24   S    
C49   H32   S    
O17   V4    S    
C21   C25   A    
C16   H12   S    
C23   C27   A    
C9    C13   A    
C37   C41   D    
C51   C52   S    
C16   C20   A    
C20   C24   A    
O12   C1    A    
O8    C4    A    
C47   H26   S    
C12   H8    S    
C13   C17   A    
O21   C45   S    
C50   H33   S    
C15   C19   A    
O16   C8    A    
C9    C29   A    
C24   C28   A    
C49   C50   S    
