data_mof_unit_8137.cif
_audit_creation_date              2013-03-05T16:22:15-0500
_audit_creation_method            fapswitch 2.2
_symmetry_space_group_name_H-M    P1
_symmetry_Int_Tables_number       1
_space_group_crystal_system       triclinic
_cell_length_a                    10.530092
_cell_length_b                    10.618068
_cell_length_c                    9.853862
_cell_angle_alpha                 90.256874
_cell_angle_beta                  89.889322
_cell_angle_gamma                 89.920859
_cell_volume                      1101.73855897

loop_
_atom_site_label
_atom_site_type_symbol
_atom_site_description
_atom_site_fract_x
_atom_site_fract_y
_atom_site_fract_z
_atom_type_partial_charge
O1    O     O_R   0.500010 0.313960 0.616610 -0.613403
O2    O     O_R   0.499990 0.686040 0.383390 -0.612246
O3    O     O_R   0.500060 0.313950 0.383350 -0.554593
O4    O     O_R   0.499940 0.686050 0.616650 -0.552246
C1    C     C_R   0.503061 0.258259 0.499215 0.995675
C2    C     C_R   0.496866 0.741671 0.500703 0.994952
O5    O     O_R   0.313930 0.499970 0.616610 -0.632069
O6    O     O_R   0.686070 0.500030 0.383390 -0.629027
O7    O     O_R   0.313980 0.499960 0.383350 -0.586536
O8    O     O_R   0.686020 0.500040 0.616650 -0.589283
C3    C     C_R   0.258185 0.498300 0.500053 0.972313
C4    C     C_R   0.741783 0.501067 0.499902 0.961261
Zn1   Zn    Zn3+2 0.499970 0.500010 0.655740 1.071160
Zn2   Zn    Zn3+2 0.500030 0.499990 0.344260 1.073535
C5    C     C_3   0.039585 0.403668 0.576610 -0.000107
C6    C     C_3   0.960228 0.594782 0.422975 -0.028235
C7    C     C_3   0.957265 0.390932 0.449072 -0.059630
C8    C     C_3   0.042505 0.607653 0.550525 -0.079856
C9    C     C_3   0.876416 0.501189 0.499415 -0.044477
C10   C     C_3   0.123469 0.497373 0.500290 -0.042990
C11   C     C_3   0.957493 0.514290 0.628667 -0.259450
C12   C     C_3   0.042390 0.484236 0.371042 -0.236823
H1    H     H_    0.922968 0.525369 0.734431 0.230358
H2    H     H_    0.076779 0.473413 0.265247 0.228851
C13   C     C_3   0.551821 0.042232 0.613063 0.311837
C14   C     C_3   0.447989 0.957463 0.386419 0.302592
C15   C     C_3   0.618522 0.955144 0.510444 -0.196593
C16   C     C_3   0.381248 0.044607 0.488874 -0.200688
C17   C     C_3   0.496251 0.875951 0.503256 -0.173220
C18   C     C_3   0.503528 0.123854 0.496238 -0.166800
C19   C     C_3   0.429756 0.962993 0.607463 -0.199077
C20   C     C_3   0.569910 0.036739 0.391952 -0.179350
C21   C     C_3   0.433082 0.410578 0.046765 0.317103
C22   C     C_3   0.567106 0.589746 0.953140 0.377424
C23   C     C_3   0.545945 0.394904 0.950059 -0.221602
C24   C     C_3   0.454379 0.605334 0.050190 -0.118695
H3    H     H_    0.585009 0.307537 0.904686 0.242429
H4    H     H_    0.415490 0.692663 0.095790 0.246342
N1    N     N_3   0.499910 0.500030 0.863290 -0.168661
N2    N     N_3   0.500090 0.499970 0.136710 -0.171487
C25   C     C_3   0.386817 0.513703 0.953315 -0.105882
C26   C     C_3   0.613506 0.486760 0.046992 -0.099656
C27   C     C_2   0.908987 0.269399 0.392378 0.427613
H5    H     H_    0.931111 0.242644 0.288647 0.118294
O9    O     O_2   0.844789 0.200051 0.462841 -0.598658
C28   C     C_2   0.090643 0.729347 0.606851 0.467407
H6    H     H_    0.067564 0.756898 0.710106 0.161615
O10   O     O_2   0.155483 0.798147 0.536417 -0.610321
C29   C     C_2   0.077213 0.295392 0.665103 0.377329
H7    H     H_    0.004151 0.236967 0.710103 0.147775
O11   O     O_2   0.188663 0.272387 0.687530 -0.619603
C30   C     C_2   0.921956 0.701965 0.333227 0.487009
H8    H     H_    0.994398 0.763371 0.291842 0.137217
O12   O     O_2   0.810749 0.720363 0.305166 -0.574924
C31   C     C_2   0.751722 0.908398 0.526739 0.564762
H9    H     H_    0.825433 0.939685 0.457811 0.071243
O13   O     O_2   0.778675 0.837690 0.619385 -0.511343
C32   C     C_2   0.248245 0.091046 0.470318 0.583676
H10   H     H_    0.172849 0.056523 0.535243 0.081118
O14   O     O_2   0.223349 0.164793 0.379729 -0.507970
N3    N     N_R   0.613331 0.090327 0.735331 0.233007
O15   O     O_R   0.565728 0.067443 0.854482 -0.315148
O16   O     O_R   0.718471 0.153773 0.725715 -0.375003
N4    N     N_R   0.386441 0.909246 0.264203 0.233140
O17   O     O_R   0.433598 0.932610 0.144963 -0.306568
O18   O     O_R   0.281487 0.845514 0.273952 -0.358872
C33   C     C_2   0.351123 0.932539 0.730210 0.631761
H11   H     H_    0.304730 0.008265 0.785537 0.100120
O19   O     O_2   0.339243 0.824451 0.769200 -0.499187
C34   C     C_2   0.648225 0.066527 0.268867 0.618764
H12   H     H_    0.695847 0.990727 0.214864 0.102298
O20   O     O_2   0.658185 0.174109 0.227902 -0.564902
N5    N     N_R   0.356011 0.309124 0.101181 0.241642
O21   O     O_R   0.386988 0.192628 0.077215 -0.272233
O22   O     O_R   0.248337 0.334502 0.159672 -0.376814
N6    N     N_R   0.642739 0.692026 0.898137 0.262582
O23   O     O_R   0.613068 0.808187 0.925700 -0.276570
O24   O     O_R   0.746113 0.667538 0.831003 -0.318378
C35   C     C_2   0.254020 0.529357 0.902885 0.555538
H13   H     H_    0.207270 0.452457 0.851547 0.103587
O25   O     O_2   0.196283 0.627287 0.923509 -0.532347
C36   C     C_2   0.744891 0.466456 0.100271 0.550098
H14   H     H_    0.765431 0.384640 0.161487 0.088732
O26   O     O_2   0.829924 0.540137 0.073387 -0.530633

loop_
_geom_bond_atom_site_label_1
_geom_bond_atom_site_label_2
_geom_bond_distance
_ccdc_geom_bond_type
C13   C19   1.538159 S    
C31   H9    1.083903 S    
C14   C20   1.537080 S    
C15   C17   1.540329 S    
C8    C11   1.543901 S    
N5    O21   1.299306 A    
C23   N1    1.490198 S    
C26   C36   1.496376 S    
O7    Zn2   1.995902 S    
N1    C25   1.490136 S    
O5    C3    1.290916 A    
O1    C1    1.297175 A    
C9    C11   1.540559 S    
N6    O24   1.298086 A    
C15   C31   1.496364 S    
C32   O14   1.218732 D    
O4    Zn1   2.014284 S    
N3    O16   1.300302 A    
C23   C26   1.538162 S    
C14   N4    1.459766 S    
C21   C23   1.530320 S    
C29   O11   1.219213 D    
C22   C26   1.516274 S    
O6    Zn2   1.997335 S    
C34   H12   1.084628 S    
C22   C24   1.531207 S    
N2    C26   1.490604 S    
N5    O22   1.298302 A    
C24   C25   1.536299 S    
O2    C2    1.296140 A    
C8    C28   1.493696 S    
C30   O12   1.219432 D    
C11   H1    1.108824 S    
C5    C10   1.530472 S    
C28   O10   1.218864 D    
C3    C10   1.418612 S    
C21   N2    1.476842 S    
C33   H11   1.084602 S    
C24   N2    1.489563 S    
N6    O23   1.299336 A    
O4    C2    1.288934 A    
C35   O25   1.219858 D    
C20   C34   1.500476 S    
C32   H10   1.083945 S    
C22   N1    1.479438 S    
C33   O19   1.218444 D    
N4    O18   1.300318 A    
C19   C33   1.501175 S    
C27   H5    1.084467 S    
C7    C27   1.494060 S    
O7    C3    1.290563 A    
C5    C11   1.542761 S    
O6    C4    1.290314 A    
C13   N3    1.459557 S    
C27   O9    1.218790 D    
O3    Zn2   2.014284 S    
O8    C4    1.290700 A    
C21   N5    1.453447 S    
C10   C12   1.540576 S    
C29   H7    1.084367 S    
C36   O26   1.219380 D    
C31   O13   1.218280 D    
C12   H2    1.108364 S    
O1    Zn1   2.011072 S    
C30   H8    1.084374 S    
C1    C18   1.427295 S    
C13   C18   1.531308 S    
C5    C7    1.533651 S    
C28   H6    1.084448 S    
C6    C12   1.542164 S    
C23   H3    1.106423 S    
C15   C20   1.544699 S    
C16   C19   1.545185 S    
C6    C30   1.499624 S    
O3    C1    1.288537 A    
O8    Zn1   1.995901 S    
C25   C35   1.494250 S    
C16   C32   1.495980 S    
C13   C15   1.535581 S    
C14   C16   1.535072 S    
C7    C12   1.543639 S    
C21   C25   1.514461 S    
N4    O17   1.299763 A    
C24   H4    1.106311 S    
C17   C19   1.544599 S    
C18   C20   1.545044 S    
C6    C9    1.529844 S    
C4    C9    1.417699 S    
C16   C18   1.540806 S    
C7    C9    1.527041 S    
C8    C10   1.527567 S    
C5    C29   1.499401 S    
N3    O15   1.299780 A    
O2    Zn2   2.011072 S    
Zn1   N1    2.045166 S    
Zn2   N2    2.045166 S    
C35   H13   1.078579 S    
O5    Zn1   1.997336 S    
C2    C17   1.425904 S    
C14   C17   1.530626 S    
C6    C8    1.533620 S    
C36   H14   1.081680 S    
C34   O20   1.217842 D    
C22   N6    1.453793 S    
