data_mof_unit_10812.cif
_audit_creation_date              2012-12-11T17:41:36-0500
_audit_creation_method            fapswitch 2.2
_symmetry_space_group_name_H-M    P1
_symmetry_Int_Tables_number       1
_space_group_crystal_system       triclinic
_cell_length_a                    15.454242
_cell_length_b                    14.869839
_cell_length_c                    15.152811
_cell_angle_alpha                 109.615856
_cell_angle_beta                  121.229067
_cell_angle_gamma                 59.379982
_cell_volume                      2550.23502225

loop_
_atom_site_label
_atom_site_type_symbol
_atom_type_description
_atom_site_fract_x
_atom_site_fract_y
_atom_site_fract_z
_atom_type_partial_charge
C1    C     C_R   0.758616 0.991073 0.790050 -0.112891
C2    C     C_R   0.338965 0.387763 0.104931 -0.095344
C3    C     C_R   0.603790 0.721265 0.858926 -0.124816
C4    C     C_R   0.405638 0.280943 0.092747 -0.149792
C5    C     C_R   0.644975 0.784654 0.947884 0.128101
C6    C     C_R   0.358300 0.208088 0.046436 0.140706
C7    C     C_R   0.759851 0.745641 0.013046 -0.179744
C8    C     C_R   0.243501 0.243345 0.012249 -0.161687
C9    C     C_R   0.832054 0.645741 0.988930 -0.116279
C10   C     C_R   0.177570 0.349996 0.027133 -0.130590
C11   C     C_R   0.790374 0.583796 0.899922 -0.093661
C12   C     C_R   0.200032 0.058453 0.225060 -0.117045
C13   C     C_R   0.225222 0.422238 0.073153 -0.102690
C14   C     C_R   0.574648 0.923178 0.070817 -0.211794
C15   C     C_R   0.418957 0.066450 0.923236 -0.189419
C16   C     C_R   0.201359 0.276083 0.443842 -0.109785
C17   C     C_R   0.775153 0.711717 0.524116 -0.120250
C18   C     C_R   0.504474 0.024761 0.095362 0.112489
C19   C     C_R   0.490287 0.965831 0.898826 0.115257
C20   C     C_R   0.426417 0.097455 0.021874 -0.022721
C21   C     C_R   0.568809 0.892300 0.972056 -0.005055
C22   C     C_2   0.025354 0.349241 0.467464 -0.201293
C23   C     C_R   0.139404 0.275564 0.484619 0.115438
C24   C     C_2   0.871428 0.604583 0.405860 -0.210973
C25   C     C_2   0.964677 0.417285 0.396465 -0.102661
C26   C     C_2   0.875369 0.514255 0.410040 -0.109534
C27   C     C_2   0.853246 0.114770 0.897197 -0.213673
C28   C     C_2   0.018239 0.043723 0.153311 -0.222006
C29   C     C_R   0.083804 0.726420 0.218339 -0.132393
C30   C     C_R   0.815263 0.124707 0.361627 -0.022290
C31   C     C_R   0.186818 0.659893 0.286294 -0.169724
C32   C     C_R   0.712819 0.207798 0.353677 -0.114398
C33   C     C_R   0.285042 0.634873 0.280973 0.103647
C34   C     C_R   0.807998 0.702343 0.450806 0.124070
C35   C     C_R   0.708193 0.292662 0.431115 0.087571
C36   C     C_R   0.278167 0.678688 0.207296 -0.172067
C37   C     C_R   0.807712 0.292352 0.517018 -0.193108
C38   C     C_R   0.174830 0.745069 0.139393 -0.092351
C39   C     C_R   0.909772 0.208561 0.525116 -0.110307
C40   C     C_R   0.593749 0.216726 0.488789 -0.136918
C41   C     C_R   0.404110 0.769928 0.446088 -0.120066
C42   C     C_R   0.077718 0.768149 0.144341 -0.117405
C43   C     C_R   0.913607 0.125040 0.447267 -0.103413
C44   C     C_R   0.399589 0.460797 0.346987 -0.237594
C45   C     C_R   0.502935 0.298690 0.431592 0.053503
C46   C     C_R   0.594683 0.483213 0.424011 -0.241964
C47   C     C_R   0.502414 0.378503 0.394294 0.064555
C48   C     C_R   0.492862 0.571676 0.402084 0.063655
C49   C     C_R   0.600685 0.384834 0.417846 0.029504
C50   C     C_R   0.393555 0.556899 0.346172 0.019734
C51   C     C_2   0.867055 0.101796 0.987655 -0.112686
C52   C     C_2   0.962169 0.111093 0.081993 -0.106489
C53   C     C_R   0.405508 0.995439 0.716931 0.695029
C54   C     C_R   0.592656 0.003259 0.280415 0.665728
C55   C     C_R   0.409656 0.289350 0.412378 -0.111374
C56   C     C_R   0.494484 0.674509 0.452224 0.048966
C57   C     C_R   0.588767 0.693060 0.523367 -0.120251
C58   C     C_R   0.589948 0.923036 0.794202 -0.251682
C59   C     C_R   0.408041 0.072592 0.203492 -0.237554
C60   C     C_R   0.199806 0.185319 0.534131 -0.127660
C61   C     C_R   0.767507 0.801772 0.426196 -0.141880
C62   C     C_R   0.758748 0.084104 0.700124 -0.134563
C63   C     C_R   0.195717 0.970060 0.314837 -0.136558
C64   C     C_R   0.790577 0.067047 0.799582 0.136198
C65   C     C_R   0.134858 0.021232 0.225839 0.143221
C66   C     C_R   0.495299 0.951206 0.804002 -0.120686
C67   C     C_R   0.501650 0.044154 0.192041 -0.101266
C68   C     C_R   0.676366 0.621487 0.835034 -0.114470
F1    F     F_    0.297858 0.019038 0.688214 -0.745740
F2    F     F_    0.698814 0.983050 0.307475 -0.763467
H1    H     H_    0.774004 0.955922 0.851291 0.090330
H2    H     H_    0.493156 0.255452 0.115839 0.106686
H3    H     H_    0.793760 0.793238 0.081509 0.119334
H4    H     H_    0.205274 0.188331 0.973761 0.115580
H5    H     H_    0.920430 0.616548 0.038997 0.109627
H6    H     H_    0.089266 0.376863 0.001469 0.104842
H7    H     H_    0.631169 0.866292 0.127660 0.145363
H8    H     H_    0.362555 0.124377 0.867378 0.155452
H9    H     H_    0.827076 0.512584 0.441543 0.125409
H10   H     H_    0.993559 0.412627 0.342636 0.124192
H11   H     H_    0.920327 0.605893 0.374803 0.132210
H12   H     H_    0.175440 0.112312 0.174801 0.082549
H13   H     H_    0.995695 0.355477 0.521464 0.133267
H14   H     H_    0.997647 0.818115 0.090638 0.101212
H15   H     H_    0.992801 0.060753 0.453148 0.120833
H16   H     H_    0.175396 0.328694 0.391568 0.083129
H17   H     H_    0.805591 0.651075 0.569665 0.087530
H18   H     H_    0.008538 0.744741 0.222357 0.115705
H19   H     H_    0.818521 0.060285 0.301042 0.146751
H20   H     H_    0.189886 0.627354 0.342506 0.114932
H21   H     H_    0.637426 0.206721 0.286654 0.118891
H22   H     H_    0.352483 0.659711 0.201098 0.118561
H23   H     H_    0.981893 0.996625 0.151492 0.130692
H24   H     H_    0.806271 0.357035 0.577501 0.111971
H25   H     H_    0.169904 0.777872 0.082266 0.119899
H26   H     H_    0.986019 0.208854 0.591329 0.127307
H27   H     H_    0.322929 0.451800 0.311764 0.128298
H28   H     H_    0.670384 0.490900 0.449329 0.119855
H29   H     H_    0.680265 0.191919 0.510230 0.130918
H30   H     H_    0.317007 0.787148 0.404785 0.124693
H31   H     H_    0.324321 0.331043 0.360115 0.088156
H32   H     H_    0.672351 0.634781 0.556401 0.086099
H33   H     H_    0.675298 0.880571 0.846157 0.148318
H34   H     H_    0.898976 0.150119 0.895529 0.130787
H35   H     H_    0.321845 0.109094 0.150065 0.141013
H36   H     H_    0.168947 0.154568 0.561665 0.164416
H37   H     H_    0.782210 0.822018 0.374797 0.172677
H38   H     H_    0.772356 0.137415 0.679854 0.104108
H39   H     H_    0.162976 0.945099 0.345867 0.108410
H40   H     H_    0.996762 0.159435 0.083204 0.124199
H41   H     H_    0.821997 0.066408 0.990229 0.127552
H42   H     H_    0.846432 0.506599 0.881229 0.096512
H43   H     H_    0.173834 0.504948 0.083177 0.126284
H44   H     H_    0.644194 0.573399 0.766109 0.114305
H45   H     H_    0.375510 0.443825 0.138444 0.123526
H46   H     H_    0.515635 0.749181 0.807990 0.124375
N1    N     N_R   0.705410 0.966550 0.689210 -0.045060
N2    N     N_R   0.556610 0.796750 0.548620 -0.041438
N3    N     N_R   0.556610 0.951620 0.703500 -0.070934
N4    N     N_R   0.443390 0.048380 0.296500 -0.070956
N5    N     N_R   0.294590 0.131500 0.522480 -0.046595
N6    N     N_R   0.705410 0.868500 0.477520 -0.042668
N7    N     N_R   0.705410 0.023370 0.632390 -0.042704
N8    N     N_R   0.294590 0.976630 0.367610 -0.046270
N9    N     N_R   0.294590 0.033450 0.310790 -0.043822
N10   N     N_R   0.294590 0.188320 0.465660 -0.048435
N11   N     N_R   0.705410 0.811680 0.534340 -0.046234
N12   N     N_R   0.556610 0.157790 0.497330 -0.046098
N13   N     N_R   0.443390 0.842210 0.502670 -0.046481
N14   N     N_R   0.443390 0.997080 0.657540 -0.103493
N15   N     N_R   0.556610 0.002920 0.342460 -0.099796
N16   N     N_R   0.443390 0.203250 0.451380 -0.043735
Ni1   Ni    Ni4+2 0.629830 0.882720 0.617850 0.208740
Ni2   Ni    Ni4+2 0.370170 0.117280 0.382150 0.196918
Ni3   Ni    Ni4+2 0.629830 0.013030 0.487540 0.254004
Ni4   Ni    Ni4+2 0.370170 0.986970 0.512460 0.244955

loop_
_geom_bond_atom_site_label_1
_geom_bond_atom_site_label_2
_ccdc_geom_bond_type
N9    Ni2   S    
C41   N13   A    
C63   C65   A    
C59   N4    A    
C29   C42   A    
C25   H10   S    
C14   C18   A    
C3    C68   A    
C53   F1    S    
C33   C36   A    
C40   H29   S    
C63   N8    A    
C47   C49   A    
C15   C19   A    
C54   N15   A    
C46   C49   A    
N3    Ni1   S    
C14   C21   A    
C35   C37   A    
C24   C26   D    
C38   C42   A    
N15   Ni3   S    
C3    H46   S    
C15   H8    S    
C62   H38   S    
N4    N15   A    
C27   H34   S    
N3    N14   A    
C56   C57   A    
C19   C66   S    
C48   C56   S    
C2    H45   S    
C14   H7    S    
N6    N11   A    
C2    C13   A    
C29   H18   S    
C62   C64   A    
C59   C67   A    
C10   H6    S    
C58   C66   A    
C22   C25   D    
C38   H25   S    
C35   C49   S    
C31   C33   A    
N4    Ni2   S    
C44   C47   A    
C36   H22   S    
C48   C50   A    
C46   H28   S    
N1    Ni1   S    
C16   H16   S    
C23   C60   A    
C30   H19   S    
N12   N16   A    
C62   N7    A    
C25   C26   S    
C27   C51   D    
C45   C47   S    
C15   C20   A    
C37   C39   A    
C46   C48   A    
N8    N9    A    
N8    Ni4   S    
C51   C52   S    
C43   H15   S    
C32   C35   A    
C42   H14   S    
C4    C6    A    
N12   Ni3   S    
C5    C7    A    
C17   N11   A    
C39   C43   A    
C12   N9    A    
C53   N14   A    
C33   C50   S    
C34   C61   A    
C24   C34   S    
N7    Ni3   S    
C61   N6    A    
C63   H39   S    
C2    C4    A    
C24   H11   S    
C41   C56   A    
C57   H32   S    
N13   Ni4   S    
C44   H27   S    
C54   F2    S    
C52   H40   S    
C31   H20   S    
C7    H3    S    
C8    H4    S    
C41   H30   S    
C12   H12   S    
C59   H35   S    
C53   C66   A    
C9    C11   A    
C45   C55   A    
N2    Ni1   S    
C8    C10   A    
C16   C23   A    
C30   C43   A    
C17   C34   A    
C1    C64   A    
C4    H2    S    
C60   H36   S    
C11   C68   A    
C44   C50   A    
C7    C9    A    
C51   H41   S    
C19   C21   A    
C11   H42   S    
C17   H17   S    
N14   Ni4   S    
N11   Ni1   S    
N6    Ni3   S    
C3    C5    A    
C10   C13   A    
C6    C8    A    
C54   C67   A    
C6    C20   S    
C12   C65   A    
C55   H31   S    
C26   H9    S    
C22   H13   S    
C36   C38   A    
C28   C65   S    
C18   C67   S    
N5    N10   A    
C29   C31   A    
N2    N13   A    
C30   C32   A    
C28   C52   D    
C1    H1    S    
C58   N3    A    
C37   H24   S    
C18   C20   A    
N5    Ni4   S    
N1    N7    A    
C60   N5    A    
C61   H37   S    
C39   H26   S    
C27   C64   S    
C32   H21   S    
C5    C21   S    
C40   C45   A    
N10   Ni2   S    
N16   Ni2   S    
C55   N16   A    
C22   C23   S    
C28   H23   S    
C58   H33   S    
C9    H5    S    
C1    N1    A    
C16   N10   A    
C13   H43   S    
C68   H44   S    
C57   N2    A    
C40   N12   A    
