data_mof_unit_53541.cif
_audit_creation_date              2012-12-10T17:51:32-0500
_audit_creation_method            fapswitch 2.2
_symmetry_space_group_name_H-M    P1
_symmetry_Int_Tables_number       1
_space_group_crystal_system       triclinic
_cell_length_a                    9.965366
_cell_length_b                    10.660848
_cell_length_c                    16.859766
_cell_angle_alpha                 94.345082
_cell_angle_beta                  86.830208
_cell_angle_gamma                 91.902271
_cell_volume                      1782.53133507

loop_
_atom_site_label
_atom_site_type_symbol
_atom_type_description
_atom_site_fract_x
_atom_site_fract_y
_atom_site_fract_z
_atom_type_partial_charge
C1    C     C_R   0.502410 0.737870 0.490834 0.837286
C2    C     C_R   0.520580 0.453546 0.262492 -0.103508
C3    C     C_R   0.279140 0.865692 0.425527 -0.276397
C4    C     C_R   0.482722 0.496678 0.652476 0.866693
C5    C     C_R   0.151470 0.915145 0.429891 0.328635
C6    C     C_R   0.127801 0.027437 0.475950 0.345441
C7    C     C_R   0.234663 0.095185 0.511820 0.430134
C8    C     C_R   0.368943 0.053195 0.496630 -0.099966
C9    C     C_R   0.385129 0.929146 0.465655 -0.020508
C10   C     C_R   0.505160 0.870130 0.479749 -0.071840
C11   C     C_R   0.619086 0.940386 0.501555 -0.158595
C12   C     C_R   0.347818 0.480949 0.778578 -0.298905
C13   C     C_R   0.610723 0.067718 0.516942 -0.158286
C14   C     C_R   0.488311 0.125992 0.512093 -0.115990
C15   C     C_R   0.866779 0.690522 0.602817 0.583354
C16   C     C_R   0.496304 0.260337 0.505976 0.906167
C17   C     C_R   0.949925 0.783977 0.641819 -0.269174
C18   C     C_R   0.086068 0.773924 0.640541 -0.301198
C19   C     C_R   0.145094 0.673703 0.598864 -0.080023
C20   C     C_R   0.072997 0.587191 0.549433 0.025211
C21   C     C_R   0.928310 0.590909 0.550077 -0.016735
C22   C     C_R   0.930206 0.418760 0.450753 0.388876
C23   C     C_R   0.399829 0.373232 0.148719 -0.252907
C24   C     C_R   0.073094 0.419054 0.450748 0.420140
C25   C     C_R   0.516585 0.493029 0.347162 0.900627
C26   C     C_R   0.472974 0.475246 0.736627 -0.122439
C27   C     C_R   0.586468 0.439886 0.773993 -0.233899
C28   C     C_R   0.575250 0.411959 0.852981 -0.218469
C29   C     C_R   0.449807 0.417040 0.895037 0.078271
C30   C     C_R   0.334997 0.450021 0.857164 0.493690
C31   C     C_3   0.828996 0.245555 0.133945 0.058357
C32   C     C_3   0.971729 0.288099 0.154868 -0.353492
C33   C     C_3   0.046525 0.181624 0.186954 -0.805220
C34   C     C_R   0.399212 0.425595 0.225981 -0.155088
C35   C     C_3   0.216608 0.164809 0.644464 0.109633
C36   C     C_3   0.077373 0.148251 0.685943 -0.374039
C37   C     C_3   0.997304 0.268675 0.689636 -0.749599
C38   C     C_3   0.672389 0.791259 0.667191 0.071346
C39   C     C_3   0.679914 0.779179 0.757077 -0.377142
C40   C     C_3   0.646292 0.902824 0.804479 -0.950352
C41   C     C_3   0.150841 0.336124 0.898838 0.030424
C42   C     C_3   0.999370 0.346763 0.916292 -0.282797
C43   C     C_3   0.930482 0.217157 0.919928 -0.968497
C44   C     C_R   0.642873 0.424716 0.221008 -0.251268
C45   C     C_R   0.644119 0.370406 0.142709 0.498094
C46   C     C_R   0.521891 0.352983 0.105038 0.101254
C47   C     C_2   0.439679 0.405040 0.980556 -0.224521
C48   C     C_2   0.521569 0.335180 0.018269 -0.200484
Cl1   Cl    Cl    0.020711 0.828626 0.382966 -0.569446
Cl2   Cl    Cl    0.964080 0.083205 0.490133 -0.574285
Cl3   Cl    Cl    0.846449 0.314006 0.383145 -0.536497
Cl4   Cl    Cl    0.162877 0.314207 0.383835 -0.563497
H1    H     H_    0.684092 0.434601 0.742472 0.177629
H2    H     H_    0.597783 0.278533 0.985831 0.170188
H3    H     H_    0.304478 0.354527 0.121567 0.158087
H4    H     H_    0.259053 0.507748 0.750359 0.177969
H5    H     H_    0.366408 0.463983 0.014220 0.196447
H6    H     H_    0.665693 0.391048 0.881486 0.164587
H7    H     H_    0.834437 0.164805 0.088377 0.160812
H8    H     H_    0.775034 0.209281 0.187890 0.164867
H9    H     H_    0.028446 0.319558 0.101004 0.218794
H10   H     H_    0.967187 0.368733 0.200638 0.254689
H11   H     H_    0.992386 0.148922 0.241321 0.324326
H12   H     H_    0.713710 0.896762 0.509077 0.211976
H13   H     H_    0.148843 0.215584 0.202613 0.276763
H14   H     H_    0.055964 0.101405 0.141149 0.241075
H15   H     H_    0.272357 0.242999 0.676752 0.152700
H16   H     H_    0.274701 0.078304 0.649897 0.052650
H17   H     H_    0.020509 0.070682 0.654019 0.239427
H18   H     H_    0.089509 0.120652 0.747197 0.154270
H19   H     H_    0.053213 0.347922 0.720712 0.233521
H20   H     H_    0.899246 0.253945 0.722673 0.219597
H21   H     H_    0.977656 0.293990 0.628723 0.295554
H22   H     H_    0.564026 0.790995 0.654909 0.142860
H23   H     H_    0.294685 0.776541 0.391536 0.212469
H24   H     H_    0.712335 0.883214 0.647955 0.125460
H25   H     H_    0.606905 0.705117 0.775999 0.234778
H26   H     H_    0.781278 0.750914 0.771738 0.227828
H27   H     H_    0.720931 0.977947 0.788845 0.261006
H28   H     H_    0.649012 0.890616 0.869187 0.274235
H29   H     H_    0.544102 0.931914 0.791763 0.259852
H30   H     H_    0.193719 0.285913 0.946668 0.151988
H31   H     H_    0.167476 0.279586 0.840940 0.135112
H32   H     H_    0.980199 0.402175 0.974076 0.251602
H33   H     H_    0.955512 0.397057 0.868910 0.217152
H34   H     H_    0.700473 0.121176 0.532907 0.229148
H35   H     H_    0.939942 0.163420 0.861040 0.259813
H36   H     H_    0.822095 0.227868 0.936615 0.270997
H37   H     H_    0.976033 0.163280 0.964933 0.263786
H38   H     H_    0.912117 0.862371 0.679623 0.149267
H39   H     H_    0.302982 0.443899 0.256880 0.212674
H40   H     H_    0.146333 0.842188 0.675084 0.155153
H41   H     H_    0.249008 0.668603 0.607064 0.211005
H42   H     H_    0.737261 0.443127 0.249141 0.204864
N1    N     N_R   0.857140 0.501200 0.500750 -0.161391
N2    N     N_R   0.142740 0.501280 0.500770 -0.154539
O1    O     O_R   0.385310 0.683220 0.500000 -0.652775
O2    O     O_3   0.203890 0.196550 0.565215 -0.556463
O3    O     O_3   0.729721 0.686777 0.621503 -0.599861
O4    O     O_3   0.210208 0.458209 0.897141 -0.653744
O5    O     O_R   0.614640 0.683250 0.500010 -0.560251
O6    O     O_R   0.371780 0.500010 0.615800 -0.653046
O7    O     O_R   0.601110 0.500030 0.615800 -0.560987
O8    O     O_R   0.385360 0.316750 0.499990 -0.527047
O9    O     O_R   0.614690 0.316780 0.500000 -0.582314
O10   O     O_R   0.398890 0.499970 0.384200 -0.596489
O11   O     O_R   0.628220 0.499990 0.384200 -0.574042
O12   O     O_3   0.764804 0.344858 0.100848 -0.661206
Zn1   Zn    Zn3+2 0.346870 0.499980 0.499990 1.009117
Zn2   Zn    Zn3+2 0.653130 0.500020 0.500010 1.049491

loop_
_geom_bond_atom_site_label_1
_geom_bond_atom_site_label_2
_ccdc_geom_bond_type
C24   Cl4   S    
O9    Zn2   S    
C41   C42   S    
C7    O2    S    
C22   N1    A    
C19   C20   A    
C33   H13   S    
C7    C8    A    
C38   H24   S    
C45   C46   A    
C36   H17   S    
C48   H2    S    
C26   C27   A    
C43   H37   S    
C29   C47   S    
O7    Zn2   S    
C43   H36   S    
C39   H25   S    
C36   C37   S    
C32   H9    S    
C24   N2    A    
C38   C39   S    
C41   H31   S    
C4    O7    A    
C30   O4    S    
C18   C19   A    
C31   O12   S    
C31   H7    S    
C34   H39   S    
C16   O8    A    
C31   C32   S    
C2    C44   A    
C8    C9    A    
C4    O6    A    
C13   H34   S    
C25   O10   A    
C40   H28   S    
C35   O2    S    
C3    H23   S    
C9    C10   A    
C19   H41   S    
C45   O12   S    
C2    C34   A    
C20   N2    A    
C23   C46   A    
C13   C14   A    
C5    Cl1   S    
C36   H18   S    
C33   H14   S    
C46   C48   S    
C41   O4    S    
C1    C10   S    
C39   H26   S    
C42   H32   S    
C11   H12   S    
C1    O1    A    
C39   C40   S    
C21   N1    A    
O5    Zn2   S    
C12   C26   A    
C35   C36   S    
C31   H8    S    
C29   C30   A    
C3    C9    A    
C47   H5    S    
O1    Zn1   S    
C47   C48   D    
C35   H15   S    
C33   H11   S    
C23   C34   A    
C17   C18   A    
C40   H27   S    
C42   H33   S    
C6    Cl2   S    
C12   H4    S    
C16   O9    A    
C37   H19   S    
O11   Zn2   S    
C14   C16   S    
C42   C43   S    
C1    O5    A    
C44   C45   A    
C25   O11   A    
C38   H22   S    
C15   C17   A    
C37   H21   S    
C28   C29   A    
C8    C14   A    
C12   C30   A    
C40   H29   S    
C17   H38   S    
C15   O3    S    
C38   O3    S    
C3    C5    A    
N1    Zn2   S    
C4    C26   S    
C27   H1    S    
C23   H3    S    
C6    C7    A    
C28   H6    S    
N2    Zn1   S    
C18   H40   S    
C32   C33   S    
C43   H35   S    
C11   C13   A    
C5    C6    A    
C35   H16   S    
C41   H30   S    
C2    C25   S    
C22   C24   A    
C44   H42   S    
C10   C11   A    
C32   H10   S    
C15   C21   A    
C20   C21   A    
C37   H20   S    
C27   C28   A    
O8    Zn1   S    
O6    Zn1   S    
C22   Cl3   S    
O10   Zn1   S    
