data_mof_unit_12971.cif
_audit_creation_date              2012-12-10T18:09:44-0500
_audit_creation_method            fapswitch 2.2
_symmetry_space_group_name_H-M    P1
_symmetry_Int_Tables_number       1
_space_group_crystal_system       triclinic
_cell_length_a                    10.808247
_cell_length_b                    12.693813
_cell_length_c                    13.014972
_cell_angle_alpha                 80.742672
_cell_angle_beta                  93.772431
_cell_angle_gamma                 103.771647
_cell_volume                      1711.00135491

loop_
_atom_site_label
_atom_site_type_symbol
_atom_type_description
_atom_site_fract_x
_atom_site_fract_y
_atom_site_fract_z
_atom_type_partial_charge
C1    C     C_R   0.485571 0.437688 0.692480 0.951780
C2    C     C_R   0.508936 0.445991 0.978585 -0.060974
C3    C     C_R   0.550920 0.462587 0.876363 -0.180847
C4    C     C_R   0.742090 0.501058 0.500057 0.924951
C5    C     C_R   0.549775 0.533400 0.038037 0.005111
C6    C     C_R   0.658686 0.618477 0.008121 -0.117629
C7    C     C_R   0.717056 0.618504 0.915499 -0.105703
C8    C     C_R   0.665192 0.542227 0.850238 0.528532
C9    C     C_R   0.485711 0.538877 0.126712 0.384379
C10   C     C_R   0.660067 0.684524 0.174227 0.381450
C11   C     C_R   0.482261 0.395687 0.805409 -0.186314
C12   C     C_3   0.119379 0.490687 0.499243 -0.170835
C13   C     C_R   0.274655 0.074955 0.385928 -0.132102
C14   C     C_R   0.670907 0.805239 0.617862 0.483815
C15   C     C_R   0.705485 0.911518 0.646888 0.310658
C16   C     C_R   0.517352 0.561811 0.308524 0.983780
C17   C     C_R   0.630181 0.985353 0.612205 -0.207568
C18   C     C_R   0.527091 0.959305 0.542298 -0.043144
C19   C     C_R   0.496809 0.852526 0.513315 0.071014
C20   C     C_R   0.457134 0.037209 0.494902 0.040081
C21   C     C_R   0.342885 0.999836 0.437863 -0.015459
C22   C     C_R   0.305413 0.889316 0.425992 -0.292337
C23   C     C_3   0.093430 0.597840 0.430685 -0.447501
C24   C     C_R   0.396608 0.827809 0.439749 -0.019650
C25   C     C_R   0.498355 0.150921 0.498376 -0.056229
C26   C     C_R   0.323692 0.186307 0.388019 0.572619
C27   C     C_R   0.257751 0.497641 0.498611 0.864708
C28   C     C_3   0.895033 0.403587 0.438123 -0.278778
C29   C     C_3   0.034368 0.386039 0.452185 0.232024
C30   C     C_3   0.958304 0.610730 0.447096 0.246276
C31   C     C_3   0.932830 0.479282 0.615151 -0.382443
C32   C     C_3   0.878530 0.498346 0.499423 -0.100966
C33   C     C_2   0.846213 0.416584 0.324570 1.077546
C34   C     C_3   0.080560 0.494800 0.612530 -0.335621
C35   C     C_2   0.825975 0.785694 0.044691 0.903423
C36   C     C_2   0.155152 0.041344 0.324102 0.989940
C37   C     C_2   0.421028 0.796804 0.340434 1.003992
C38   C     C_2   0.036480 0.274900 0.520720 1.087984
C39   C     C_2   0.864854 0.376148 0.685535 1.008304
C40   C     C_2   0.142339 0.429806 0.701983 0.978067
C41   C     C_R   0.711448 0.697249 0.074620 -0.107851
C42   C     C_R   0.550920 0.600771 0.200412 -0.190662
C43   C     C_R   0.404430 0.292554 0.843392 0.288060
C44   C     C_R   0.381632 0.264426 0.951592 0.270696
C45   C     C_R   0.436924 0.340263 0.019708 0.432028
H1    H     H_    0.120333 0.581525 0.625487 0.180163
H2    H     H_    0.917570 0.547628 0.652988 0.189395
H3    H     H_    0.708435 0.363345 0.219911 0.359292
H4    H     H_    0.767133 0.820079 0.214143 0.360322
H5    H     H_    0.008943 0.856012 0.078216 0.376719
H6    H     H_    0.315664 0.477203 0.075199 0.365985
H7    H     H_    0.348220 0.144362 0.810327 0.353054
H8    H     H_    0.385028 0.232901 0.144640 0.400233
H9    H     H_    0.235290 0.143347 0.939206 0.360635
H10   H     H_    0.711695 0.466530 0.747843 0.312554
H11   H     H_    0.306796 0.332037 0.330364 0.408977
H12   H     H_    0.964827 0.672296 0.500877 0.133738
H13   H     H_    0.968319 0.040069 0.302843 0.356570
H14   H     H_    0.797038 0.749407 0.710602 0.338309
H15   H     H_    0.882351 0.918109 0.685996 0.334637
H16   H     H_    0.350079 0.719503 0.218019 0.351478
H17   H     H_    0.945427 0.139651 0.614478 0.387086
H18   H     H_    0.137653 0.443392 0.324300 0.367386
H19   H     H_    0.950492 0.726323 0.331577 0.380752
H20   H     H_    0.721228 0.241055 0.706591 0.348163
H21   H     H_    0.147620 0.283663 0.787522 0.372663
H22   H     H_    0.160647 0.671888 0.452584 0.186038
H23   H     H_    0.806197 0.675520 0.893850 0.176636
H24   H     H_    0.829597 0.327054 0.471647 0.214944
H25   H     H_    0.220598 0.860036 0.380299 0.186927
H26   H     H_    0.582236 0.184997 0.541910 0.186185
H27   H     H_    0.656522 0.063733 0.639395 0.200777
H28   H     H_    0.107500 0.599108 0.346931 0.270837
N1    N     N_R   0.433240 0.222190 0.444680 -0.154786
N2    N     N_R   0.566070 0.776970 0.554790 -0.152809
O1    O     O_R   0.468120 0.366740 0.627160 -0.552524
O2    O     O_R   0.732220 0.346968 0.296517 -0.776850
O3    O     O_3   0.714716 0.749885 0.248168 -0.662375
O4    O     O_2   0.822278 0.852499 0.966237 -0.576453
O5    O     O_R   0.937691 0.792214 0.106355 -0.748855
O6    O     O_3   0.359288 0.487079 0.143579 -0.713619
O7    O     O_3   0.355143 0.220267 0.774114 -0.725519
O8    O     O_3   0.430569 0.310579 0.126727 -0.702602
O9    O     O_3   0.301838 0.166432 0.992313 -0.736110
O10   O     O_3   0.738141 0.539788 0.768714 -0.750249
O11   O     O_3   0.256903 0.257061 0.331819 -0.669043
O12   O     O_R   0.510770 0.544830 0.662520 -0.562781
O13   O     O_2   0.155908 0.996474 0.247802 -0.605553
O14   O     O_R   0.043136 0.065675 0.351113 -0.727387
O15   O     O_3   0.740643 0.728123 0.650912 -0.701840
O16   O     O_3   0.811976 0.946523 0.707763 -0.716574
O17   O     O_2   0.522580 0.839111 0.298485 -0.574126
O18   O     O_R   0.323912 0.729415 0.288571 -0.833263
O19   O     O_2   0.131099 0.237441 0.524889 -0.523690
O20   O     O_R   0.929726 0.210738 0.574215 -0.797663
O21   O     O_3   0.076822 0.375856 0.354251 -0.687880
O22   O     O_3   0.902170 0.649658 0.352766 -0.675821
O23   O     O_R   0.663880 0.410950 0.482330 -0.608830
O24   O     O_2   0.894555 0.363776 0.778326 -0.567915
O25   O     O_R   0.760864 0.301570 0.649473 -0.806613
O26   O     O_2   0.217528 0.479265 0.762060 -0.631399
O27   O     O_R   0.111195 0.315352 0.719082 -0.747910
O28   O     O_R   0.706530 0.589040 0.517700 -0.529391
O29   O     O_R   0.489230 0.455170 0.337480 -0.608520
O30   O     O_R   0.531880 0.633260 0.372840 -0.573932
O31   O     O_R   0.293470 0.410960 0.482300 -0.587103
O32   O     O_R   0.336120 0.589050 0.517670 -0.634703
O33   O     O_2   0.906400 0.484892 0.257723 -0.536418
Zn1   Zn    Zn3+2 0.471520 0.381090 0.476390 1.054707
Zn2   Zn    Zn3+2 0.528480 0.618910 0.523610 1.057339

loop_
_geom_bond_atom_site_label_1
_geom_bond_atom_site_label_2
_ccdc_geom_bond_type
C36   O14   S    
C1    O12   A    
O30   Zn2   S    
C30   H12   S    
C4    O23   A    
C12   C29   S    
C10   C42   A    
H21   O27   S    
C28   H24   S    
C1    C11   S    
N1    Zn1   S    
H9    O9    S    
C10   O3    S    
C7    C8    A    
O12   Zn2   S    
C36   O13   D    
C12   C23   S    
C9    C42   A    
O28   Zn2   S    
C34   C40   S    
C28   C29   S    
C18   C19   A    
O29   Zn1   S    
H16   O18   S    
C20   C25   A    
C4    O28   A    
C35   O5    S    
H4    O3    S    
C8    O10   S    
C23   H22   S    
C14   O15   S    
C7    H23   S    
H11   O11   S    
C16   O29   A    
O1    Zn1   S    
C6    C41   A    
C38   O20   S    
C11   C43   A    
C25   H26   S    
H6    O6    S    
C40   O26   D    
O23   Zn1   S    
C31   H2    S    
C21   C22   A    
C10   C41   A    
C45   O8    S    
C33   O33   D    
C23   H28   S    
C24   C37   S    
C2    C45   A    
C25   N1    A    
C12   C27   S    
C37   O18   S    
C23   C30   S    
C28   C32   S    
C29   C38   S    
C13   C36   S    
C3    C8    A    
C27   O31   A    
C40   O27   S    
H18   O21   S    
H14   O15   S    
H3    O2    S    
H10   O10   S    
C43   C44   A    
C5    C9    A    
C39   O24   D    
C31   C32   S    
C30   O22   S    
C27   O32   A    
C26   O11   S    
C38   O19   D    
C17   C18   A    
C31   C34   S    
C13   C21   A    
H7    O7    S    
C4    C32   S    
C16   O30   A    
C34   H1    S    
H19   O22   S    
C28   C33   S    
O32   Zn2   S    
C22   C24   A    
C13   C26   A    
C2    C5    A    
C12   C34   S    
C16   C42   S    
C44   C45   A    
H15   O16   S    
C15   C17   A    
N2    Zn2   S    
C37   O17   D    
C1    O1    A    
H20   O25   S    
C44   O9    S    
H5    O5    S    
C29   O21   S    
C6    C7    A    
H8    O8    S    
C14   N2    A    
C19   N2    A    
C2    C3    A    
C30   C32   S    
C33   O2    S    
C39   O25   S    
C5    C6    A    
C35   O4    D    
C26   N1    A    
C31   C39   S    
C19   C24   A    
C18   C20   A    
C35   C41   S    
H13   O14   S    
C3    C11   A    
C15   O16   S    
C20   C21   A    
C17   H27   S    
C43   O7    S    
C14   C15   A    
H17   O20   S    
C22   H25   S    
C9    O6    S    
O31   Zn1   S    
