data_mof_unit_36269.cif
_audit_creation_date              2013-03-05T16:23:17-0500
_audit_creation_method            fapswitch 2.2
_symmetry_space_group_name_H-M    P1
_symmetry_Int_Tables_number       1
_space_group_crystal_system       triclinic
_cell_length_a                    27.745016
_cell_length_b                    10.492963
_cell_length_c                    9.75957
_cell_angle_alpha                 89.573402
_cell_angle_beta                  90.075687
_cell_angle_gamma                 89.898504
_cell_volume                      2841.19275515

loop_
_atom_site_label
_atom_site_type_symbol
_atom_site_description
_atom_site_fract_x
_atom_site_fract_y
_atom_site_fract_z
_atom_type_partial_charge
O1    O     O_R   0.500000 0.313960 0.616610 -0.626181
O2    O     O_R   0.500000 0.686040 0.383390 -0.608235
O3    O     O_R   0.500020 0.313950 0.383350 -0.616988
O4    O     O_R   0.499980 0.686050 0.616650 -0.633076
C1    C     C_R   0.500132 0.257687 0.500562 0.893812
C2    C     C_R   0.499787 0.742275 0.499431 0.905342
O5    O     O_R   0.428750 0.500030 0.616610 -0.621239
O6    O     O_R   0.571250 0.499970 0.383390 -0.575957
O7    O     O_R   0.428770 0.500020 0.383360 -0.591279
O8    O     O_R   0.571230 0.499980 0.616640 -0.632324
C3    C     C_R   0.406245 0.503213 0.499893 0.945841
C4    C     C_R   0.593858 0.497684 0.500059 0.936963
Zn1   Zn    Zn3+2 0.499990 0.500010 0.655740 0.967423
Zn2   Zn    Zn3+2 0.500010 0.499990 0.344260 1.019360
C5    C     C_R   0.178043 0.401449 0.485588 0.594032
C6    C     C_R   0.822009 0.612916 0.495158 0.592945
O9    O     O_2   0.203296 0.293500 0.463006 -0.515824
O10   O     O_2   0.796528 0.721678 0.478259 -0.515620
N1    N     N_R   0.201686 0.513073 0.508124 -0.331114
N2    N     N_R   0.798596 0.500011 0.512725 -0.330773
C7    C     C_R   0.177761 0.625384 0.527656 0.571922
C8    C     C_R   0.822660 0.387145 0.528057 0.576611
C9    C     C_R   0.277382 0.570181 0.399820 -0.182158
C10   C     C_R   0.723728 0.455395 0.394685 -0.187567
C11   C     C_R   0.327567 0.572822 0.395900 0.304456
C12   C     C_R   0.673638 0.450155 0.388793 0.313375
C13   C     C_R   0.329199 0.452296 0.610671 -0.304556
C14   C     C_R   0.670465 0.540216 0.618384 -0.302193
C15   C     C_R   0.278993 0.454950 0.617782 0.379425
C16   C     C_R   0.720694 0.541308 0.626077 0.376833
C17   C     C_R   0.253134 0.512829 0.509466 0.130162
C18   C     C_R   0.747206 0.499148 0.511922 0.132933
C19   C     C_R   0.101864 0.512760 0.506097 -0.055613
C20   C     C_R   0.898373 0.501325 0.510120 -0.055476
C21   C     C_R   0.127819 0.398598 0.486583 -0.022927
C22   C     C_R   0.872247 0.616047 0.494869 -0.024679
C23   C     C_R   0.103280 0.283962 0.467787 -0.106582
C24   C     C_R   0.896631 0.731410 0.478405 -0.108257
C25   C     C_R   0.126881 0.628855 0.525545 -0.070385
C26   C     C_R   0.873531 0.384381 0.526892 -0.070387
C27   C     C_R   0.353684 0.510003 0.500978 -0.221468
C28   C     C_R   0.646617 0.494962 0.501427 -0.224557
H1    H     H_    0.349395 0.405967 0.692077 0.218137
H2    H     H_    0.649809 0.574090 0.704959 0.217178
H3    H     H_    0.122536 0.195986 0.448845 0.200449
H4    H     H_    0.877215 0.819857 0.462343 0.201005
C29   C     C_R   0.975665 0.388725 0.512865 0.039120
C30   C     C_R   0.024627 0.625423 0.514458 0.038988
C31   C     C_R   0.973793 0.622883 0.502412 0.057220
C32   C     C_R   0.026376 0.391724 0.498314 0.057302
C33   C     C_R   0.949391 0.504219 0.508495 0.079763
C34   C     C_R   0.050841 0.510092 0.506233 0.079696
C35   C     C_R   0.950546 0.273779 0.534590 -0.245009
C36   C     C_R   0.049964 0.739640 0.536984 -0.244753
C37   C     C_R   0.900486 0.270517 0.542909 0.003432
C38   C     C_R   0.100075 0.742482 0.543634 0.002613
O11   O     O_2   0.797026 0.278977 0.544214 -0.517001
O12   O     O_2   0.203513 0.732229 0.549589 -0.516697
C39   C     C_R   0.053470 0.280155 0.474437 -0.207502
C40   C     C_R   0.946485 0.735181 0.482896 -0.206651
H5    H     H_    0.744914 0.421785 0.308982 0.200591
H6    H     H_    0.256728 0.616360 0.319224 0.204210
H7    H     H_    0.969429 0.184871 0.551227 0.137756
H8    H     H_    0.031274 0.828238 0.555405 0.137854
H9    H     H_    0.036987 0.188843 0.455888 0.142492
H10   H     H_    0.962764 0.827234 0.466047 0.141883
C41   C     C_3   0.501328 0.039331 0.631591 -0.183594
C42   C     C_3   0.498451 0.960521 0.368399 -0.158846
C43   C     C_3   0.539672 0.957498 0.560287 -0.000148
C44   C     C_3   0.460111 0.042364 0.439701 0.013187
H11   H     H_    0.502953 0.074859 0.738398 0.167180
H12   H     H_    0.496810 0.924944 0.261611 0.171345
C45   C     C_3   0.499736 0.877110 0.498252 -0.039181
C46   C     C_3   0.500059 0.122783 0.501726 -0.052640
C47   C     C_3   0.460737 0.957021 0.568409 -0.179911
C48   C     C_3   0.539044 0.042799 0.431571 -0.198441
H13   H     H_    0.428804 0.917747 0.622542 0.173688
H14   H     H_    0.571010 0.081581 0.377307 0.204379
C49   C     C_3   0.514783 0.391129 0.049719 -0.097560
C50   C     C_3   0.485247 0.608881 0.950320 -0.122463
C51   C     C_3   0.542995 0.479093 0.951445 -0.074834
C52   C     C_3   0.457031 0.520860 0.048543 -0.082474
H15   H     H_    0.579090 0.462508 0.905861 0.171456
H16   H     H_    0.420951 0.537017 0.094080 0.199686
H17   H     H_    0.526869 0.299681 0.096440 0.167687
H18   H     H_    0.473186 0.700380 0.903672 0.153330
N3    N     N_3   0.499960 0.500030 0.863290 -0.108167
N4    N     N_3   0.500040 0.499970 0.136710 -0.105236
C53   C     C_3   0.472211 0.413426 0.953064 0.036964
C54   C     C_3   0.527824 0.586522 0.046974 0.060158
C55   C     C_1   0.440760 0.315290 0.895371 0.214158
N5    N     N_1   0.415974 0.237778 0.849787 -0.172734
C56   C     C_1   0.559455 0.684103 0.104941 0.239041
N6    N     N_1   0.584420 0.761047 0.150846 -0.166364
N7    N     N_R   0.255015 0.399896 0.734932 0.234634
O13   O     O_R   0.276324 0.312195 0.808150 -0.333795
O14   O     O_R   0.213949 0.444972 0.777059 -0.361625
N8    N     N_R   0.743952 0.584478 0.749495 0.235591
O15   O     O_R   0.721108 0.658773 0.833724 -0.330797
O16   O     O_R   0.786292 0.541855 0.784707 -0.361527
N9    N     N_R   0.651278 0.394153 0.270961 0.223380
O17   O     O_R   0.621255 0.300026 0.286462 -0.407768
O18   O     O_R   0.667322 0.420820 0.148846 -0.355910
N10   N     N_R   0.350994 0.645083 0.289520 0.211219
O19   O     O_R   0.332553 0.648964 0.166877 -0.369507
O20   O     O_R   0.385101 0.724952 0.320356 -0.400110
C57   C     C_1   0.878717 0.147753 0.570150 0.287799
N11   N     N_1   0.861441 0.049455 0.592378 -0.133285
C58   C     C_1   0.122048 0.864871 0.569904 0.287652
N12   N     N_1   0.139443 0.962943 0.591173 -0.128452
C59   C     C_1   0.583310 0.906399 0.625979 0.190728
N13   N     N_1   0.617671 0.865870 0.677721 -0.135362
C60   C     C_1   0.416461 0.093349 0.374035 0.219987
N14   N     N_1   0.382081 0.133788 0.322319 -0.130614

loop_
_geom_bond_atom_site_label_1
_geom_bond_atom_site_label_2
_geom_bond_distance
_ccdc_geom_bond_type
C56   N6    1.157099 T    
C13   C15   1.395035 A    
C43   C59   1.467967 S    
C59   N13   1.157077 T    
N1    C17   1.427458 S    
C8    O11   1.348860 S    
N10   O20   1.301620 A    
C19   C34   1.415963 A    
C30   C36   1.409026 A    
C20   C33   1.415993 A    
C10   H5    1.083730 S    
C52   C53   1.526920 S    
C46   C48   1.533109 S    
C54   C56   1.465987 S    
O1    C1    1.281157 A    
C32   C39   1.411128 A    
C48   H14   1.109937 S    
N1    C7    1.366276 A    
C10   C12   1.392076 A    
C50   N3    1.485377 S    
C12   N9    1.436008 S    
C1    C46   1.415512 S    
C43   C48   1.537086 S    
C14   C28   1.404771 A    
O4    Zn1   1.986249 S    
C49   N4    1.485301 S    
C4    C28   1.464077 S    
C5    N1    1.362620 A    
C19   C25   1.416966 A    
C9    H6    1.083531 S    
N7    O13   1.301605 A    
C31   C33   1.419245 A    
C44   C46   1.521859 S    
C32   C34   1.419035 A    
C57   N11   1.157311 T    
C43   C45   1.521478 S    
C53   C55   1.466084 S    
C41   H11   1.110544 S    
O6    C4    1.299300 A    
C29   C35   1.408880 A    
C40   H10   1.078618 S    
N9    O18   1.301424 A    
C45   C47   1.532977 S    
O2    C2    1.280920 A    
C5    C21   1.393885 A    
N10   O19   1.301423 A    
C51   H15   1.110336 S    
C29   C32   1.414698 A    
C35   C37   1.391849 A    
C44   C60   1.467719 S    
C36   C38   1.392155 A    
C24   H4    1.082558 S    
N9    O17   1.301262 A    
C50   C52   1.541490 S    
C11   C27   1.413335 A    
C55   N5    1.157110 T    
C49   C51   1.541383 S    
C29   C33   1.413458 A    
C42   C45   1.535127 S    
C14   H2    1.083397 S    
C37   C57   1.446696 S    
C42   H12   1.110567 S    
C41   C43   1.536545 S    
C9    C17   1.397721 A    
O5    C3    1.298484 A    
O7    Zn2   2.013546 S    
C10   C18   1.396838 A    
C47   H13   1.110486 S    
C13   C27   1.402843 A    
C25   C38   1.416397 A    
C7    C25   1.412193 A    
C30   C34   1.413662 A    
C6    N2    1.361941 A    
C26   C37   1.415971 A    
C8    C26   1.411731 A    
Zn1   N3    2.025601 S    
C31   C40   1.411351 A    
C41   C46   1.535458 S    
C23   C39   1.384235 A    
O7    C3    1.299060 A    
C51   N3    1.485815 S    
O3    Zn2   1.986251 S    
O8    C4    1.300579 A    
C24   C40   1.384467 A    
C51   C54   1.527118 S    
O4    C2    1.283267 A    
C30   C31   1.415439 A    
N4    C54   1.475966 S    
N8    O16   1.301114 A    
N3    C53   1.476001 S    
C20   C26   1.417004 A    
O1    Zn1   1.992007 S    
C23   H3    1.082978 S    
C38   C58   1.447027 S    
C49   H17   1.110422 S    
C12   C28   1.414240 A    
C2    C45   1.414773 S    
C15   N7    1.441204 S    
C60   N14   1.157045 T    
N2    C18   1.425859 S    
C5    O9    1.350481 S    
O6    Zn2   2.012616 S    
C21   C23   1.396395 A    
C6    O10   1.350370 S    
N2    C8    1.365657 A    
O3    C1    1.283379 A    
O8    Zn1   2.013549 S    
N7    O14   1.301211 A    
C11   N10   1.437742 S    
C42   C48   1.550305 S    
C16   N8    1.442058 S    
C52   H16   1.109090 S    
C22   C24   1.396104 A    
Zn2   N4    2.025602 S    
C7    O12   1.348801 S    
C15   C17   1.409955 A    
C58   N12   1.157434 T    
C6    C22   1.394308 A    
C16   C18   1.409387 A    
C35   H7    1.080260 S    
C36   H8    1.080037 S    
C52   N4    1.485231 S    
C14   C16   1.395590 A    
C19   C21   1.410844 A    
C3    C27   1.459959 S    
C20   C22   1.410881 A    
C9    C11   1.393295 A    
C50   C54   1.527458 S    
O2    Zn2   1.992005 S    
C49   C53   1.527261 S    
C13   H1    1.083324 S    
C50   H18   1.110387 S    
O5    Zn1   2.012611 S    
C41   C47   1.550510 S    
C42   C44   1.536530 S    
N8    O15   1.301671 A    
C44   C47   1.537283 S    
C39   H9    1.078816 S    
