data_mof_unit_36572.cif
_audit_creation_date              2012-12-10T18:31:54-0500
_audit_creation_method            fapswitch 2.2
_symmetry_space_group_name_H-M    P1
_symmetry_Int_Tables_number       1
_space_group_crystal_system       triclinic
_cell_length_a                    10.870325
_cell_length_b                    15.081753
_cell_length_c                    15.650178
_cell_angle_alpha                 81.440607
_cell_angle_beta                  92.437076
_cell_angle_gamma                 104.720211
_cell_volume                      2453.86468104

loop_
_atom_site_label
_atom_site_type_symbol
_atom_type_description
_atom_site_fract_x
_atom_site_fract_y
_atom_site_fract_z
_atom_type_partial_charge
C1    C     C_R   0.481649 0.441576 0.662331 0.889060
C2    C     C_3   0.120385 0.493928 0.508654 -0.627164
C3    C     C_3   0.090727 0.552839 0.421846 0.834077
C4    C     C_3   0.094327 0.544909 0.584256 0.909374
C5    C     C_R   0.473384 0.406914 0.756287 -0.211424
C6    C     C_R   0.535841 0.596299 0.245109 -0.397894
C7    C     C_R   0.460513 0.287087 0.879826 0.426782
C8    C     C_R   0.434781 0.312610 0.791171 0.411623
C9    C     C_R   0.509144 0.472809 0.812166 -0.164924
C10   C     C_R   0.503074 0.449313 0.901723 -0.008191
C11   C     C_R   0.484519 0.354621 0.936864 -0.202063
C12   C     C_R   0.742589 0.500548 0.501843 1.083576
C13   C     C_R   0.524662 0.518751 0.956394 -0.170267
C14   C     C_R   0.539070 0.492782 0.045723 -0.095046
C15   C     C_R   0.538776 0.400446 0.079988 0.482637
C16   C     C_R   0.497075 0.330003 0.027167 0.388989
C17   C     C_R   0.530272 0.613605 0.926098 0.467349
C18   C     C_R   0.576314 0.681367 0.979390 0.641286
C19   C     C_R   0.586309 0.654779 0.068321 -0.354324
C20   C     C_R   0.548036 0.560091 0.100883 -0.152519
C21   C     C_R   0.617363 0.719647 0.126441 0.651236
C22   C     C_R   0.597291 0.690192 0.215479 0.230479
C23   C     C_R   0.517370 0.558733 0.337849 0.937868
C24   C     C_R   0.495838 0.535681 0.184217 0.553651
C25   C     C_R   0.736542 0.855615 0.594353 0.555215
C26   C     C_R   0.677785 0.760978 0.601657 0.451325
C27   C     C_R   0.507033 0.791066 0.512452 0.738117
C28   C     C_R   0.556996 0.888578 0.506389 -0.266049
C29   C     C_R   0.676527 0.919505 0.547175 -0.344513
C30   C     C_R   0.494490 0.956721 0.463583 -0.161455
C31   C     C_R   0.542857 0.051159 0.476319 -0.169297
C32   C     C_R   0.668722 0.078258 0.505612 0.545648
C33   C     C_R   0.734038 0.014056 0.541255 0.636811
C34   C     C_R   0.257860 0.496723 0.505130 1.058773
C35   C     C_R   0.392123 0.937562 0.404433 0.605063
C36   C     C_R   0.333333 0.005916 0.368098 0.677030
C37   C     C_R   0.368697 0.094987 0.392160 -0.321928
C38   C     C_R   0.468887 0.117163 0.451558 -0.236794
C39   C     C_R   0.307159 0.162462 0.355324 0.444217
C40   C     C_R   0.335434 0.250195 0.384587 0.363087
C41   C     C_R   0.488885 0.204146 0.483833 0.609320
C42   C     C_3   0.890594 0.395323 0.511294 0.899571
C43   C     C_3   0.032979 0.389688 0.524407 0.631265
C44   C     C_3   0.952618 0.565632 0.424629 0.732449
C45   C     C_3   0.948792 0.538630 0.589890 0.817081
C46   C     C_3   0.880396 0.500260 0.505046 -0.657756
H1    H     H_    0.546031 0.543343 0.784389 0.250286
N1    N     N_R   0.573860 0.731700 0.552730 -0.230666
N2    N     N_R   0.426060 0.268290 0.447230 -0.224103
O1    O     O_R   0.462770 0.383110 0.605620 -0.586572
O2    O     O_R   0.510160 0.531900 0.639510 -0.587403
O3    O     O_R   0.661510 0.425600 0.483070 -0.548698
O4    O     O_R   0.708900 0.574390 0.516960 -0.549307
O5    O     O_R   0.489840 0.468100 0.360490 -0.548210
O6    O     O_R   0.537230 0.616890 0.394380 -0.601514
O7    O     O_R   0.291100 0.425610 0.483040 -0.572183
O8    O     O_R   0.338490 0.574400 0.516930 -0.478413
Zn1   Zn    Zn3+2 0.468350 0.400660 0.477370 1.071823
Zn2   Zn    Zn3+2 0.531650 0.599340 0.522630 1.128776
O9    O     O_3   0.817329 0.338331 0.452108 -0.504568
C47   C     C_3   0.839012 0.358994 0.362850 -0.200138
H2    H     H_    0.937582 0.391029 0.345397 0.214058
H3    H     H_    0.771369 0.397696 0.331592 0.222497
H4    H     H_    0.814720 0.292673 0.335926 0.166001
F1    F     F_    0.161503 0.637395 0.570217 -0.529708
F2    F     F_    0.963037 0.657373 0.436797 -0.557736
F3    F     F_    0.175564 0.640605 0.414989 -0.516273
O10   O     O_3   0.474262 0.237977 0.063508 -0.591383
C48   C     C_3   0.341525 0.201783 0.075042 -0.158414
H5    H     H_    0.296842 0.247472 0.106222 0.116351
H6    H     H_    0.324969 0.134195 0.117638 0.242852
H7    H     H_    0.292276 0.189384 0.012700 0.184430
O11   O     O_3   0.391170 0.460712 0.202642 -0.560824
C49   C     C_3   0.292082 0.468685 0.141900 -0.333091
H8    H     H_    0.295660 0.429179 0.088107 0.163923
H9    H     H_    0.292049 0.541701 0.115851 0.149398
H10   H     H_    0.199117 0.437829 0.172908 0.169939
O12   O     O_3   0.641688 0.752547 0.272853 -0.587063
C50   C     C_3   0.552618 0.805200 0.276600 -0.031020
H11   H     H_    0.585303 0.851706 0.326031 0.176090
H12   H     H_    0.457179 0.759837 0.295868 0.208464
H13   H     H_    0.545824 0.849735 0.214139 0.187217
F4    F     F_    0.591549 0.771862 0.945871 -0.579444
O13   O     O_3   0.466732 0.197174 0.909060 -0.599372
C51   C     C_3   0.592915 0.191453 0.900027 -0.144297
H14   H     H_    0.624207 0.209923 0.831536 0.145495
H15   H     H_    0.597561 0.118918 0.921618 0.206590
H16   H     H_    0.659612 0.236201 0.941258 0.176256
O14   O     O_3   0.383797 0.248235 0.736022 -0.649793
C52   C     C_3   0.288571 0.172378 0.775484 -0.298851
H17   H     H_    0.222259 0.144362 0.724561 0.179996
H18   H     H_    0.231168 0.191835 0.823606 0.170160
H19   H     H_    0.331025 0.115282 0.804650 0.232987
F5    F     F_    0.828019 0.350594 0.587582 -0.514475
O15   O     O_3   0.602581 0.386960 0.158359 -0.621229
C53   C     C_3   0.537056 0.310548 0.216274 -0.132563
H20   H     H_    0.564395 0.324411 0.282896 0.161884
H21   H     H_    0.566700 0.247246 0.207771 0.190936
H22   H     H_    0.432428 0.299581 0.211885 0.196934
F6    F     F_    0.478121 0.640904 0.849604 -0.651759
F7    F     F_    0.669400 0.810533 0.097700 -0.582148
F8    F     F_    0.853365 0.045374 0.572167 -0.613434
O16   O     O_3   0.567302 0.225668 0.553655 -0.471974
C54   C     C_3   0.518751 0.164311 0.628619 -0.043338
H23   H     H_    0.413106 0.147529 0.631879 0.129142
H24   H     H_    0.560390 0.197135 0.685386 0.218469
H25   H     H_    0.548750 0.098935 0.634307 0.112812
O17   O     O_3   0.281397 0.322626 0.350502 -0.514079
C55   C     C_3   0.168303 0.296362 0.302751 -0.041325
H26   H     H_    0.117548 0.351716 0.298275 0.186744
H27   H     H_    0.102129 0.232359 0.334028 0.157191
H28   H     H_    0.190302 0.288963 0.236013 0.166975
F9    F     F_    0.238519 0.982721 0.309821 -0.542328
F10   F     F_    0.851486 0.884248 0.632640 -0.594898
O18   O     O_3   0.723148 0.696228 0.657142 -0.561444
C56   C     C_3   0.727023 0.717526 0.742616 -0.225131
H29   H     H_    0.726696 0.654293 0.788742 0.152595
H30   H     H_    0.644613 0.743711 0.757646 0.228043
H31   H     H_    0.816724 0.768523 0.755115 0.206557
F11   F     F_    0.388384 0.753023 0.486172 -0.492299
O19   O     O_3   0.043293 0.349690 0.613069 -0.555377
C57   C     C_3   0.157699 0.325223 0.638179 -0.037986
H32   H     H_    0.195736 0.291361 0.591059 0.158803
H33   H     H_    0.137184 0.275358 0.698132 0.173489
H34   H     H_    0.230472 0.385456 0.655317 0.167216
F12   F     F_    0.732406 0.167750 0.495719 -0.610009
F13   F     F_    0.356923 0.857695 0.370329 -0.585976
F14   F     F_    0.227660 0.143646 0.287403 -0.649117
O20   O     O_3   0.064023 0.334672 0.465755 -0.639281
C58   C     C_3   0.008982 0.238095 0.487432 -0.034754
H35   H     H_    0.947518 0.212503 0.433569 0.189770
H36   H     H_    0.951387 0.218213 0.547319 0.278821
H37   H     H_    0.085400 0.200770 0.494742 0.132801
O21   O     O_3   0.887764 0.545955 0.346179 -0.712381
C59   C     C_3   0.848476 0.621465 0.299597 -0.119780
H38   H     H_    0.799925 0.599434 0.239723 0.148026
H39   H     H_    0.930525 0.681184 0.280145 0.218762
H40   H     H_    0.780859 0.642810 0.338330 0.224944
O22   O     O_3   0.109588 0.508729 0.351075 -0.658091
C60   C     C_3   0.144761 0.571354 0.274122 -0.101204
H41   H     H_    0.249586 0.588597 0.266654 0.174872
H42   H     H_    0.114023 0.636577 0.270517 0.200795
H43   H     H_    0.098759 0.537587 0.218755 0.130980
O23   O     O_3   0.930786 0.627542 0.597026 -0.515628
C61   C     C_3   0.968934 0.653868 0.679454 0.109692
H44   H     H_    0.064253 0.644999 0.700500 0.178112
H45   H     H_    0.899102 0.613991 0.729493 0.152031
H46   H     H_    0.974571 0.728654 0.676427 0.187807
F15   F     F_    0.898073 0.478066 0.663239 -0.605889
F16   F     F_    0.136979 0.508402 0.663034 -0.633201

loop_
_geom_bond_atom_site_label_1
_geom_bond_atom_site_label_2
_ccdc_geom_bond_type
C27   N1    A    
C59   H40   S    
C34   O7    A    
O6    Zn2   S    
C48   H7    S    
O11   C49   S    
C44   F2    S    
O15   C53   S    
C60   H43   S    
C54   H24   S    
C61   H44   S    
O4    Zn2   S    
C59   H38   S    
C27   F11   S    
C56   H29   S    
C7    C11   A    
C49   H9    S    
C30   C35   A    
C23   O5    A    
C1    C5    S    
C36   C37   A    
C19   C21   A    
C60   H42   S    
C55   H27   S    
C15   O15   S    
C4    F1    S    
C24   O11   S    
O8    Zn2   S    
C40   N2    A    
C6    C22   A    
C53   H22   S    
C29   C33   A    
O17   C55   S    
C47   H3    S    
C18   C19   A    
C42   C46   S    
C32   F12   S    
C48   H6    S    
C26   O18   S    
C61   H45   S    
C20   C24   A    
C56   H30   S    
O10   C48   S    
C49   H10   S    
C53   H21   S    
C34   O8    A    
C58   H36   S    
C16   O10   S    
C1    O1    A    
C43   O19   S    
C12   O4    A    
C26   N1    A    
C40   O17   S    
C21   F7    S    
C2    C34   S    
C7    O13   S    
C21   C22   A    
C25   C29   A    
C48   H5    S    
C36   F9    S    
C9    C10   A    
C41   N2    A    
C54   H23   S    
C12   O3    A    
C44   C46   S    
C18   F4    S    
C4    C45   S    
C51   H15   S    
C44   O21   S    
C3    C44   S    
C49   H8    S    
C33   F8    S    
O1    Zn1   S    
C14   C20   A    
C7    C8    A    
O13   C51   S    
C22   O12   S    
C38   C41   A    
C12   C46   S    
C55   H28   S    
C42   O9    S    
C39   C40   A    
C50   H12   S    
O12   C50   S    
C25   F10   S    
C25   C26   A    
C45   C46   S    
C15   C16   A    
N2    Zn1   S    
C41   O16   S    
O9    C47   S    
C35   C36   A    
C47   H4    S    
C2    C4    S    
C5    C9    A    
C37   C38   A    
C45   O23   S    
C11   C16   A    
C52   H18   S    
C31   C32   A    
C43   O20   S    
C2    C43   S    
C6    C24   A    
C53   H20   S    
C17   C18   A    
C60   H41   S    
C35   F13   S    
C1    O2    A    
O19   C57   S    
O3    Zn1   S    
C9    H1    S    
C58   H37   S    
C3    O22   S    
C42   C43   S    
C57   H33   S    
O14   C52   S    
O16   C54   S    
C61   H46   S    
N1    Zn2   S    
O20   C58   S    
O5    Zn1   S    
C51   H16   S    
C59   H39   S    
C28   C29   A    
C39   F14   S    
C42   F5    S    
C3    F3    S    
O23   C61   S    
C10   C13   A    
C51   H14   S    
C50   H13   S    
O22   C60   S    
C31   C38   A    
C23   O6    A    
O21   C59   S    
C4    F16   S    
C56   H31   S    
C13   C17   A    
C32   C33   A    
C19   C20   A    
C28   C30   A    
C2    C3    S    
C52   H19   S    
C37   C39   A    
C55   H26   S    
C52   H17   S    
C30   C31   A    
C57   H34   S    
C6    C23   S    
O7    Zn1   S    
C58   H35   S    
C45   F15   S    
C47   H2    S    
C17   F6    S    
C10   C11   A    
C50   H11   S    
O2    Zn2   S    
C27   C28   A    
C5    C8    A    
C14   C15   A    
C8    O14   S    
C57   H32   S    
C13   C14   A    
C54   H25   S    
O18   C56   S    
