data_mof_unit_33605.cif
_audit_creation_date              2012-12-11T15:43:47-0500
_audit_creation_method            fapswitch 2.2
_symmetry_space_group_name_H-M    P1
_symmetry_Int_Tables_number       1
_space_group_crystal_system       triclinic
_cell_length_a                    14.587831
_cell_length_b                    16.25351
_cell_length_c                    6.90728
_cell_angle_alpha                 90.000135
_cell_angle_beta                  99.119747
_cell_angle_gamma                 89.999818
_cell_volume                      1617.03768705

loop_
_atom_site_label
_atom_site_type_symbol
_atom_type_description
_atom_site_fract_x
_atom_site_fract_y
_atom_site_fract_z
_atom_type_partial_charge
O1    O     O_R   0.831700 0.662810 0.581550 -0.557414
O2    O     O_R   0.168300 0.337190 0.418450 -0.557414
O3    O     O_R   0.168300 0.162810 0.418450 -0.557416
O4    O     O_R   0.831700 0.837190 0.581550 -0.557416
O5    O     O_R   0.842890 0.834390 0.255500 -0.539065
O6    O     O_R   0.157110 0.165610 0.744500 -0.539064
O7    O     O_R   0.157110 0.334390 0.744500 -0.539072
O8    O     O_R   0.842890 0.665610 0.255500 -0.539072
O9    O     O_R   0.661690 0.835580 0.024130 -0.505179
O10   O     O_R   0.338310 0.164420 0.975870 -0.505179
O11   O     O_R   0.338310 0.335580 0.975870 -0.505183
O12   O     O_R   0.661690 0.664420 0.024130 -0.505182
C1    C     C_R   0.863036 0.866468 0.430599 0.670211
C2    C     C_R   0.136965 0.133531 0.569401 0.670213
C3    C     C_R   0.136964 0.366468 0.569402 0.670187
C4    C     C_R   0.863036 0.633532 0.430598 0.670186
C5    C     C_R   0.069321 0.063094 0.535294 -0.160280
C6    C     C_R   0.930679 0.936905 0.464706 -0.160281
C7    C     C_R   0.930680 0.563095 0.464704 -0.160264
C8    C     C_R   0.069320 0.436905 0.535296 -0.160264
H1    H     H_    0.006509 0.895591 0.240825 0.159457
H2    H     H_    0.993491 0.104409 0.759174 0.159460
H3    H     H_    0.993453 0.395558 0.759082 0.159451
H4    H     H_    0.006548 0.604443 0.240919 0.159452
C9    C     C_R   0.002637 0.941955 0.352033 -0.072664
C10   C     C_R   0.997363 0.058044 0.647967 -0.072652
C11   C     C_R   0.997341 0.441937 0.647916 -0.072738
C12   C     C_R   0.002660 0.558064 0.352085 -0.072737
O13   O     O_3   0.687240 0.750000 0.366320 -0.312814
O14   O     O_3   0.312760 0.250000 0.633680 -0.312814
V1    V     V_3+5 0.757720 0.750000 0.115230 1.583684
V2    V     V_3+5 0.242280 0.250000 0.884770 1.583687
O15   O     O_R   0.650500 0.664000 0.690740 -0.536577
O16   O     O_R   0.349500 0.336000 0.309260 -0.536577
O17   O     O_R   0.349500 0.164000 0.309260 -0.536576
O18   O     O_R   0.650500 0.836000 0.690740 -0.536576
C13   C     C_R   0.627024 0.637409 0.853596 0.795024
C14   C     C_R   0.372976 0.362591 0.146404 0.795023
C15   C     C_R   0.372976 0.137409 0.146404 0.795031
C16   C     C_R   0.627024 0.862591 0.853596 0.795030
C17   C     C_R   0.072381 0.002963 0.386352 0.001154
C18   C     C_R   0.927618 0.997037 0.613647 0.001152
C19   C     C_R   0.927596 0.502945 0.613593 0.001148
C20   C     C_R   0.072404 0.497055 0.386407 0.001148
V3    V     V_3+5 0.735670 0.750000 0.607790 1.579969
V4    V     V_3+5 0.264330 0.250000 0.392210 1.579969
O19   O     O_3   0.806150 0.750000 0.906560 -0.396219
O20   O     O_3   0.193850 0.250000 0.093440 -0.396218
C21   C     C_2   0.563966 0.933793 0.847062 -0.296799
C22   C     C_2   0.436034 0.066207 0.152938 -0.296801
C23   C     C_2   0.436034 0.433793 0.152938 -0.296783
C24   C     C_2   0.563966 0.566206 0.847062 -0.296783
C25   C     C_2   0.523726 0.959144 0.001721 0.317763
C26   C     C_2   0.476274 0.040856 0.998279 0.317764
C27   C     C_2   0.476273 0.459144 0.998279 0.317766
C28   C     C_2   0.523727 0.540856 0.001721 0.317766
H5    H     H_    0.443643 0.030518 0.287065 0.173423
H6    H     H_    0.556357 0.969481 0.712935 0.173424
H7    H     H_    0.556356 0.530519 0.712934 0.173425
H8    H     H_    0.443644 0.469481 0.287066 0.173425
C29   C     C_2   0.150545 0.998979 0.272359 0.403418
H9    H     H_    0.216805 0.027274 0.327497 0.050445
O21   O     O_2   0.142313 0.962596 0.115824 -0.522718
C30   C     C_2   0.849452 0.001024 0.727632 0.403419
H10   H     H_    0.783193 0.972725 0.672493 0.050446
O22   O     O_2   0.857678 0.037415 0.884156 -0.522713
C31   C     C_2   0.849407 0.498942 0.727513 0.403401
H11   H     H_    0.783164 0.527269 0.672383 0.050462
O23   O     O_2   0.857595 0.462503 0.883972 -0.522700
C32   C     C_2   0.150593 0.501058 0.272484 0.403398
H12   H     H_    0.216836 0.472728 0.327609 0.050463
O24   O     O_2   0.142404 0.537498 0.116028 -0.522700
Cl1   Cl    Cl    0.479536 0.106565 0.793164 -0.607489
Cl2   Cl    Cl    0.520464 0.893435 0.206836 -0.607492
Cl3   Cl    Cl    0.520466 0.606564 0.206840 -0.607482
Cl4   Cl    Cl    0.479534 0.393436 0.793160 -0.607480

loop_
_geom_bond_atom_site_label_1
_geom_bond_atom_site_label_2
_ccdc_geom_bond_type
O6    V2    S    
C27   C28   S    
O15   V3    S    
C25   Cl2   S    
C17   C29   S    
C25   C26   S    
O2    V4    S    
C22   C26   D    
C1    C6    S    
C5    C10   A    
O8    V1    S    
C6    C18   A    
C16   C21   S    
O12   C13   A    
O4    C1    A    
C29   O21   D    
C20   C32   S    
C32   H12   S    
O16   V4    S    
H3    C11   S    
O5    C1    A    
O7    C3    A    
O8    C4    A    
C28   Cl3   S    
V1    O19   S    
V2    O20   S    
C2    C5    S    
C6    C9    A    
C8    C20   A    
C7    C19   A    
O4    V3    S    
V3    O19   S    
C3    C8    S    
V4    O20   S    
C31   H11   S    
O18   C16   A    
C9    C17   A    
C13   C24   S    
C14   C23   S    
C12   C20   A    
O9    C16   A    
O15   C13   A    
C21   H6    S    
O13   V3    S    
O10   C15   A    
C31   O23   D    
C30   O22   D    
O11   C14   A    
O17   C15   A    
C7    C12   A    
C24   H7    S    
C11   C19   A    
O6    C2    A    
C26   Cl1   S    
O18   V3    S    
O1    C4    A    
O2    C3    A    
O3    C2    A    
C27   Cl4   S    
O11   V2    S    
O12   V1    S    
C18   C30   S    
C10   C18   A    
H1    C9    S    
O7    V2    S    
O16   C14   A    
C22   H5    S    
O14   V4    S    
H4    C12   S    
C8    C11   A    
O3    V4    S    
C30   H10   S    
O13   V1    S    
O14   V2    S    
O1    V3    S    
C4    C7    S    
C21   C25   D    
C23   C27   D    
C29   H9    S    
C5    C17   A    
O9    V1    S    
O10   V2    S    
C15   C22   S    
C19   C31   S    
H2    C10   S    
C32   O24   D    
C23   H8    S    
O17   V4    S    
C24   C28   D    
O5    V1    S    
