data_mof_unit_24751.cif
_audit_creation_date              2012-12-11T15:41:22-0500
_audit_creation_method            fapswitch 2.2
_symmetry_space_group_name_H-M    P1
_symmetry_Int_Tables_number       1
_space_group_crystal_system       triclinic
_cell_length_a                    15.042149
_cell_length_b                    14.875544
_cell_length_c                    15.095954
_cell_angle_alpha                 109.132587
_cell_angle_beta                  110.692145
_cell_angle_gamma                 109.218561
_cell_volume                      2579.43084717

loop_
_atom_site_label
_atom_site_type_symbol
_atom_type_description
_atom_site_fract_x
_atom_site_fract_y
_atom_site_fract_z
_atom_type_partial_charge
C1    C     C_R   0.202559 0.009646 0.918141 -0.121439
C2    C     C_R   0.855883 0.900155 0.403664 -0.078162
C3    C     C_R   0.200055 0.309545 0.944023 -0.173233
C4    C     C_R   0.749141 0.809153 0.337338 -0.116381
C5    C     C_R   0.297357 0.349353 0.040880 0.090212
C6    C     C_R   0.719165 0.723318 0.237982 0.083342
C7    C     C_R   0.291350 0.313529 0.114891 -0.130281
C8    C     C_R   0.797387 0.729191 0.206342 -0.192390
C9    C     C_R   0.189274 0.241851 0.093953 -0.086800
C10   C     C_R   0.903453 0.821100 0.272170 -0.101822
C11   C     C_R   0.092904 0.203633 0.998198 -0.100386
C12   C     C_R   0.741145 0.928859 0.022519 -0.138594
C13   C     C_R   0.932696 0.906471 0.370799 -0.067767
C14   C     C_R   0.409340 0.532987 0.073579 -0.223029
C15   C     C_R   0.601954 0.527668 0.164026 -0.213957
C16   C     C_R   0.806863 0.207378 0.297220 -0.082815
C17   C     C_R   0.253930 0.776765 0.686673 -0.089663
C18   C     C_R   0.509623 0.623057 0.110866 0.058932
C19   C     C_R   0.500609 0.429902 0.101397 0.053751
C20   C     C_R   0.608170 0.624965 0.170221 0.034570
C21   C     C_R   0.403656 0.436542 0.070408 0.036778
C22   C     C_R   0.039671 0.475854 0.378286 -0.156798
C23   C     C_R   0.870174 0.301122 0.300631 0.032720
C24   C     C_R   0.129734 0.469765 0.571181 -0.148209
C25   C     C_R   0.131342 0.569535 0.472796 -0.151287
C26   C     C_R   0.038212 0.376085 0.476776 -0.149321
C27   C     C_R   0.168716 0.569870 0.572342 0.136669
C28   C     C_R   0.986191 0.382100 0.382988 0.130035
C29   C     C_R   0.567220 0.156630 0.611963 -0.155194
C30   C     C_R   0.411675 0.961663 0.410911 -0.137261
C31   C     C_R   0.567320 0.149190 0.518171 -0.113432
C32   C     C_R   0.410596 0.969557 0.502865 -0.112014
C33   C     C_R   0.491666 0.050099 0.418879 0.171783
C34   C     C_R   0.227731 0.673577 0.675735 0.029011
C35   C     C_R   0.489604 0.065688 0.603432 0.166591
C36   C     C_R   0.041083 0.970037 0.047415 0.182525
C37   C     C_R   0.862751 0.906822 0.847262 0.207053
C38   C     C_R   0.945177 0.959970 0.040490 -0.261065
C39   C     C_R   0.959446 0.915114 0.853287 -0.252551
C40   C     C_R   0.407212 0.966291 0.220059 -0.148370
C41   C     C_R   0.589589 0.091727 0.789593 -0.139820
C42   C     C_R   0.857103 0.931068 0.942330 0.011178
C43   C     C_R   0.048201 0.948084 0.953232 0.027132
C44   C     C_R   0.591655 0.314423 0.067649 -0.118849
C45   C     C_R   0.498393 0.033040 0.323412 -0.008293
C46   C     C_R   0.412335 0.701879 0.008307 -0.132202
C47   C     C_R   0.591554 0.051137 0.316116 0.189667
C48   C     C_R   0.406482 0.005501 0.702158 0.151121
C49   C     C_R   0.407993 0.222562 0.972398 -0.084778
C50   C     C_R   0.594266 0.794323 0.097430 -0.132049
C51   C     C_R   0.804600 0.300212 0.208979 -0.138833
C52   C     C_R   0.252327 0.685061 0.778091 -0.118621
C53   C     C_R   0.203253 0.915568 0.006919 -0.091463
C54   C     C_R   0.748604 0.025695 0.936021 -0.110090
C55   C     C_R   0.148376 0.959719 0.960290 0.093809
C56   C     C_R   0.496184 0.061147 0.697962 -0.002977
C57   C     C_R   0.771031 0.946750 0.950727 0.120498
C58   C     C_R   0.499478 0.325560 0.052777 0.043016
C59   C     C_R   0.506032 0.702383 0.072863 0.068924
C60   C     C_R   0.098380 0.236175 0.922518 -0.105043
H1    H     H_    0.172051 0.038020 0.863023 0.121878
H2    H     H_    0.963135 0.825901 0.247015 0.144339
H3    H     H_    0.333924 0.535288 0.043018 0.123043
H4    H     H_    0.677898 0.528057 0.202858 0.130047
H5    H     H_    0.005464 0.481445 0.305484 0.111219
H6    H     H_    0.161346 0.465347 0.645059 0.114250
H7    H     H_    0.164394 0.643668 0.468990 0.117654
H8    H     H_    0.002853 0.303371 0.482062 0.131589
H9    H     H_    0.628564 0.230786 0.690499 0.120923
H10   H     H_    0.354050 0.883751 0.335016 0.118006
H11   H     H_    0.628199 0.218063 0.523364 0.143278
H12   H     H_    0.753682 0.877070 0.055921 0.111846
H13   H     H_    0.352440 0.897469 0.496222 0.129772
H14   H     H_    0.839250 0.170621 0.340684 0.129984
H15   H     H_    0.246757 0.798159 0.624041 0.123377
H16   H     H_    0.943111 0.983293 0.115369 0.164896
H17   H     H_    0.965977 0.897273 0.781002 0.165288
H18   H     H_    0.322205 0.930022 0.197584 0.141854
H19   H     H_    0.673820 0.145626 0.816242 0.109487
H20   H     H_    0.677067 0.377332 0.122151 0.097627
H21   H     H_    0.328821 0.650165 0.984762 0.087519
H22   H     H_    0.323020 0.200121 0.935130 0.119498
H23   H     H_    0.023674 0.206155 0.848178 0.135551
H24   H     H_    0.679577 0.831824 0.156485 0.126587
H25   H     H_    0.831315 0.351632 0.176610 0.089291
H26   H     H_    0.242521 0.622152 0.800484 0.097118
H27   H     H_    0.173429 0.856373 0.030837 0.111884
H28   H     H_    0.768638 0.064119 0.890944 0.120102
H29   H     H_    0.013941 0.149374 0.982965 0.124239
H30   H     H_    0.015034 0.977253 0.422028 0.151824
H31   H     H_    0.879241 0.965747 0.480744 0.157863
H32   H     H_    0.202973 0.336258 0.885927 0.124085
H33   H     H_    0.690273 0.805095 0.363591 0.151734
H34   H     H_    0.365159 0.344289 0.190540 0.131850
H35   H     H_    0.775773 0.663116 0.130421 0.126994
H36   H     H_    0.184749 0.217557 0.152965 0.156317
I1    I     I_    0.172667 0.033948 0.208310 -0.508365
I2    I     I_    0.730861 0.859294 0.695056 -0.437200
I3    I     I_    0.742254 0.090412 0.443595 -0.532514
I4    I     I_    0.252029 0.995007 0.624269 -0.495333
N1    N     N_R   0.293810 0.002730 0.945950 -0.042247
N2    N     N_R   0.443210 0.997250 0.791090 -0.057450
N3    N     N_R   0.443180 0.152110 0.945950 -0.037804
N4    N     N_R   0.556820 0.847890 0.054050 -0.040568
N5    N     N_R   0.706170 0.208950 0.152090 -0.042705
N6    N     N_R   0.293830 0.791050 0.847910 -0.045912
N7    N     N_R   0.293800 0.945910 0.002760 -0.045151
N8    N     N_R   0.706200 0.054090 0.997240 -0.048447
N9    N     N_R   0.706190 0.997270 0.054050 -0.046628
N10   N     N_R   0.706160 0.152130 0.208910 -0.041743
N11   N     N_R   0.293840 0.847870 0.791090 -0.036529
N12   N     N_R   0.443140 0.945920 0.152090 -0.054899
N13   N     N_R   0.556860 0.054080 0.847910 -0.048619
N14   N     N_R   0.556830 0.208940 0.002760 -0.045158
N15   N     N_R   0.443170 0.791060 0.997240 -0.040985
N16   N     N_R   0.556790 0.002750 0.208910 -0.058412
Ni1   Ni    Ni4+2 0.369690 0.999990 0.869700 0.254059
Ni2   Ni    Ni4+2 0.630310 0.000010 0.130300 0.230989
Ni3   Ni    Ni4+2 0.369670 0.869670 0.000000 0.213106
Ni4   Ni    Ni4+2 0.630330 0.130330 0.000000 0.211617

loop_
_geom_bond_atom_site_label_1
_geom_bond_atom_site_label_2
_ccdc_geom_bond_type
N1    N7    A    
C54   H28   S    
N5    N10   A    
C50   N4    A    
N6    Ni3   S    
C33   C45   S    
C14   C18   A    
C25   H7    S    
C24   C27   A    
N10   Ni2   S    
C50   H24   S    
C40   N12   A    
C38   H16   S    
C15   C19   A    
C46   N15   A    
C16   H14   S    
C50   C59   A    
C39   H17   S    
C14   C21   A    
C19   C21   A    
C24   C26   A    
C38   C42   A    
C41   C56   A    
N8    Ni4   S    
C46   C59   A    
C60   H23   S    
N4    N15   A    
C47   I3    S    
N8    N9    A    
C48   C56   A    
C45   C47   A    
C37   C42   A    
C2    C13   A    
C53   N7    A    
C12   N9    A    
C44   C58   A    
C22   C25   A    
C15   H4    S    
C31   C33   A    
N5    Ni4   S    
C36   I1    S    
C29   H9    S    
C24   H6    S    
C3    C60   A    
C31   H11   S    
C12   H12   S    
C44   N14   A    
C19   C58   S    
C22   C28   A    
C51   H25   S    
C10   H2    S    
C8    H35   S    
C17   N11   A    
C42   C57   S    
N7    Ni3   S    
C37   I2    S    
C30   H10   S    
N9    Ni2   S    
N4    Ni2   S    
N6    N11   A    
C53   C55   A    
C27   C34   S    
C47   N16   A    
C48   I4    S    
C16   N10   A    
C32   C35   A    
C44   H20   S    
N3    N14   A    
C4    C6    A    
C32   H13   S    
C5    C7    A    
C39   C43   A    
C49   C58   A    
C3    H32   S    
C49   H22   S    
C2    C4    A    
C22   H5    S    
C49   N3    A    
C46   H21   S    
C11   H29   S    
C23   C51   A    
C15   C20   A    
C48   N2    A    
C36   C43   A    
C53   H27   S    
C23   C28   S    
C9    C11   A    
C9    H36   S    
N2    Ni1   S    
C12   C57   A    
C43   C55   S    
C16   C23   A    
N15   Ni3   S    
C40   H18   S    
C13   H30   S    
C17   C34   A    
C11   C60   A    
C1    N1    A    
N12   N16   A    
C7    C9    A    
C7    H34   S    
C30   C33   A    
C35   C56   S    
C34   C52   A    
C8    C10   A    
C41   N13   A    
C3    C5    A    
C10   C13   A    
C1    H1    S    
C41   H19   S    
N12   Ni3   S    
C6    C8    A    
C25   C27   A    
C6    C20   S    
C29   C35   A    
C26   C28   A    
C54   N8    A    
N11   Ni1   S    
C26   H8    S    
C52   H26   S    
C1    C55   A    
N1    Ni1   S    
C29   C31   A    
N2    N13   A    
C30   C32   A    
N13   Ni4   S    
C14   H3    S    
C36   C38   A    
N16   Ni2   S    
C18   C20   A    
C2    H31   S    
C51   N5    A    
C52   N6    A    
C4    H33   S    
C18   C59   S    
C5    C21   S    
C40   C45   A    
C37   C39   A    
C17   H15   S    
N3    Ni1   S    
N14   Ni4   S    
C54   C57   A    
