data_mof_unit_53412.cif
_audit_creation_date              2012-12-11T14:19:33-0500
_audit_creation_method            fapswitch 2.2
_symmetry_space_group_name_H-M    P1
_symmetry_Int_Tables_number       1
_space_group_crystal_system       triclinic
_cell_length_a                    19.437258
_cell_length_b                    7.244213
_cell_length_c                    17.729175
_cell_angle_alpha                 89.927924
_cell_angle_beta                  107.537218
_cell_angle_gamma                 90.09022
_cell_volume                      2380.37020223

loop_
_atom_site_label
_atom_site_type_symbol
_atom_type_description
_atom_site_fract_x
_atom_site_fract_y
_atom_site_fract_z
_atom_type_partial_charge
O1    O     O_R   0.414820 0.494320 0.416790 -0.546298
O2    O     O_R   0.585180 0.994320 0.583210 -0.546701
O3    O     O_R   0.560270 0.819500 0.430140 -0.542463
O4    O     O_R   0.439730 0.319500 0.569860 -0.543041
C1    C     C_R   0.581417 0.655680 0.414988 0.709381
C2    C     C_R   0.418867 0.155241 0.585343 0.709299
O5    O     O_R   0.413840 0.823740 0.407440 -0.518365
O6    O     O_R   0.586160 0.323740 0.592560 -0.518495
O7    O     O_R   0.437710 0.998590 0.560350 -0.541899
O8    O     O_R   0.562290 0.498590 0.439650 -0.541238
C3    C     C_R   0.386933 0.655442 0.386158 0.710423
C4    C     C_R   0.613069 0.155499 0.613828 0.710811
O9    O     O_3   0.508000 0.662290 0.550200 -0.376831
O10   O     O_3   0.492000 0.162290 0.449800 -0.376721
V1    V     V_3+5 0.498520 0.935380 0.490690 1.424105
V2    V     V_3+5 0.501480 0.435380 0.509310 1.423594
C5    C     C_2   0.783247 0.266535 0.791282 -0.152773
C6    C     C_2   0.216690 0.766715 0.208865 -0.150560
C7    C     C_2   0.816653 0.110114 0.823873 -0.291172
C8    C     C_2   0.183365 0.610306 0.176077 -0.289664
H1    H     H_    0.807941 0.398636 0.812671 0.136727
H2    H     H_    0.191915 0.898773 0.187674 0.137600
H3    H     H_    0.790150 0.977883 0.807618 0.162945
H4    H     H_    0.209939 0.478224 0.192143 0.162436
C9    C     C_2   0.709425 0.271666 0.732607 0.208515
C10   C     C_2   0.290521 0.772003 0.267518 0.208251
C11   C     C_2   0.685529 0.144088 0.674068 0.048883
C12   C     C_2   0.314487 0.643862 0.325881 0.046908
C13   C     C_R   0.324911 0.992070 0.631683 -0.198660
C14   C     C_R   0.678741 0.796779 0.367615 -0.199564
C15   C     C_R   0.369715 0.146644 0.635095 -0.076394
C16   C     C_R   0.631289 0.648785 0.366073 -0.078632
C17   C     C_R   0.366318 0.294707 0.685177 -0.220175
C18   C     C_R   0.632238 0.494688 0.318190 -0.221336
C19   C     C_R   0.319235 0.288857 0.731574 0.107369
C20   C     C_R   0.678944 0.489347 0.271210 0.104911
C21   C     C_R   0.273725 0.134384 0.726951 0.054235
C22   C     C_R   0.726710 0.638015 0.273525 0.051262
C23   C     C_R   0.276447 0.986047 0.676538 0.025293
C24   C     C_R   0.727043 0.791196 0.322585 0.063046
C25   C     C_R   0.316783 0.435219 0.782402 -0.173624
C26   C     C_R   0.678733 0.337851 0.221924 -0.190766
C27   C     C_R   0.269736 0.428898 0.828395 -0.180760
C28   C     C_R   0.725192 0.333570 0.175149 -0.190399
C29   C     C_R   0.223471 0.277407 0.823517 0.111176
C30   C     C_R   0.773494 0.479472 0.177656 0.094362
C31   C     C_R   0.225287 0.128908 0.772507 0.032372
C32   C     C_R   0.774427 0.632814 0.227086 -0.003816
C33   C     C_R   0.178530 0.976015 0.766666 0.030891
C34   C     C_R   0.823465 0.779619 0.230733 0.092742
C35   C     C_R   0.180520 0.829751 0.714221 0.187534
C36   C     C_R   0.825224 0.929193 0.282323 0.184332
C37   C     C_R   0.229914 0.835219 0.670762 -0.160938
C38   C     C_R   0.776409 0.935082 0.326815 -0.241803
C39   C     C_R   0.175432 0.272579 0.868758 -0.224096
C40   C     C_R   0.821361 0.473250 0.132212 -0.197948
C41   C     C_R   0.129449 0.120520 0.864552 -0.068176
C42   C     C_R   0.869586 0.619473 0.134273 -0.101778
C43   C     C_R   0.131147 0.973731 0.813215 -0.218151
C44   C     C_R   0.870144 0.772093 0.183427 -0.185347
H5    H     H_    0.326575 0.877966 0.592751 0.123784
H6    H     H_    0.679079 0.915018 0.405178 0.121020
H7    H     H_    0.400817 0.414144 0.688635 0.130450
H8    H     H_    0.595777 0.380262 0.316498 0.128795
H9    H     H_    0.351266 0.554866 0.786575 0.126160
H10   H     H_    0.642623 0.222406 0.219564 0.132498
H11   H     H_    0.268873 0.543905 0.867135 0.122216
H12   H     H_    0.724104 0.214593 0.137813 0.133140
H13   H     H_    0.174684 0.386279 0.908215 0.122252
H14   H     H_    0.820429 0.355215 0.094363 0.128097
H15   H     H_    0.094924 0.858335 0.809666 0.132693
H16   H     H_    0.907779 0.883737 0.185342 0.170697
H17   H     H_    0.231179 0.721583 0.631450 0.148502
H18   H     H_    0.777867 0.051712 0.365537 0.135657
O11   O     O_R   0.937810 0.773680 0.060480 -0.539037
O12   O     O_R   0.062190 0.273680 0.939520 -0.538485
O13   O     O_R   0.086190 0.439740 0.092580 -0.541338
O14   O     O_R   0.913810 0.939740 0.907420 -0.542262
C45   C     C_R   0.113108 0.607855 0.113406 0.729424
C46   C     C_R   0.886894 0.107793 0.886587 0.728157
O15   O     O_R   0.939760 0.444210 0.069890 -0.538553
O16   O     O_R   0.060240 0.944210 0.930110 -0.544429
O17   O     O_R   0.914790 0.269640 0.916760 -0.536999
O18   O     O_R   0.085210 0.769640 0.083240 -0.536243
C47   C     C_R   0.919119 0.612286 0.084911 0.703256
C48   C     C_R   0.080594 0.112643 0.914746 0.696638
O19   O     O_3   0.992050 0.601530 0.949880 -0.380565
O20   O     O_3   0.007950 0.101530 0.050120 -0.376725
V3    V     V_3+5 0.001480 0.328340 0.009300 1.412720
V4    V     V_3+5 0.998520 0.828340 0.990700 1.403018
N1    N     N_3   0.132107 0.675621 0.702492 -0.658376
H19   H     H_    0.138778 0.610477 0.756796 0.232825
H20   H     H_    0.079250 0.725115 0.681580 0.231065
N2    N     N_3   0.878015 0.072608 0.291659 -0.679101
H21   H     H_    0.851313 0.199283 0.280957 0.245678
H22   H     H_    0.910254 0.072383 0.350697 0.237069
N3    N     N_3   0.663507 0.422398 0.738583 -0.670746
H23   H     H_    0.657564 0.419446 0.795245 0.218928
H24   H     H_    0.689736 0.545470 0.733035 0.218868
N4    N     N_3   0.336355 0.923495 0.261724 -0.669466
H25   H     H_    0.342272 0.921499 0.205046 0.218968
H26   H     H_    0.310070 0.046093 0.267452 0.218863
N5    N     N_3   0.732867 0.999368 0.664945 -0.689804
H27   H     H_    0.708702 0.872487 0.669447 0.228789
H28   H     H_    0.738149 0.009120 0.608100 0.222546
N6    N     N_3   0.267214 0.498331 0.334804 -0.686778
H29   H     H_    0.291459 0.371867 0.330189 0.228881
H30   H     H_    0.261875 0.507252 0.391633 0.226436

loop_
_geom_bond_atom_site_label_1
_geom_bond_atom_site_label_2
_ccdc_geom_bond_type
C14   C16   A    
C20   C26   A    
O1    C3    A    
O2    C4    A    
C43   H15   S    
C2    O7    A    
N3    H23   S    
C31   C33   A    
O14   V4    S    
O5    C3    A    
O13   V3    S    
O18   V4    S    
C19   C21   A    
C45   O18   A    
C17   C19   A    
O14   C46   A    
C41   C43   A    
N6    H29   S    
C44   H16   S    
C42   C44   A    
C41   C48   S    
C29   C31   A    
O11   V4    S    
C35   N1    S    
C38   H18   S    
O11   C47   A    
C8    H4    S    
C28   C30   A    
C33   C35   A    
C6    C10   S    
C34   C36   A    
C15   C17   A    
C36   N2    S    
C21   C31   A    
C22   C32   A    
O6    C4    A    
O12   V3    S    
C1    C16   S    
O15   V3    S    
C32   C34   A    
C2    C15   S    
O6    V2    S    
C25   C27   A    
N2    H21   S    
C26   C28   A    
C46   O17   A    
C18   H8    S    
N3    H24   S    
C36   C38   A    
C30   C32   A    
O13   C45   A    
O17   V3    S    
C13   H5    S    
C4    C11   S    
O4    C2    A    
C12   N6    S    
N1    H19   S    
C25   H9    S    
O5    V1    S    
O16   C48   A    
C5    H1    S    
C35   C37   A    
C16   C18   A    
O4    V2    S    
C7    H3    S    
N1    H20   S    
C17   H7    S    
C13   C23   A    
N4    H26   S    
C14   C24   A    
N5    H28   S    
O1    V2    S    
N2    H22   S    
O2    V1    S    
C27   C29   A    
C39   H13   S    
C9    N3    S    
C40   H14   S    
C39   C41   A    
C28   H12   S    
C20   C22   A    
C42   C47   S    
O12   C48   A    
O3    V1    S    
C8    C45   S    
C6    H2    S    
C10   C12   D    
C37   H17   S    
O3    C1    A    
C33   C43   A    
O9    V2    S    
C9    C11   D    
C24   C38   A    
O16   V4    S    
C5    C9    S    
C14   H6    S    
O7    V1    S    
C34   C44   A    
C1    O8    A    
C13   C15   A    
O8    V2    S    
C22   C24   A    
C23   C37   A    
N6    H30   S    
C3    C12   S    
C11   N5    S    
N4    H25   S    
C5    C7    D    
C18   C20   A    
C40   C42   A    
C6    C8    D    
C7    C46   S    
C19   C25   A    
C21   C23   A    
O20   V3    S    
C29   C39   A    
C27   H11   S    
O19   V4    S    
C30   C40   A    
N5    H27   S    
C26   H10   S    
O10   V1    S    
O15   C47   A    
C10   N4    S    
