data_mof_unit_61537.cif
_audit_creation_date              2012-12-10T16:46:03-0500
_audit_creation_method            fapswitch 2.2
_symmetry_space_group_name_H-M    P1
_symmetry_Int_Tables_number       1
_space_group_crystal_system       triclinic
_cell_length_a                    18.531858
_cell_length_b                    18.527005
_cell_length_c                    34.439917
_cell_angle_alpha                 89.999989
_cell_angle_beta                  90.0
_cell_angle_gamma                 89.976607
_cell_volume                      11824.5941187

loop_
_atom_site_label
_atom_site_type_symbol
_atom_type_description
_atom_site_fract_x
_atom_site_fract_y
_atom_site_fract_z
_atom_type_partial_charge
C1    C     C_R   0.500000 1.000000 0.605718 0.814883
C2    C     C_R   0.076407 0.391733 0.230336 -0.073267
C3    C     C_R   0.548385 0.955335 0.668509 -0.073275
C4    C     C_R   0.455880 0.048887 0.168506 -0.073301
C5    C     C_R   0.951615 0.544665 0.168510 -0.073275
C6    C     C_R   0.544120 0.951113 0.168506 -0.073301
C7    C     C_R   0.048384 0.455335 0.168510 -0.073275
C8    C     C_R   1.000000 0.500000 0.648331 -0.125277
C9    C     C_R   0.500000 1.000000 0.648331 -0.125697
C10   C     C_R   0.500000 1.000000 0.148331 -0.125277
C11   C     C_R   1.000000 0.500000 0.148331 -0.125697
C12   C     C_R   0.050805 0.456677 0.709363 0.020843
C13   C     C_R   0.392789 0.077879 0.230364 -0.073347
C14   C     C_R   0.542664 0.948649 0.709354 0.020641
C15   C     C_R   0.949195 0.543323 0.709363 0.020843
C16   C     C_R   0.457336 0.051351 0.709354 0.020641
C17   C     C_R   0.550805 0.956677 0.209363 0.020843
C18   C     C_R   0.042664 0.448649 0.209354 0.020641
C19   C     C_R   0.449194 0.043323 0.209363 0.020842
C20   C     C_R   0.957336 0.551351 0.209354 0.020641
C21   C     C_R   1.000000 0.500000 0.729850 0.038736
C22   C     C_R   0.500000 1.000000 0.729842 0.038943
C23   C     C_R   0.500000 1.000000 0.229850 0.038736
C24   C     C_R   0.923593 0.608267 0.230336 -0.073268
C25   C     C_R   0.000000 0.500000 0.229842 0.038943
C26   C     C_1   0.141340 0.763005 0.446015 0.278978
C27   C     C_1   0.243867 0.147955 0.442190 0.304939
C28   C     C_1   0.858659 0.236995 0.446015 0.278978
C29   C     C_1   0.756133 0.852046 0.442190 0.304940
C30   C     C_1   0.886970 0.787655 0.475110 0.257417
C31   C     C_1   0.788986 0.109852 0.479561 0.248153
C32   C     C_1   0.113030 0.212345 0.475109 0.257416
C33   C     C_1   0.211014 0.890148 0.479561 0.248153
C34   C     C_1   0.641341 0.263005 0.946015 0.278978
C35   C     C_R   0.606745 0.922340 0.271185 -0.051113
C36   C     C_1   0.743867 0.647955 0.942190 0.304939
C37   C     C_1   0.358659 0.736995 0.946015 0.278978
C38   C     C_1   0.256133 0.352045 0.942190 0.304939
C39   C     C_1   0.386970 0.287655 0.975109 0.257416
C40   C     C_1   0.288986 0.609852 0.979561 0.248153
C41   C     C_1   0.613030 0.712345 0.975109 0.257417
C42   C     C_1   0.711014 0.390148 0.979561 0.248153
C43   C     C_1   0.923658 0.608236 0.646994 0.203602
C44   C     C_1   0.392547 0.077474 0.647038 0.204487
C45   C     C_1   0.076342 0.391764 0.646994 0.203601
C46   C     C_R   0.076078 0.392106 0.271155 -0.050892
C47   C     C_1   0.607453 0.922526 0.647038 0.204487
C48   C     C_1   0.423657 0.108236 0.146994 0.203602
C49   C     C_1   0.892547 0.577474 0.147038 0.204487
C50   C     C_1   0.576343 0.891764 0.146994 0.203602
C51   C     C_1   0.107453 0.422526 0.147038 0.204487
C52   C     C_1   0.170340 0.392721 0.710822 0.199676
C53   C     C_1   0.604992 0.828248 0.710764 0.199879
C54   C     C_1   0.829660 0.607279 0.710822 0.199675
C55   C     C_1   0.395008 0.171752 0.710764 0.199879
C56   C     C_1   0.670341 0.892722 0.210822 0.199675
C57   C     C_R   0.393255 0.077660 0.271185 -0.051113
C58   C     C_1   0.104992 0.328248 0.210764 0.199878
C59   C     C_1   0.329659 0.107278 0.210822 0.199675
C60   C     C_1   0.895008 0.671752 0.210764 0.199879
C61   C     C_1   0.670917 0.897614 0.291524 0.251180
C62   C     C_1   0.099757 0.327493 0.291459 0.251186
C63   C     C_1   0.329083 0.102386 0.291524 0.251180
C64   C     C_1   0.900243 0.672507 0.291459 0.251186
C65   C     C_1   0.170917 0.397613 0.791524 0.251180
C66   C     C_1   0.599757 0.827493 0.791459 0.251186
C67   C     C_1   0.829083 0.602387 0.791524 0.251180
C68   C     C_R   0.923922 0.607893 0.271155 -0.050892
C69   C     C_1   0.400243 0.172507 0.791459 0.251186
C70   C     C_R   0.106744 0.422339 0.771185 -0.051113
C71   C     C_R   0.576078 0.892106 0.771155 -0.050892
C72   C     C_R   0.893256 0.577661 0.771185 -0.051113
C73   C     C_R   1.000000 0.500000 0.605715 0.814592
C74   C     C_R   0.423922 0.107893 0.771155 -0.050892
C75   C     C_R   0.549568 0.955828 0.291504 0.018299
C76   C     C_R   0.043412 0.449757 0.291488 0.017688
C77   C     C_R   0.450432 0.044172 0.291504 0.018299
C78   C     C_R   0.956588 0.550243 0.291488 0.017688
C79   C     C_R   0.049567 0.455828 0.791504 0.018299
C80   C     C_R   0.543412 0.949757 0.791488 0.017688
C81   C     C_R   0.950432 0.544172 0.791504 0.018299
C82   C     C_R   0.456588 0.050243 0.791488 0.017688
C83   C     C_R   0.500000 1.000000 0.270886 -0.002664
C84   C     C_R   0.000000 0.500000 0.105718 0.814882
C85   C     C_R   0.000000 0.500000 0.270875 -0.002482
C86   C     C_R   1.000000 0.500000 0.770887 -0.002665
C87   C     C_R   0.500000 0.000000 0.770875 -0.002482
C88   C     C_R   0.540898 0.948519 0.332042 0.072994
C89   C     C_R   0.050835 0.458290 0.332027 0.073396
C90   C     C_R   0.459102 0.051481 0.332042 0.072994
C91   C     C_R   0.949164 0.541710 0.332027 0.073396
C92   C     C_R   0.040898 0.448519 0.832042 0.072994
C93   C     C_R   0.550836 0.958290 0.832027 0.073396
C94   C     C_R   0.959102 0.551481 0.832042 0.072994
C95   C     C_R   0.500000 1.000000 0.105715 0.814592
C96   C     C_R   0.449164 0.041710 0.832027 0.073396
C97   C     C_R   0.500000 1.000000 0.352111 -0.131412
C98   C     C_R   0.000000 0.500000 0.352099 -0.132346
C99   C     C_R   0.000000 0.500000 0.852111 -0.131411
C100  C     C_R   0.500000 0.000000 0.852099 -0.132346
C101  C     C_R   0.500000 1.000000 0.394334 0.889667
C102  C     C_R   0.000000 0.500000 0.394327 0.888412
C103  C     C_R   1.000000 0.500000 0.894334 0.889667
C104  C     C_R   0.500000 0.000000 0.894327 0.888412
C105  C     C_R   0.361253 0.138513 0.499905 0.876514
C106  C     C_R   0.107210 0.422120 0.730364 -0.073347
C107  C     C_R   0.861684 0.361002 0.500069 0.865023
C108  C     C_R   0.638746 0.861487 0.499905 0.876514
C109  C     C_R   0.138316 0.638998 0.500069 0.865023
C110  C     C_R   0.639163 0.137888 0.500359 0.863200
C111  C     C_R   0.137973 0.360890 0.500286 0.872131
C112  C     C_R   0.360837 0.862112 0.500359 0.863201
C113  C     C_R   0.862027 0.639110 0.500286 0.872131
C114  C     C_R   0.861253 0.638513 0.999905 0.876514
C115  C     C_R   0.361684 0.861002 0.000069 0.865023
C116  C     C_R   0.138746 0.361487 0.999905 0.876514
C117  C     C_R   0.576407 0.891733 0.730336 -0.073268
C118  C     C_R   0.638316 0.138998 0.000069 0.865023
C119  C     C_R   0.139163 0.637888 0.000359 0.863200
C120  C     C_R   0.637973 0.860889 0.000286 0.872131
C121  C     C_R   0.860837 0.362112 0.000359 0.863200
C122  C     C_R   0.362027 0.139110 0.000286 0.872131
C123  C     C_2   0.189045 0.756938 0.479345 -0.042927
C124  C     C_2   0.246203 0.191951 0.477108 -0.050188
C125  C     C_2   0.810955 0.243062 0.479345 -0.042927
C126  C     C_2   0.753797 0.808049 0.477108 -0.050188
C127  C     C_2   0.815509 0.760024 0.484164 -0.037251
C128  C     C_R   0.892790 0.577880 0.730364 -0.073347
C129  C     C_2   0.761687 0.182295 0.486565 -0.038465
C130  C     C_2   0.184491 0.239976 0.484164 -0.037251
C131  C     C_2   0.238313 0.817705 0.486565 -0.038465
C132  C     C_2   0.689045 0.256938 0.979345 -0.042927
C133  C     C_2   0.746203 0.691951 0.977108 -0.050188
C134  C     C_2   0.310955 0.743062 0.979345 -0.042927
C135  C     C_2   0.253797 0.308049 0.977108 -0.050187
C136  C     C_2   0.315508 0.260024 0.984164 -0.037252
C137  C     C_2   0.261687 0.682295 0.986564 -0.038465
C138  C     C_2   0.684491 0.739976 0.984164 -0.037251
C139  C     C_R   0.423593 0.108267 0.730336 -0.073268
C140  C     C_2   0.738313 0.317705 0.986564 -0.038465
C141  C     C_2   0.189434 0.698735 0.503079 -0.359291
C142  C     C_2   0.301845 0.189966 0.502491 -0.350639
C143  C     C_2   0.810566 0.301265 0.503079 -0.359290
C144  C     C_2   0.698155 0.810033 0.502492 -0.350640
C145  C     C_2   0.804873 0.692860 0.498261 -0.329452
C146  C     C_2   0.693498 0.194494 0.498740 -0.345170
C147  C     C_2   0.195127 0.307140 0.498261 -0.329452
C148  C     C_2   0.306502 0.805506 0.498740 -0.345170
C149  C     C_2   0.689434 0.198735 0.003079 -0.359290
C150  C     C_R   0.607210 0.922121 0.230364 -0.073347
C151  C     C_2   0.801845 0.689966 0.002491 -0.350639
C152  C     C_2   0.310566 0.801265 0.003079 -0.359290
C153  C     C_2   0.198155 0.310034 0.002491 -0.350639
C154  C     C_2   0.304873 0.192860 0.998261 -0.329452
C155  C     C_2   0.193498 0.694494 0.998740 -0.345170
C156  C     C_2   0.695127 0.807140 0.998261 -0.329452
C157  C     C_2   0.806502 0.305506 0.998740 -0.345170
C158  C     C_R   0.955880 0.548887 0.668506 -0.073301
C159  C     C_R   0.451615 0.044665 0.668509 -0.073275
C160  C     C_R   0.044119 0.451113 0.668506 -0.073301
H1    H     H_    0.226075 0.696692 0.527659 0.160858
H2    H     H_    0.801628 0.724484 0.027978 0.165044
H3    H     H_    0.273925 0.803307 0.027658 0.160858
H4    H     H_    0.198371 0.275516 0.027978 0.165044
H5    H     H_    0.251182 0.174599 0.006167 0.157839
H6    H     H_    0.175043 0.748765 0.005278 0.156660
H7    H     H_    0.748818 0.825401 0.006167 0.157839
H8    H     H_    0.824957 0.251235 0.005278 0.156660
H9    H     H_    0.301628 0.224484 0.527978 0.165044
H10   H     H_    0.773924 0.303308 0.527659 0.160858
H11   H     H_    0.698371 0.775516 0.527978 0.165045
H12   H     H_    0.751182 0.674599 0.506167 0.157839
H13   H     H_    0.675043 0.248765 0.505278 0.156660
H14   H     H_    0.248818 0.325401 0.506167 0.157839
H15   H     H_    0.324957 0.751235 0.505278 0.156660
H16   H     H_    0.726075 0.196692 0.027658 0.160858
I1    I     I_    0.572677 0.852259 0.362783 -0.320610
I2    I     I_    0.146577 0.424913 0.362752 -0.314387
I3    I     I_    0.427323 0.147741 0.362783 -0.320610
I4    I     I_    0.853423 0.575087 0.362752 -0.314386
I5    I     I_    0.072676 0.352258 0.862783 -0.320611
I6    I     I_    0.646577 0.924913 0.862752 -0.314386
I7    I     I_    0.927324 0.647742 0.862783 -0.320610
I8    I     I_    0.353423 0.075087 0.862752 -0.314386
N1    N     N_1   0.103497 0.768061 0.419412 -0.155480
N2    N     N_1   0.741761 0.613049 0.914336 -0.137016
N3    N     N_1   0.396503 0.731939 0.919412 -0.155480
N4    N     N_1   0.258239 0.386951 0.914336 -0.137016
N5    N     N_1   0.443799 0.309833 0.967911 -0.171997
N6    N     N_1   0.310841 0.552234 0.973994 -0.178604
N7    N     N_1   0.556201 0.690167 0.967912 -0.171997
N8    N     N_1   0.689159 0.447765 0.973994 -0.178604
N9    N     N_1   0.898501 0.655468 0.629627 -0.182350
N10   N     N_1   0.345532 0.103100 0.629706 -0.182975
N11   N     N_1   0.101499 0.344532 0.629627 -0.182350
N12   N     N_1   0.241762 0.113050 0.414336 -0.137015
N13   N     N_1   0.654468 0.896900 0.629706 -0.182975
N14   N     N_1   0.398500 0.155467 0.129627 -0.182350
N15   N     N_1   0.845532 0.603100 0.129706 -0.182975
N16   N     N_1   0.601499 0.844533 0.129627 -0.182350
N17   N     N_1   0.154468 0.396900 0.129706 -0.182975
N18   N     N_1   0.220925 0.369413 0.695581 -0.154484
N19   N     N_1   0.627647 0.777386 0.695495 -0.154752
N20   N     N_1   0.779075 0.630587 0.695581 -0.154484
N21   N     N_1   0.372352 0.222614 0.695495 -0.154752
N22   N     N_1   0.720926 0.869414 0.195581 -0.154485
N23   N     N_1   0.896503 0.231939 0.419412 -0.155480
N24   N     N_1   0.127647 0.277385 0.195495 -0.154752
N25   N     N_1   0.279074 0.130586 0.195581 -0.154484
N26   N     N_1   0.872353 0.722614 0.195495 -0.154753
N27   N     N_1   0.722552 0.878210 0.307326 -0.136032
N28   N     N_1   0.118321 0.275506 0.307229 -0.138040
N29   N     N_1   0.277448 0.121790 0.307326 -0.136032
N30   N     N_1   0.881678 0.724494 0.307229 -0.138039
N31   N     N_1   0.222551 0.378209 0.807326 -0.136032
N32   N     N_1   0.618321 0.775506 0.807229 -0.138040
N33   N     N_1   0.777449 0.621791 0.807326 -0.136032
N34   N     N_1   0.758239 0.886952 0.414337 -0.137016
N35   N     N_1   0.381678 0.224494 0.807229 -0.138039
N36   N     N_1   0.943799 0.809833 0.467912 -0.171997
N37   N     N_1   0.810840 0.052234 0.473994 -0.178604
N38   N     N_1   0.056201 0.190167 0.467911 -0.171996
N39   N     N_1   0.189159 0.947766 0.473994 -0.178604
N40   N     N_1   0.603497 0.268061 0.919412 -0.155480
O1    O     O_3   0.500000 0.000000 0.500000 -0.511734
O2    O     O_R   0.560130 0.000000 0.087440 -0.634383
O3    O     O_R   0.000000 0.560130 0.087440 -0.634331
O4    O     O_R   0.439870 0.000000 0.087440 -0.634383
O5    O     O_R   0.439940 0.000000 0.412560 -0.618921
O6    O     O_R   0.000000 0.439940 0.412560 -0.617941
O7    O     O_R   0.560060 0.000000 0.412560 -0.618921
O8    O     O_R   0.000000 0.560060 0.412560 -0.617942
O9    O     O_R   0.939940 0.500000 0.912560 -0.618921
O10   O     O_R   0.500000 0.939940 0.912560 -0.617941
O11   O     O_R   0.060060 0.500000 0.912560 -0.618921
O12   O     O_3   1.000000 0.500000 0.500000 -0.512285
O13   O     O_R   0.500000 0.060060 0.912560 -0.617942
O14   O     O_R   0.415450 0.144560 0.522930 -0.633668
O15   O     O_R   0.855440 0.415450 0.522930 -0.637931
O16   O     O_R   0.584550 0.855440 0.522930 -0.633668
O17   O     O_R   0.144560 0.584550 0.522930 -0.637931
O18   O     O_R   0.584550 0.144560 0.522930 -0.637857
O19   O     O_R   0.144560 0.415450 0.522930 -0.634501
O20   O     O_R   0.415450 0.855440 0.522930 -0.637857
O21   O     O_R   0.855440 0.584550 0.522930 -0.634501
O22   O     O_R   0.915450 0.644560 0.022930 -0.633668
O23   O     O_3   0.000000 0.500000 0.000000 -0.511734
O24   O     O_R   0.355440 0.915450 0.022930 -0.637931
O25   O     O_R   0.084550 0.355440 0.022930 -0.633668
O26   O     O_R   0.644560 0.084550 0.022930 -0.637931
O27   O     O_R   0.084550 0.644560 0.022930 -0.637857
O28   O     O_R   0.644560 0.915450 0.022930 -0.634501
O29   O     O_R   0.915450 0.355440 0.022930 -0.637857
O30   O     O_R   0.355440 0.084550 0.022930 -0.634501
O31   O     O_R   0.644640 0.915430 0.477080 -0.629590
O32   O     O_R   0.084570 0.644640 0.477080 -0.632682
O33   O     O_R   0.355360 0.084570 0.477080 -0.629590
O34   O     O_3   0.500000 0.000000 0.000000 -0.512285
O35   O     O_R   0.915430 0.355360 0.477080 -0.632682
O36   O     O_R   0.355360 0.915430 0.477080 -0.629450
O37   O     O_R   0.915430 0.644640 0.477080 -0.623138
O38   O     O_R   0.644640 0.084570 0.477080 -0.629450
O39   O     O_R   0.084570 0.355360 0.477080 -0.623137
O40   O     O_R   0.144640 0.415430 0.977080 -0.629590
O41   O     O_R   0.584570 0.144640 0.977080 -0.632682
O42   O     O_R   0.855360 0.584570 0.977080 -0.629590
O43   O     O_R   0.415430 0.855360 0.977080 -0.632682
O44   O     O_R   0.855360 0.415430 0.977080 -0.629450
O45   O     O_R   0.500000 0.939870 0.587440 -0.634331
O46   O     O_R   0.415430 0.144640 0.977080 -0.623138
O47   O     O_R   0.144640 0.584570 0.977080 -0.629450
O48   O     O_R   0.584570 0.855360 0.977080 -0.623138
O49   O     O_R   0.060130 0.500000 0.587440 -0.634383
O50   O     O_R   0.500000 0.060130 0.587440 -0.634331
O51   O     O_R   0.939870 0.500000 0.587440 -0.634383
O52   O     O_R   0.000000 0.439870 0.087440 -0.634331
Zn1   Zn    Zn3+2 0.414160 0.000000 0.467250 1.017443
Zn2   Zn    Zn3+2 0.914220 0.500000 0.532750 0.995193
Zn3   Zn    Zn3+2 0.500000 0.914220 0.532750 0.995823
Zn4   Zn    Zn3+2 0.085780 0.500000 0.532750 0.995193
Zn5   Zn    Zn3+2 0.000000 0.585780 0.032750 0.995823
Zn6   Zn    Zn3+2 0.414220 0.000000 0.032750 0.995193
Zn7   Zn    Zn3+2 1.000000 0.414220 0.032750 0.995823
Zn8   Zn    Zn3+2 0.585780 0.000000 0.032750 0.995193
Zn9   Zn    Zn3+2 1.000000 0.414160 0.467250 1.019944
Zn10  Zn    Zn3+2 0.585840 0.000000 0.467250 1.017443
Zn11  Zn    Zn3+2 0.000000 0.585840 0.467250 1.019944
Zn12  Zn    Zn3+2 0.914160 0.500000 0.967250 1.017443
Zn13  Zn    Zn3+2 0.500000 0.914160 0.967250 1.019944
Zn14  Zn    Zn3+2 0.085840 0.500000 0.967250 1.017443
Zn15  Zn    Zn3+2 0.500000 0.085840 0.967250 1.019944
Zn16  Zn    Zn3+2 0.500000 0.085780 0.532750 0.995823

loop_
_geom_bond_atom_site_label_1
_geom_bond_atom_site_label_2
_ccdc_geom_bond_type
O34   Zn15  S    
C45   N11   T    
C99   C103  S    
O15   Zn2   S    
C90   C97   A    
O33   Zn1   S    
C126  C127  S    
O39   Zn9   S    
C32   N38   T    
C2    C18   A    
C17   C150  A    
C133  C151  D    
O11   Zn14  S    
C120  C156  S    
C94   C99   A    
C43   C158  S    
C8    C158  A    
C36   C133  S    
C134  C137  S    
C32   C130  S    
C147  H14   S    
C135  C136  S    
C5    C20   A    
C37   N3    T    
C2    C46   A    
C7    C11   A    
C18   C25   A    
C144  H11   S    
C35   C75   A    
C53   N19   T    
C138  C156  D    
C23   C83   A    
C46   C62   S    
O12   Zn2   S    
C64   C68   S    
C64   N30   T    
C96   I8    S    
C5    C11   A    
C80   C87   A    
C119  O27   A    
C92   I5    S    
C114  O42   A    
O27   Zn5   S    
O12   Zn9   S    
C39   N5    T    
C26   N1    T    
C53   C117  S    
O9    Zn12  S    
C13   C57   A    
C20   C25   A    
C9    C159  A    
C155  H6    S    
C113  C145  S    
C65   C70   S    
C37   C134  S    
C146  H13   S    
C100  C104  S    
C55   C139  S    
C137  C155  D    
O22   Zn5   S    
C107  O35   A    
C67   C72   S    
C61   N27   T    
O10   Zn13  S    
C3    C47   S    
O35   Zn9   S    
C95   O4    A    
C8    C73   S    
O23   Zn7   S    
O14   Zn16  S    
C31   N37   T    
C4    C19   A    
C69   N35   T    
C108  O16   A    
C116  O25   A    
C20   C24   A    
C73   O49   A    
C115  C152  S    
C12   C160  A    
C125  C143  D    
C35   C61   S    
C105  O14   A    
C121  O44   A    
C154  H5    S    
O21   Zn2   S    
C35   C150  A    
C109  O17   A    
O45   Zn3   S    
C116  C153  S    
C33   C131  S    
C42   N8    T    
O47   Zn14  S    
C52   N18   T    
C88   C97   A    
O6    Zn9   S    
C76   C89   A    
C41   N7    T    
C151  H2    S    
C104  O10   A    
C130  C147  D    
C145  H12   S    
C52   C106  S    
C133  C138  S    
C103  O9    A    
C121  C157  S    
C29   C126  S    
C91   I4    S    
C16   C159  A    
C102  O8    A    
C132  C149  D    
C122  C154  S    
O17   Zn4   S    
C5    C49   S    
C45   C160  S    
C114  C151  S    
C74   C82   A    
O3    Zn5   S    
C157  H8    S    
C46   C76   A    
C71   C80   A    
C56   N22   T    
C115  O43   A    
C57   C63   S    
C39   C136  S    
O34   Zn6   S    
C68   C78   A    
C104  O13   A    
C55   N21   T    
C81   C94   A    
C77   C90   A    
O49   Zn4   S    
C82   C96   A    
C71   C117  A    
C153  H4    S    
C42   C140  S    
C148  H15   S    
C57   C77   A    
C77   C83   A    
C88   I1    S    
O51   Zn2   S    
C1    C9    S    
C15   C158  A    
C101  O7    A    
C118  O26   A    
C110  C146  S    
O46   Zn15  S    
C54   N20   T    
C50   N16   T    
C13   C19   A    
C113  O37   A    
C72   C128  A    
C156  H7    S    
C89   I2    S    
C24   C68   A    
C107  O15   A    
C12   C21   A    
O20   Zn3   S    
C6    C50   S    
C112  C148  S    
O32   Zn11  S    
C48   N14   T    
O44   Zn12  S    
C120  O28   A    
C109  C141  S    
C30   C127  S    
C118  C149  S    
C19   C23   A    
C122  O30   A    
C116  O40   A    
C110  O38   A    
C111  C147  S    
C140  C157  D    
C118  O41   A    
C136  C154  D    
C93   I6    S    
C110  O18   A    
O18   Zn16  S    
C66   C71   S    
O31   Zn10  S    
C58   N24   T    
C72   C81   A    
C24   C60   S    
C7    C18   A    
C134  C152  D    
C40   C137  S    
C123  C141  D    
C25   C85   A    
C82   C87   A    
O1    Zn3   S    
O16   Zn3   S    
C124  C130  S    
C131  C148  D    
O7    Zn10  S    
O12   Zn11  S    
O40   Zn14  S    
C22   C87   A    
C63   N29   T    
O43   Zn13  S    
C3    C9    A    
C93   C100  A    
O1    Zn16  S    
C129  C146  D    
C3    C14   A    
C127  C145  D    
C142  H9    S    
O30   Zn6   S    
O34   Zn13  S    
C29   N34   T    
O38   Zn10  S    
C108  C144  S    
C17   C23   A    
C15   C128  A    
C84   O52   A    
O48   Zn13  S    
O13   Zn15  S    
C14   C22   A    
C11   C84   S    
C119  C155  S    
C16   C139  A    
O50   Zn16  S    
C94   I7    S    
C141  H1    S    
O8    Zn11  S    
C56   C150  S    
C8    C160  A    
C33   N39   T    
C105  C142  S    
C67   N33   T    
C28   C125  S    
C78   C85   A    
C30   N36   T    
C115  O24   A    
C49   N15   T    
O4    Zn6   S    
C62   N28   T    
C6    C17   A    
C90   I3    S    
C79   C92   A    
C16   C22   A    
O25   Zn7   S    
C123  C131  S    
C70   C79   A    
O12   Zn4   S    
O26   Zn8   S    
C81   C86   A    
C143  H10   S    
O23   Zn12  S    
C124  C142  D    
C1    O50   A    
O19   Zn4   S    
C6    C10   A    
C101  O5    A    
C27   C124  S    
C38   N4    T    
C121  O29   A    
C13   C59   S    
O52   Zn7   S    
C105  O33   A    
C78   C91   A    
C132  C140  S    
C40   N6    T    
C119  O47   A    
C74   C139  A    
C109  O32   A    
C44   N10   T    
C120  O48   A    
C89   C98   A    
C43   N9    T    
C149  H16   S    
C111  O19   A    
O1    Zn10  S    
C34   N40   T    
O28   Zn8   S    
C80   C93   A    
C95   O2    A    
C7    C51   S    
C108  O31   A    
C112  O20   A    
C98   C102  S    
C112  O36   A    
C12   C106  A    
O36   Zn1   S    
C84   O3    A    
C75   C83   A    
C21   C86   A    
C114  O22   A    
C54   C128  S    
C10   C95   S    
C73   O51   A    
C65   N31   T    
C113  O21   A    
C96   C100  A    
O23   Zn14  S    
C126  C144  D    
O5    Zn1   S    
C38   C135  S    
C60   N26   T    
C103  O11   A    
C36   N2    T    
C91   C98   A    
C66   N32   T    
C2    C58   S    
C44   C159  S    
C107  C143  S    
O2    Zn8   S    
C70   C106  A    
C152  H3    S    
C122  O46   A    
C34   C132  S    
O42   Zn12  S    
C125  C129  S    
C75   C88   A    
C15   C21   A    
C1    O45   A    
O23   Zn5   S    
O41   Zn15  S    
C26   C123  S    
O29   Zn7   S    
C51   N17   T    
C102  O6    A    
C28   N23   T    
O1    Zn1   S    
O24   Zn6   S    
C47   N13   T    
C14   C117  A    
O34   Zn8   S    
C27   N12   T    
C41   C138  S    
C69   C74   S    
C111  O39   A    
C4    C48   S    
C4    C10   A    
C76   C85   A    
C79   C86   A    
C97   C101  S    
C135  C153  D    
C59   N25   T    
C92   C99   A    
O37   Zn11  S    
C31   C129  S    
