data_mof_unit_52875.cif
_audit_creation_date              2013-03-05T15:39:51-0500
_audit_creation_method            fapswitch 2.2
_symmetry_space_group_name_H-M    P1
_symmetry_Int_Tables_number       1
_space_group_crystal_system       triclinic
_cell_length_a                    16.901777
_cell_length_b                    16.9321
_cell_length_c                    16.979772
_cell_angle_alpha                 65.426259
_cell_angle_beta                  65.168432
_cell_angle_gamma                 64.746786
_cell_volume                      3819.14119507

loop_
_atom_site_label
_atom_site_type_symbol
_atom_site_description
_atom_site_fract_x
_atom_site_fract_y
_atom_site_fract_z
_atom_type_partial_charge
O1    O     O_R   0.982940 0.138950 0.510160 -0.647941
O2    O     O_R   0.017060 0.861050 0.489840 -0.650378
O3    O     O_R   0.138950 0.510160 0.982940 -0.633762
O4    O     O_R   0.861050 0.489840 0.017060 -0.643471
O5    O     O_R   0.510160 0.982940 0.138950 -0.660501
O6    O     O_R   0.489840 0.017060 0.861050 -0.626617
O7    O     O_R   0.489840 0.861050 0.017060 -0.627053
O8    O     O_R   0.510160 0.138950 0.982940 -0.652540
O9    O     O_R   0.017060 0.489840 0.861050 -0.660697
O10   O     O_R   0.982940 0.510160 0.138950 -0.651256
O11   O     O_R   0.861050 0.017060 0.489840 -0.655712
O12   O     O_R   0.138950 0.982940 0.510160 -0.645901
C1    C     C_R   0.590095 0.031534 0.594901 0.230923
C2    C     C_R   0.409015 0.962171 0.412676 0.224402
C3    C     C_R   0.036754 0.588543 0.589238 0.240520
C4    C     C_R   0.972949 0.406803 0.405428 0.233195
C5    C     C_R   0.586935 0.603796 0.026381 0.182206
C6    C     C_R   0.403502 0.413594 0.965697 0.182251
O13   O     O_R   0.867700 0.025880 0.612340 -0.627486
O14   O     O_R   0.132300 0.974120 0.387660 -0.563135
O15   O     O_R   0.025880 0.612340 0.867700 -0.574600
O16   O     O_R   0.974120 0.387660 0.132300 -0.651836
O17   O     O_R   0.612340 0.867700 0.025880 -0.657020
O18   O     O_R   0.387660 0.132300 0.974120 -0.566555
O19   O     O_R   0.387660 0.974120 0.132300 -0.572598
O20   O     O_R   0.612340 0.025880 0.867700 -0.659466
O21   O     O_R   0.132300 0.387660 0.974120 -0.579469
O22   O     O_R   0.867700 0.612340 0.025880 -0.633917
O23   O     O_R   0.974120 0.132300 0.387660 -0.632930
O24   O     O_R   0.025880 0.867700 0.612340 -0.573542
C7    C     C_R   0.963196 0.179106 0.436945 0.928638
C8    C     C_R   0.029251 0.822342 0.565561 0.924231
C9    C     C_R   0.178550 0.439151 0.958751 0.937720
C10   C     C_R   0.822012 0.568538 0.026494 0.943202
C11   C     C_R   0.434510 0.968964 0.178389 0.922209
C12   C     C_R   0.563012 0.036959 0.821500 0.899599
C13   C     C_R   0.559882 0.821384 0.043980 0.870506
C14   C     C_R   0.433654 0.178371 0.970042 0.944717
C15   C     C_R   0.025616 0.566798 0.823156 0.922527
C16   C     C_R   0.965309 0.436117 0.178474 0.929485
C17   C     C_R   0.821189 0.034872 0.563964 0.930713
C18   C     C_R   0.179011 0.961727 0.437700 0.943695
Zn1   Zn    Zn3+2 0.004880 0.004880 0.583590 0.922077
Zn2   Zn    Zn3+2 0.995120 0.995120 0.416410 0.938440
Zn3   Zn    Zn3+2 0.004880 0.583590 0.004880 0.952646
Zn4   Zn    Zn3+2 0.995120 0.416410 0.995120 0.934875
Zn5   Zn    Zn3+2 0.583590 0.004880 0.004880 0.887490
Zn6   Zn    Zn3+2 0.416410 0.995120 0.995120 0.973828
C19   C     C_R   0.542346 0.012078 0.551429 -0.197178
C20   C     C_R   0.454646 0.979283 0.461430 -0.202535
C21   C     C_R   0.023418 0.541904 0.539305 -0.199894
C22   C     C_R   0.991911 0.453630 0.449909 -0.210466
C23   C     C_R   0.538547 0.556013 0.009640 -0.251526
C24   C     C_R   0.448653 0.462708 0.981750 -0.269724
C25   C     C_R   0.588130 0.943409 0.507879 0.273138
C26   C     C_R   0.403746 0.037418 0.518662 0.295366
C27   C     C_R   0.079451 0.452764 0.533461 0.351140
C28   C     C_R   0.930578 0.538191 0.463116 0.277425
C29   C     C_R   0.442320 0.589664 0.020077 0.316047
C30   C     C_R   0.544526 0.437777 0.956937 0.314387
C31   C     C_R   0.549814 0.937902 0.451427 0.310422
C32   C     C_R   0.451311 0.063342 0.551531 0.321200
C33   C     C_R   0.397834 0.535750 0.020228 0.317115
C34   C     C_R   0.586894 0.473012 0.984655 0.312313
C35   C     C_R   0.072068 0.416009 0.476454 0.285923
C36   C     C_R   0.952517 0.587435 0.497394 0.315217
C37   C     C_R   0.549060 0.038576 0.682795 -0.215360
C38   C     C_R   0.445846 0.968977 0.319821 -0.226865
C39   C     C_R   0.044558 0.677003 0.548254 -0.209852
C40   C     C_R   0.960094 0.320926 0.450124 -0.307643
C41   C     C_R   0.683400 0.579263 0.001707 -0.268883
C42   C     C_R   0.321121 0.458768 0.943656 -0.244680
C43   C     C_R   0.323472 0.946839 0.456109 -0.242113
C44   C     C_R   0.679869 0.035193 0.552800 -0.250481
C45   C     C_R   0.439564 0.319220 0.976909 -0.237362
C46   C     C_R   0.539679 0.677265 0.064948 -0.225692
C47   C     C_R   0.970948 0.446319 0.316153 -0.191196
C48   C     C_R   0.033223 0.549825 0.680925 -0.257321
H1    H     H_    0.483573 0.025779 0.719963 0.188312
H2    H     H_    0.505788 0.991285 0.281038 0.191254
H3    H     H_    0.056067 0.706203 0.475867 0.178018
H4    H     H_    0.964354 0.287326 0.518731 0.154323
H5    H     H_    0.727826 0.537915 0.956691 0.227188
H6    H     H_    0.288427 0.530751 0.936981 0.224521
H7    H     H_    0.290428 0.944577 0.526479 0.212502
H8    H     H_    0.716068 0.023203 0.486978 0.196343
H9    H     H_    0.497814 0.279891 0.003077 0.207013
H10   H     H_    0.466919 0.706774 0.083002 0.227410
H11   H     H_    0.987220 0.509863 0.278806 0.178066
H12   H     H_    0.030498 0.480951 0.714838 0.191126
C49   C     C_R   0.594431 0.056164 0.724510 -0.202892
C50   C     C_R   0.402432 0.951800 0.275546 -0.203195
C51   C     C_R   0.031305 0.729242 0.602369 -0.207366
C52   C     C_R   0.944504 0.277159 0.405209 -0.129649
C53   C     C_R   0.725442 0.607939 0.036702 -0.175133
C54   C     C_R   0.276803 0.409510 0.935978 -0.238782
C55   C     C_R   0.277633 0.939786 0.407291 -0.219877
C56   C     C_R   0.723660 0.052270 0.596459 -0.159336
C57   C     C_R   0.399597 0.275415 0.955263 -0.194551
C58   C     C_R   0.588016 0.721896 0.073727 -0.191817
C59   C     C_R   0.949798 0.403416 0.274890 -0.176738
C60   C     C_R   0.026075 0.603337 0.730710 -0.204985
C61   C     C_R   0.676309 0.076572 0.675873 0.407818
C62   C     C_R   0.324150 0.925702 0.323319 0.403258
C63   C     C_R   0.008466 0.695286 0.694632 0.399985
C64   C     C_R   0.924001 0.324776 0.323886 0.399970
C65   C     C_R   0.675393 0.674997 0.080408 0.426286
C66   C     C_R   0.324184 0.324491 0.924128 0.447155
O25   O     O_3   0.408312 0.137488 0.585861 -0.636970
C67   C     C_3   0.402995 0.219294 0.513465 0.114637
H13   H     H_    0.346636 0.274886 0.540508 0.189317
H14   H     H_    0.385805 0.217180 0.457904 0.148876
C68   C     C_3   0.491508 0.244346 0.474829 -0.869154
H15   H     H_    0.511400 0.242784 0.530129 0.277956
H16   H     H_    0.547674 0.195825 0.437895 0.237443
H17   H     H_    0.481418 0.313987 0.426599 0.221562
O26   O     O_3   0.605884 0.891881 0.386950 -0.586124
C69   C     C_3   0.665617 0.942820 0.320152 0.124472
H18   H     H_    0.712946 0.945224 0.348283 0.178125
H19   H     H_    0.626679 0.014208 0.290299 0.107845
C70   C     C_3   0.724023 0.898610 0.244649 -0.890313
H20   H     H_    0.679556 0.894574 0.214507 0.265615
H21   H     H_    0.769232 0.939499 0.191212 0.203994
H22   H     H_    0.767138 0.829564 0.272743 0.257016
O27   O     O_3   0.899993 0.676525 0.499344 -0.616818
C71   C     C_3   0.889401 0.733881 0.412905 0.173124
H23   H     H_    0.819842 0.745064 0.412550 0.208947
H24   H     H_    0.940943 0.706032 0.355588 0.125341
C72   C     C_3   0.898137 0.826248 0.394653 -0.816819
H25   H     H_    0.854085 0.854370 0.452886 0.299893
H26   H     H_    0.970233 0.819693 0.381935 0.239332
H27   H     H_    0.877401 0.874660 0.333283 0.190330
O28   O     O_3   0.151597 0.368393 0.423726 -0.607659
C73   C     C_3   0.168437 0.273396 0.460539 0.160307
H28   H     H_    0.107978 0.252555 0.511433 0.097843
H29   H     H_    0.222761 0.245946 0.493533 0.188810
C74   C     C_3   0.203129 0.230771 0.384288 -0.768075
H30   H     H_    0.269203 0.242594 0.337266 0.236900
H31   H     H_    0.213566 0.156217 0.412681 0.250957
H32   H     H_    0.152634 0.261294 0.345859 0.238366
O29   O     O_3   0.677203 0.426121 0.982049 -0.591851
C75   C     C_3   0.679977 0.356971 0.064971 0.154520
H33   H     H_    0.639679 0.311927 0.080149 0.137360
H34   H     H_    0.653095 0.387452 0.121543 0.138110
C76   C     C_3   0.778669 0.297961 0.058916 -0.842487
H35   H     H_    0.820648 0.339664 0.047005 0.264464
H36   H     H_    0.781582 0.242258 0.123113 0.193525
H37   H     H_    0.807334 0.267434 0.002326 0.258920
O30   O     O_3   0.303404 0.560276 0.052620 -0.584656
C77   C     C_3   0.278670 0.511533 0.145267 0.158989
H38   H     H_    0.301691 0.531249 0.185168 0.152366
H39   H     H_    0.308613 0.436470 0.155341 0.130021
C78   C     C_3   0.175063 0.533880 0.181402 -0.805359
H40   H     H_    0.150340 0.512533 0.144575 0.271380
H41   H     H_    0.154867 0.497042 0.254636 0.236727
H42   H     H_    0.142659 0.608322 0.172459 0.247848
O31   O     O_3   0.309504 0.074931 0.534375 -0.627771
C79   C     C_3   0.263384 0.065066 0.628142 0.110980
H43   H     H_    0.250209 0.128103 0.643205 0.186961
H44   H     H_    0.302332 0.005601 0.673105 0.131328
C80   C     C_3   0.171151 0.052151 0.652638 -0.886292
H45   H     H_    0.180776 0.982202 0.655244 0.253673
H46   H     H_    0.128497 0.061810 0.720506 0.199867
H47   H     H_    0.134337 0.102051 0.602385 0.267256
O32   O     O_3   0.673236 0.884340 0.515927 -0.618651
C81   C     C_3   0.662636 0.805378 0.589560 0.187976
H48   H     H_    0.690039 0.746622 0.562183 0.171441
H49   H     H_    0.590344 0.809109 0.632360 0.090500
C82   C     C_3   0.717214 0.786490 0.651037 -0.862206
H50   H     H_    0.688249 0.842343 0.682796 0.238366
H51   H     H_    0.713978 0.721402 0.705444 0.202920
H52   H     H_    0.789941 0.781106 0.611829 0.287527
O33   O     O_3   0.599014 0.377794 0.905513 -0.575786
C83   C     C_3   0.610952 0.429341 0.813422 0.140164
H53   H     H_    0.644887 0.480988 0.795292 0.134021
H54   H     H_    0.544114 0.464458 0.798074 0.128837
C84   C     C_3   0.671296 0.366254 0.754238 -0.839711
H55   H     H_    0.639473 0.313625 0.771091 0.276595
H56   H     H_    0.679505 0.405832 0.681767 0.199615
H57   H     H_    0.739702 0.332945 0.765567 0.254857
O34   O     O_3   0.388142 0.674469 0.031537 -0.596619
C85   C     C_3   0.390982 0.738479 0.945009 0.124984
H58   H     H_    0.369429 0.718795 0.903826 0.140961
H59   H     H_    0.461183 0.744903 0.907956 0.133782
C86   C     C_3   0.325438 0.831221 0.955961 -0.809610
H60   H     H_    0.344710 0.853435 0.996540 0.259683
H61   H     H_    0.328114 0.882361 0.888318 0.190258
H62   H     H_    0.254428 0.827336 0.990856 0.253949
O35   O     O_3   0.852431 0.575937 0.435995 -0.608763
C87   C     C_3   0.778973 0.554514 0.512087 0.101943
H63   H     H_    0.768781 0.580556 0.567189 0.141571
H64   H     H_    0.791138 0.479377 0.538405 0.147848
C88   C     C_3   0.691654 0.599014 0.484184 -0.822182
H65   H     H_    0.698871 0.572764 0.430690 0.278395
H66   H     H_    0.633103 0.583175 0.543679 0.198620
H67   H     H_    0.677675 0.674178 0.457621 0.268468
O36   O     O_3   0.142383 0.402397 0.582032 -0.588427
C89   C     C_3   0.110061 0.330994 0.653579 0.055608
H68   H     H_    0.122175 0.275263 0.628192 0.126734
H69   H     H_    0.035284 0.354672 0.688617 0.118137
C90   C     C_3   0.160515 0.290572 0.723969 -0.828444
H70   H     H_    0.139061 0.340122 0.761294 0.253412
H71   H     H_    0.143379 0.227841 0.773402 0.207055
H72   H     H_    0.235463 0.272636 0.690804 0.266266
O37   O     O_3   0.691620 0.147114 0.684129 -0.621150
C91   C     C_3   0.737086 0.117521 0.749620 0.180419
H73   H     H_    0.768667 0.042358 0.771897 0.141149
H74   H     H_    0.686501 0.140553 0.809532 0.177394
C92   C     C_3   0.811203 0.163383 0.713464 -0.868054
H75   H     H_    0.791952 0.232041 0.665558 0.275857
H76   H     H_    0.821274 0.170047 0.770716 0.193465
H77   H     H_    0.877752 0.122190 0.678256 0.273481
O38   O     O_3   0.285388 0.901244 0.282826 -0.575603
C93   C     C_3   0.323915 0.806382 0.294774 0.105488
H78   H     H_    0.305710 0.768116 0.368099 0.126478
H79   H     H_    0.399899 0.786936 0.265479 0.127959
C94   C     C_3   0.286203 0.778881 0.246285 -0.766735
H80   H     H_    0.303789 0.815790 0.172822 0.259827
H81   H     H_    0.316423 0.704388 0.254788 0.207626
H82   H     H_    0.210589 0.795570 0.275027 0.244247
O39   O     O_3   0.968109 0.751915 0.750209 -0.570300
C95   C     C_3   0.872063 0.778809 0.769049 0.130806
H83   H     H_    0.846575 0.718776 0.796964 0.113990
H84   H     H_    0.851577 0.824660 0.706633 0.132580
C96   C     C_3   0.826500 0.830546 0.839291 -0.807390
H85   H     H_    0.852863 0.888971 0.815056 0.246008
H86   H     H_    0.751213 0.856063 0.851470 0.214208
H87   H     H_    0.841929 0.784753 0.903782 0.249837
O40   O     O_3   0.849632 0.317661 0.314294 -0.606393
C97   C     C_3   0.875870 0.264976 0.256035 0.168226
H88   H     H_    0.949625 0.224189 0.240098 0.147657
H89   H     H_    0.861110 0.311107 0.191290 0.176173
C98   C     C_3   0.816633 0.202196 0.297835 -0.838801
H90   H     H_    0.744872 0.242995 0.297701 0.240949
H91   H     H_    0.842975 0.153184 0.258371 0.187925
H92   H     H_    0.816829 0.163866 0.368784 0.288651
O41   O     O_3   0.695898 0.666774 0.154901 -0.610942
C99   C     C_3   0.730346 0.736740 0.137489 0.134507
H93   H     H_    0.672816 0.794678 0.159185 0.164913
H94   H     H_    0.768131 0.761590 0.064869 0.144246
C100  C     C_3   0.795766 0.700334 0.193301 -0.782505
H95   H     H_    0.843085 0.632373 0.186927 0.291717
H96   H     H_    0.837074 0.746801 0.168589 0.187487
H97   H     H_    0.756833 0.693460 0.265982 0.263224
O42   O     O_3   0.294188 0.288178 0.886410 -0.585093
C101  C     C_3   0.322419 0.324529 0.790752 0.062502
H98   H     H_    0.355765 0.378899 0.764670 0.116133
H99   H     H_    0.261240 0.356816 0.766671 0.169395
C102  C     C_3   0.388581 0.248117 0.748051 -0.757759
H100  H     H_    0.358666 0.191872 0.773412 0.270758
H101  H     H_    0.403339 0.274697 0.673303 0.219863
H102  H     H_    0.453618 0.221582 0.765106 0.235678

loop_
_geom_bond_atom_site_label_1
_geom_bond_atom_site_label_2
_geom_bond_distance
_ccdc_geom_bond_type
C38   H2    1.077969 S    
C79   H44   1.116799 S    
O32   C81   1.417292 S    
O28   C73   1.407671 S    
C48   C60   1.417053 A    
O26   C69   1.420281 S    
C82   H51   1.110488 S    
C82   H50   1.110060 S    
C47   C59   1.414800 A    
O1    C7    1.253387 A    
C92   H77   1.105301 S    
C73   C74   1.522984 S    
C76   H35   1.109538 S    
C23   C29   1.432642 A    
C35   O28   1.386831 S    
C44   C56   1.415188 A    
C24   C30   1.404397 A    
O33   C83   1.413406 S    
O21   C9    1.288496 A    
C94   H82   1.110878 S    
C43   C55   1.415027 A    
C57   C66   1.375317 A    
C65   O41   1.385625 S    
C99   C100  1.520986 S    
C47   H11   1.083475 S    
C102  H100  1.111274 S    
C6    C45   1.405200 A    
O6    Zn6   2.043938 S    
C60   C63   1.360974 A    
O10   C16   1.249791 A    
C40   C52   1.416223 A    
C62   O38   1.385675 S    
C100  H95   1.105059 S    
O12   Zn1   2.030123 S    
C39   C51   1.418055 A    
C83   H53   1.115448 S    
C23   C34   1.430966 A    
C91   H74   1.110370 S    
C86   H61   1.110685 S    
C3    C48   1.401259 A    
C41   C53   1.408098 A    
C24   C33   1.410151 A    
O3    C9    1.247187 A    
C56   C61   1.379200 A    
C99   H94   1.114321 S    
O34   C85   1.412906 S    
O9    C15   1.232136 A    
C96   H87   1.108802 S    
C70   H21   1.110424 S    
C97   C98   1.523101 S    
O2    C8    1.237548 A    
C4    C47   1.388108 A    
C90   H70   1.107564 S    
C25   C31   1.412123 A    
C29   O34   1.378072 S    
C67   H13   1.109658 S    
C33   O30   1.381819 S    
C70   H22   1.107508 S    
O12   C18   1.249640 A    
C79   C80   1.523698 S    
C51   C63   1.366066 A    
C16   C59   1.436988 S    
C69   H18   1.111135 S    
O1    Zn1   2.039933 S    
O31   C79   1.420546 S    
C38   C50   1.419660 A    
O2    Zn2   2.039933 S    
C84   H56   1.110242 S    
C77   C78   1.520350 S    
C5    C46   1.415889 A    
O18   C14   1.282545 A    
C89   H68   1.103431 S    
C21   C27   1.418036 A    
C3    C21   1.504181 S    
C78   H41   1.109916 S    
O4    C10   1.255077 A    
C98   H90   1.111042 S    
C46   H10   1.068852 S    
O15   Zn3   2.073273 S    
C87   C88   1.520486 S    
C68   H17   1.110291 S    
C11   C50   1.443736 S    
C84   H57   1.109968 S    
C8    C51   1.424395 S    
C54   C66   1.369681 A    
O22   C10   1.273558 A    
O9    Zn4   2.048404 S    
C88   H65   1.110832 S    
O41   C99   1.407999 S    
C53   C65   1.381867 A    
C81   H49   1.118753 S    
C30   O33   1.380665 S    
C90   H71   1.110592 S    
C75   C76   1.520087 S    
C81   H48   1.109521 S    
O35   C87   1.410517 S    
O8    C14   1.243142 A    
C28   O35   1.382348 S    
C45   C57   1.415738 A    
C80   H47   1.107629 S    
C80   H46   1.110332 S    
O40   C97   1.413857 S    
O13   Zn1   2.056907 S    
C92   H75   1.109977 S    
C41   H5    1.073644 S    
C6    C42   1.398117 A    
C3    C39   1.403444 A    
C74   H32   1.110038 S    
C101  H99   1.105521 S    
O22   Zn3   2.055943 S    
C102  H101  1.109258 S    
O17   Zn5   2.062048 S    
C76   H36   1.109304 S    
C31   O26   1.382736 S    
O18   Zn6   2.062050 S    
C2    C43   1.402551 A    
C4    C22   1.489961 S    
C37   H1    1.083761 S    
C10   C53   1.438280 S    
C99   H93   1.108791 S    
C18   C55   1.446177 S    
C27   C35   1.417245 A    
O42   C101  1.418742 S    
C6    C24   1.500982 S    
C91   H73   1.112319 S    
C86   H62   1.110645 S    
O4    Zn4   2.022816 S    
C95   C96   1.518195 S    
C88   H66   1.110511 S    
C94   H80   1.110670 S    
O17   C13   1.288226 A    
C66   O42   1.382550 S    
O3    Zn3   2.022816 S    
C20   C26   1.422782 A    
C100  H96   1.109314 S    
C69   C70   1.510999 S    
C79   H43   1.109352 S    
C95   H84   1.113701 S    
C87   H63   1.114649 S    
C26   O31   1.390169 S    
O39   C95   1.413939 S    
C74   H31   1.110108 S    
O14   C18   1.289589 A    
O36   C89   1.421443 S    
O15   C15   1.287467 A    
O38   C93   1.411606 S    
C88   H67   1.111066 S    
O16   C16   1.281701 A    
O10   Zn3   2.048404 S    
C37   C49   1.415942 A    
C96   H85   1.109058 S    
O7    C13   1.257869 A    
C4    C40   1.396695 A    
O11   Zn2   2.030123 S    
C44   H8    1.083080 S    
C78   H42   1.110591 S    
C97   H89   1.109417 S    
C85   H58   1.115438 S    
C98   H91   1.110237 S    
C83   C84   1.514441 S    
C43   H7    1.077406 S    
C70   H20   1.107911 S    
C42   H6    1.080178 S    
C22   C28   1.407242 A    
O20   Zn5   2.072685 S    
O19   C11   1.285204 A    
C1    C19   1.494682 S    
C69   H19   1.114886 S    
C12   C49   1.437816 S    
C45   H9    1.082631 S    
O16   Zn4   2.073273 S    
O14   Zn2   2.056907 S    
O5    Zn5   2.043937 S    
O23   Zn2   2.063598 S    
O27   C71   1.419917 S    
C82   H52   1.109068 S    
C77   H39   1.115267 S    
O24   Zn1   2.063599 S    
C94   H81   1.110611 S    
C25   O32   1.382758 S    
C9    C54   1.438795 S    
C5    C23   1.534737 S    
C76   H37   1.110688 S    
C71   H24   1.116930 S    
O21   Zn4   2.055944 S    
C15   C60   1.425820 S    
C28   C36   1.421340 A    
C68   H15   1.110097 S    
C1    C37   1.389487 A    
O20   C12   1.280309 A    
C59   C64   1.387304 A    
O37   C91   1.415608 S    
C101  H98   1.120378 S    
C52   C64   1.383624 A    
C58   C65   1.374636 A    
C87   H64   1.114289 S    
C19   C32   1.407257 A    
C85   H59   1.114321 S    
C27   O36   1.384439 S    
C93   H78   1.114443 S    
C26   C32   1.425536 A    
C61   O37   1.395251 S    
C49   C61   1.388286 A    
C14   C57   1.437226 S    
C93   C94   1.521139 S    
C73   H29   1.106464 S    
C64   O40   1.392282 S    
C5    C41   1.414041 A    
C73   H28   1.108095 S    
C90   H72   1.108533 S    
C46   C58   1.408379 A    
C7    C52   1.448417 S    
C74   H30   1.110681 S    
C85   C86   1.520941 S    
C29   C33   1.407403 A    
C71   C72   1.522930 S    
C36   O27   1.392464 S    
C30   C34   1.404049 A    
C100  H97   1.110569 S    
O7    Zn6   2.028161 S    
C72   H27   1.109862 S    
C72   H25   1.108846 S    
O8    Zn5   2.028159 S    
O23   C7    1.288211 A    
C80   H45   1.108710 S    
O30   C77   1.411669 S    
O24   C8    1.286856 A    
C91   C92   1.528642 S    
C86   H60   1.109477 S    
C2    C20   1.513439 S    
C32   O25   1.385092 S    
C48   H12   1.076428 S    
C71   H23   1.110474 S    
C63   O39   1.388934 S    
O5    C11   1.243593 A    
C96   H86   1.110340 S    
C83   H54   1.114861 S    
O6    C12   1.250515 A    
O11   C17   1.248643 A    
C89   C90   1.517171 S    
C93   H79   1.115374 S    
C19   C25   1.401552 A    
C2    C38   1.404415 A    
C97   H88   1.114326 S    
C40   H4    1.081760 S    
C98   H92   1.106225 S    
C67   H14   1.114856 S    
C102  H102  1.109873 S    
C55   C62   1.374509 A    
C39   H3    1.081116 S    
C50   C62   1.379555 A    
C42   C54   1.406849 A    
O25   C67   1.417096 S    
C1    C44   1.396264 A    
C81   C82   1.523887 S    
C84   H55   1.110354 S    
C34   O29   1.378634 S    
C67   C68   1.527768 S    
C75   H33   1.115492 S    
C20   C31   1.419495 A    
C92   H76   1.110566 S    
C17   C56   1.437154 S    
C89   H69   1.116488 S    
C72   H26   1.107856 S    
C78   H40   1.110228 S    
O29   C75   1.411737 S    
O19   Zn6   2.072686 S    
C95   H83   1.115743 S    
C21   C36   1.417220 A    
C13   C58   1.459281 S    
C75   H34   1.114096 S    
C22   C35   1.407891 A    
O13   C17   1.285333 A    
C77   H38   1.114556 S    
C68   H16   1.110169 S    
C101  C102  1.521484 S    
