data_mof_unit_5844.cif
_audit_creation_date              2012-10-26T19:21:07-0400
_audit_creation_method            fapswitch 2.2
_symmetry_space_group_name_H-M    P1
_symmetry_Int_Tables_number       1
_space_group_crystal_system       triclinic
_cell_length_a                    9.79582
_cell_length_b                    11.037469
_cell_length_c                    13.525797
_cell_angle_alpha                 94.633095
_cell_angle_beta                  81.640994
_cell_angle_gamma                 111.866624
_cell_volume                      1342.2240404

loop_
_atom_site_label
_atom_site_type_symbol
_atom_type_description
_atom_site_fract_x
_atom_site_fract_y
_atom_site_fract_z
_atom_type_partial_charge
C1    C     C_R   0.557191 0.745903 0.507655 0.537571
C2    C     C_R   0.377687 0.495492 0.800960 -0.048997
C3    C     C_2   0.589815 0.885712 0.511747 -0.148590
C4    C     C_R   0.423679 0.495572 0.691026 0.562328
C5    C     C_2   0.481659 0.928879 0.504292 -0.148057
C6    C     C_2   0.406307 0.113491 0.490787 0.205276
C7    C     C_2   0.511047 0.067893 0.504406 -0.133029
C8    C     C_2   0.921334 0.489554 0.491597 0.037561
C9    C     C_2   0.082464 0.519175 0.500933 0.128926
C10   C     C_R   0.442273 0.253928 0.492959 0.574153
C11   C     C_R   0.578704 0.518870 0.310063 0.544203
C12   C     C_R   0.443479 0.509319 0.971481 -0.022279
C13   C     C_R   0.813258 0.598618 0.059265 -0.132617
C14   C     C_R   0.624614 0.543566 0.202659 0.002471
C15   C     C_R   0.225289 0.438518 0.839635 0.249383
C16   C     C_R   0.184069 0.406866 0.940151 0.271341
C17   C     C_R   0.292908 0.437941 0.004274 -0.155478
C18   C     C_3   0.118687 0.290098 0.337260 0.083049
C19   C     C_3   0.018437 0.150842 0.310390 -0.272794
C20   C     C_3   0.097769 0.086538 0.229746 -0.477646
C21   C     C_3   0.387241 0.685285 0.168814 0.003587
C22   C     C_3   0.469171 0.788735 0.243854 -0.261884
C23   C     C_R   0.486554 0.539738 0.869128 -0.032010
C24   C     C_3   0.453250 0.919125 0.232362 -0.481050
C25   C     C_3   0.002623 0.230637 0.021887 0.012953
C26   C     C_3   0.849636 0.135269 0.000597 -0.231466
C27   C     C_3   0.809440 0.004063 0.048984 -0.497257
C28   C     C_R   0.554160 0.546022 0.037448 0.034312
C29   C     C_R   0.705421 0.588695 0.997957 0.017864
C30   C     C_R   0.746499 0.627659 0.899396 -0.110993
C31   C     C_R   0.638197 0.613494 0.838686 -0.097642
C32   C     C_R   0.520199 0.548176 0.142234 0.244406
C33   C     C_R   0.771403 0.568529 0.160093 -0.185797
Cl1   Cl    Cl    0.223882 0.009587 0.471222 -0.668688
Cl2   Cl    Cl    0.078565 0.396222 0.765258 -0.532472
Cu1   Cu    Cu3+1 0.362000 0.479240 0.482530 1.055565
Cu2   Cu    Cu3+1 0.638000 0.520760 0.517470 0.952039
H1    H     H_    0.854761 0.570828 0.205527 0.139896
H2    H     H_    0.676772 0.661604 0.768178 0.152594
H3    H     H_    0.622245 0.134735 0.515401 0.142698
H4    H     H_    0.232606 0.292059 0.334075 0.208712
H5    H     H_    0.117248 0.358071 0.281207 0.126340
H6    H     H_    0.983443 0.089949 0.377792 0.231811
H7    H     H_    0.917049 0.153171 0.284203 0.125579
H8    H     H_    0.145402 0.149098 0.163804 0.119593
H9    H     H_    0.018407 0.990614 0.206054 0.151868
H10   H     H_    0.189122 0.070195 0.259568 0.191228
H11   H     H_    0.269417 0.676674 0.178631 0.152766
H12   H     H_    0.370356 0.860178 0.496912 0.208163
H13   H     H_    0.432750 0.718088 0.091089 0.125947
H14   H     H_    0.422289 0.754668 0.320653 0.206175
H15   H     H_    0.588755 0.802995 0.232599 0.150144
H16   H     H_    0.493539 0.953289 0.154768 0.140082
H17   H     H_    0.519805 0.993594 0.284147 0.163977
H18   H     H_    0.335330 0.909066 0.250580 0.179480
H19   H     H_    0.000780 0.250127 0.103817 0.126859
H20   H     H_    0.084793 0.183390 0.994987 0.122692
H21   H     H_    0.764643 0.177910 0.029623 0.176055
H22   H     H_    0.849126 0.118964 0.918444 0.207214
H23   H     H_    0.701775 0.953077 0.519882 0.133457
H24   H     H_    0.894653 0.960765 0.022930 0.153480
H25   H     H_    0.701234 0.935327 0.028055 0.148715
H26   H     H_    0.800182 0.016756 0.131644 0.146716
H27   H     H_    0.141588 0.606323 0.542961 0.107311
H28   H     H_    0.867421 0.415316 0.437579 0.170622
H29   H     H_    0.899545 0.624185 0.592973 0.217681
H30   H     H_    0.862401 0.673928 0.870341 0.126991
H31   H     H_    0.929085 0.627316 0.028843 0.142766
H32   H     H_    0.257210 0.403356 0.079439 0.157808
N1    N     N_2   0.845330 0.551960 0.543750 -0.355322
N2    N     N_2   0.154690 0.448120 0.456210 -0.056820
O1    O     O_R   0.426290 0.668220 0.490680 -0.541330
O2    O     O_3   0.388935 0.561005 0.186879 -0.585672
O3    O     O_3   0.034175 0.349600 0.974778 -0.525640
O4    O     O_R   0.659360 0.703290 0.520190 -0.484114
O5    O     O_R   0.326580 0.473880 0.629020 -0.429671
O6    O     O_R   0.559660 0.508940 0.658530 -0.503215
O7    O     O_R   0.340640 0.296710 0.479810 -0.439658
O8    O     O_R   0.573710 0.331780 0.509320 -0.526582
O9    O     O_R   0.440340 0.491060 0.341470 -0.482072
O10   O     O_R   0.673420 0.526120 0.370980 -0.518959
O11   O     O_3   0.066320 0.324813 0.433698 -0.484606

loop_
_geom_bond_atom_site_label_1
_geom_bond_atom_site_label_2
_ccdc_geom_bond_type
C17   H32   S    
C9    H27   S    
C19   C20   S    
C25   H19   S    
C5    H12   S    
C14   C33   A    
C10   O7    A    
C11   O10   A    
C24   H18   S    
Cu2   O8    S    
C12   C23   A    
C26   C27   S    
C30   H30   S    
C12   C28   A    
C16   O3    S    
C13   C29   A    
C28   C29   A    
C18   C19   S    
C18   H5    S    
C30   C31   A    
C11   C14   S    
C24   H17   S    
C15   C16   A    
C21   O2    S    
C25   O3    S    
C27   H24   S    
C8    C9    S    
C12   C17   A    
C7    H3    S    
Cu1   O5    S    
C26   H22   S    
C20   H8    S    
Cu1   N2    S    
N2    O11   S    
C3    H23   S    
Cu2   O4    S    
C8    H28   S    
Cu2   N1    S    
Cu2   O10   S    
C25   H20   S    
C15   Cl2   S    
C21   H13   S    
C19   H6    S    
C1    O1    A    
C1    O4    A    
C28   C32   A    
Cu1   O9    S    
C18   H4    S    
C32   O2    S    
C5    C7    S    
C16   C17   A    
C25   C26   S    
Cu2   O6    S    
C6    Cl1   S    
C1    C3    S    
C23   C31   A    
C2    C4    S    
C13   C33   A    
C29   C30   A    
C27   H25   S    
C2    C15   A    
C26   H21   S    
C27   H26   S    
C22   C24   S    
C19   H7    S    
C22   H15   S    
Cu1   Cu2   S    
C9    N2    D    
C14   C32   A    
C3    C5    D    
C6    C10   S    
C10   O8    A    
C6    C7    D    
C8    N1    D    
C33   H1    S    
C21   H11   S    
C24   H16   S    
C4    O6    A    
Cu1   O7    S    
H29   N1    S    
C18   O11   S    
C31   H2    S    
C4    O5    A    
C20   H10   S    
C11   O9    A    
C2    C23   A    
C21   C22   S    
C20   H9    S    
Cu1   O1    S    
C22   H14   S    
C13   H31   S    
