data_mof_unit_33152.cif
_audit_creation_date              2012-12-11T16:28:06-0500
_audit_creation_method            fapswitch 2.2
_symmetry_space_group_name_H-M    P1
_symmetry_Int_Tables_number       1
_space_group_crystal_system       monoclinic
_cell_length_a                    30.42351
_cell_length_b                    22.6062
_cell_length_c                    18.038451
_cell_angle_alpha                 90.0
_cell_angle_beta                  122.505427
_cell_angle_gamma                 90.0
_cell_volume                      10462.5875917

loop_
_atom_site_label
_atom_site_type_symbol
_atom_type_description
_atom_site_fract_x
_atom_site_fract_y
_atom_site_fract_z
_atom_type_partial_charge
C1    C     C_R   0.540694 0.591120 0.733647 -0.202975
C2    C     C_R   0.680319 0.353523 0.420372 -0.170209
C3    C     C_R   0.748827 0.735317 0.885433 -0.156509
C4    C     C_R   0.267612 0.820126 0.954750 -0.166931
C5    C     C_R   0.751173 0.235317 0.114567 -0.156510
C6    C     C_R   0.732388 0.820126 0.045250 -0.166931
C7    C     C_R   0.248827 0.235317 0.885433 -0.156510
C8    C     C_R   0.809176 0.289911 0.960479 -0.102323
C9    C     C_R   0.199863 0.748602 0.085620 -0.115143
C10   C     C_R   0.190824 0.289910 0.039521 -0.102323
C11   C     C_R   0.800137 0.748602 0.914380 -0.115143
C12   C     C_R   0.309176 0.789910 0.960479 -0.102323
C13   C     C_R   0.660938 0.696849 0.439017 -0.168369
C14   C     C_R   0.699863 0.248602 0.085620 -0.115143
C15   C     C_R   0.690824 0.789910 0.039521 -0.102324
C16   C     C_R   0.300137 0.248602 0.914380 -0.115142
C17   C     C_R   0.582855 0.603023 0.425528 0.483274
C18   C     C_R   0.404984 0.419700 0.575474 0.482651
C19   C     C_R   0.417145 0.603023 0.574471 0.483274
C20   C     C_R   0.595016 0.419700 0.424526 0.482651
C21   C     C_R   0.082855 0.103023 0.425528 0.483274
C22   C     C_R   0.904984 0.919701 0.575474 0.482651
C23   C     C_R   0.917145 0.103023 0.574471 0.483275
C24   C     C_R   0.319681 0.353523 0.579628 -0.170209
C25   C     C_R   0.095016 0.919701 0.424526 0.482652
C26   C     C_R   0.385322 0.589062 0.262659 0.474672
C27   C     C_R   0.614740 0.411789 0.738596 0.459055
C28   C     C_R   0.614678 0.589062 0.737341 0.474672
C29   C     C_R   0.385260 0.411789 0.261404 0.459055
C30   C     C_R   0.885322 0.089062 0.262659 0.474674
C31   C     C_R   0.114740 0.911790 0.738596 0.459055
C32   C     C_R   0.114678 0.089062 0.737341 0.474672
C33   C     C_R   0.885260 0.911790 0.261404 0.459055
C34   C     C_R   0.590765 0.613202 0.777639 0.100931
C35   C     C_R   0.839062 0.196849 0.560983 -0.168368
C36   C     C_R   0.407902 0.393740 0.214802 0.078704
C37   C     C_R   0.409234 0.613202 0.222361 0.100931
C38   C     C_R   0.592098 0.393740 0.785198 0.078703
C39   C     C_R   0.090765 0.113202 0.777639 0.100930
C40   C     C_R   0.907902 0.893741 0.214802 0.078704
C41   C     C_R   0.909234 0.113202 0.222361 0.100931
C42   C     C_R   0.092098 0.893741 0.785198 0.078704
C43   C     C_R   0.618869 0.635955 0.496760 0.035975
C44   C     C_R   0.356635 0.404104 0.504833 -0.004263
C45   C     C_R   0.381130 0.635955 0.503239 0.035975
C46   C     C_R   0.180319 0.853523 0.420372 -0.170209
C47   C     C_R   0.643365 0.404104 0.495167 -0.004263
C48   C     C_R   0.118869 0.135955 0.496760 0.035975
C49   C     C_R   0.856635 0.904104 0.504833 -0.004263
C50   C     C_R   0.881131 0.135955 0.503239 0.035975
C51   C     C_R   0.143365 0.904104 0.495167 -0.004263
C52   C     C_R   0.332824 0.792964 0.457712 -0.351684
C53   C     C_R   0.781890 0.380684 0.557073 -0.347222
C54   C     C_R   0.667176 0.792964 0.542287 -0.351684
C55   C     C_R   0.218110 0.380684 0.442927 -0.347222
C56   C     C_R   0.832824 0.292964 0.457712 -0.351683
C57   C     C_R   0.160938 0.196849 0.439017 -0.168369
C58   C     C_R   0.281890 0.880685 0.557073 -0.347222
C59   C     C_R   0.167176 0.292964 0.542287 -0.351683
C60   C     C_R   0.718110 0.880685 0.442927 -0.347222
C61   C     C_R   0.357940 0.740965 0.457815 0.539440
C62   C     C_R   0.739722 0.406528 0.556198 0.523789
C63   C     C_R   0.642060 0.740965 0.542184 0.539440
C64   C     C_R   0.260278 0.406528 0.443802 0.523789
C65   C     C_R   0.857940 0.240965 0.457816 0.539441
C66   C     C_R   0.239722 0.906528 0.556198 0.523789
C67   C     C_R   0.142060 0.240965 0.542184 0.539439
C68   C     C_R   0.819681 0.853523 0.579628 -0.170209
C69   C     C_R   0.760278 0.906528 0.443802 0.523789
C70   C     C_R   0.358681 0.691951 0.506714 0.045085
C71   C     C_R   0.688616 0.389042 0.490458 0.077892
C72   C     C_R   0.641319 0.691951 0.493286 0.045084
C73   C     C_R   0.311384 0.389042 0.509541 0.077892
C74   C     C_R   0.858681 0.191950 0.506714 0.045084
C75   C     C_R   0.188616 0.889042 0.490458 0.077892
C76   C     C_R   0.141319 0.191950 0.493286 0.045085
C77   C     C_R   0.811384 0.889042 0.509541 0.077892
C78   C     C_R   0.316047 0.749058 0.562935 -0.182458
C79   C     C_R   0.722220 0.330275 0.420076 -0.184453
C80   C     C_R   0.683953 0.749058 0.437065 -0.182457
C81   C     C_R   0.458739 0.413901 0.262743 -0.155106
C82   C     C_R   0.277780 0.330275 0.579924 -0.184453
C83   C     C_R   0.816047 0.249057 0.562935 -0.182459
C84   C     C_R   0.222220 0.830275 0.420076 -0.184453
C85   C     C_R   0.183953 0.249058 0.437065 -0.182459
C86   C     C_R   0.777780 0.830274 0.579924 -0.184453
C87   C     C_R   0.311295 0.796249 0.509023 0.112531
C88   C     C_R   0.772730 0.340740 0.491262 0.114170
C89   C     C_R   0.688705 0.796249 0.490977 0.112531
C90   C     C_R   0.227270 0.340740 0.508738 0.114170
C91   C     C_R   0.811295 0.296249 0.509023 0.112531
C92   C     C_R   0.459306 0.591120 0.266353 -0.202975
C93   C     C_R   0.272730 0.840740 0.491262 0.114170
C94   C     C_R   0.188705 0.296249 0.490977 0.112532
C95   C     C_R   0.727270 0.840740 0.508738 0.114170
C96   C     C_R   0.387396 0.660087 0.155282 -0.152227
C97   C     C_R   0.617796 0.365353 0.873097 -0.191964
C98   C     C_R   0.612604 0.660087 0.844717 -0.152227
C99   C     C_R   0.382204 0.365353 0.126903 -0.191965
C100  C     C_R   0.887396 0.160088 0.155283 -0.152227
C101  C     C_R   0.117796 0.865353 0.873097 -0.191964
C102  C     C_R   0.112604 0.160087 0.844717 -0.152227
C103  C     C_R   0.541261 0.413901 0.737257 -0.155105
C104  C     C_R   0.882204 0.865353 0.126903 -0.191965
C105  C     C_R   0.372969 0.709493 0.023482 0.355891
C106  C     C_R   0.617449 0.293882 0.975065 0.362577
C107  C     C_R   0.627031 0.709493 0.976518 0.355892
C108  C     C_R   0.382550 0.293883 0.024934 0.362579
C109  C     C_R   0.872969 0.209494 0.023483 0.355891
C110  C     C_R   0.117450 0.793883 0.975066 0.362579
C111  C     C_R   0.127031 0.209493 0.976518 0.355891
C112  C     C_R   0.882550 0.793883 0.024934 0.362580
C113  C     C_R   0.397917 0.664370 0.088300 0.336794
C114  C     C_R   0.040693 0.091120 0.733647 -0.202975
C115  C     C_R   0.589705 0.329741 0.898563 0.335817
C116  C     C_R   0.602083 0.664370 0.911700 0.336792
C117  C     C_R   0.410295 0.329741 0.101436 0.335816
C118  C     C_R   0.897917 0.164371 0.088301 0.336792
C119  C     C_R   0.089705 0.829741 0.898564 0.335815
C120  C     C_R   0.102083 0.164370 0.911700 0.336794
C121  C     C_R   0.910295 0.829741 0.101436 0.335815
C122  C     C_R   0.355316 0.702224 0.160507 0.413084
C123  C     C_R   0.672175 0.369059 0.929423 0.443107
C124  C     C_R   0.644684 0.702224 0.839493 0.413084
C125  C     C_R   0.958739 0.913901 0.262742 -0.155106
C126  C     C_R   0.327825 0.369059 0.070577 0.443106
C127  C     C_R   0.855316 0.202225 0.160507 0.413084
C128  C     C_R   0.172175 0.869059 0.929423 0.443107
C129  C     C_R   0.144684 0.202224 0.839493 0.413083
C130  C     C_R   0.827825 0.869059 0.070577 0.443106
C131  C     C_R   0.322494 0.737037 0.087595 -0.093035
C132  C     C_R   0.698578 0.322580 0.987379 -0.098088
C133  C     C_R   0.677506 0.737037 0.912405 -0.093035
C134  C     C_R   0.301422 0.322580 0.012620 -0.098088
C135  C     C_R   0.822494 0.237037 0.087596 -0.093035
C136  C     C_R   0.959306 0.091120 0.266353 -0.202976
C137  C     C_R   0.198578 0.822580 0.987379 -0.098087
C138  C     C_R   0.177506 0.237037 0.912405 -0.093035
C139  C     C_R   0.801421 0.822580 0.012620 -0.098087
C140  C     C_R   0.335598 0.746119 0.024288 -0.041153
C141  C     C_R   0.672014 0.289438 0.017896 -0.038235
C142  C     C_R   0.664402 0.746119 0.975712 -0.041153
C143  C     C_R   0.327985 0.289439 0.982103 -0.038235
C144  C     C_R   0.835598 0.246120 0.024288 -0.041153
C145  C     C_R   0.172015 0.789439 0.017897 -0.038235
C146  C     C_R   0.164402 0.246119 0.975712 -0.041153
C147  C     C_R   0.041261 0.913901 0.737257 -0.155106
C148  C     C_R   0.827985 0.789439 0.982103 -0.038235
C149  C     C_R   0.275601 0.760722 0.073969 0.147148
C150  C     C_R   0.748479 0.304110 0.008176 0.132751
C151  C     C_R   0.724399 0.760721 0.926031 0.147147
C152  C     C_R   0.251520 0.304110 0.991824 0.132751
C153  C     C_R   0.775600 0.260722 0.073969 0.147148
C154  C     C_R   0.248479 0.804110 0.008176 0.132751
C155  C     C_R   0.224399 0.260722 0.926031 0.147147
C156  C     C_R   0.751520 0.804110 0.991824 0.132751
C157  C     C_R   0.628120 0.606829 0.571471 -0.174025
C158  C     C_R   0.339062 0.696849 0.560983 -0.168369
C159  C     C_R   0.356723 0.417216 0.430056 -0.166807
C160  C     C_R   0.371880 0.606829 0.428529 -0.174024
C161  C     C_R   0.643277 0.417216 0.569944 -0.166807
C162  C     C_R   0.128120 0.106829 0.571471 -0.174024
C163  C     C_R   0.856723 0.917216 0.430056 -0.166807
C164  C     C_R   0.871880 0.106829 0.428529 -0.174024
C165  C     C_R   0.143276 0.917216 0.569944 -0.166807
C166  C     C_R   0.767612 0.320127 0.954750 -0.166931
C167  C     C_R   0.251173 0.735317 0.114567 -0.156510
C168  C     C_R   0.232388 0.320126 0.045250 -0.166931
H1    H     H_    0.747283 0.351009 0.901050 0.227099
H2    H     H_    0.821430 0.388371 0.611734 0.147693
H3    H     H_    0.818746 0.723899 0.887110 0.190461
H4    H     H_    0.319428 0.799859 0.912866 0.190505
H5    H     H_    0.681254 0.223899 0.112889 0.190461
H6    H     H_    0.680572 0.799859 0.087134 0.190505
H7    H     H_    0.318746 0.223899 0.887110 0.190461
H8    H     H_    0.671693 0.829736 0.584394 0.149366
H9    H     H_    0.178570 0.388371 0.388266 0.147694
H10   H     H_    0.828307 0.329736 0.415606 0.149366
H11   H     H_    0.321430 0.888371 0.611734 0.147693
H12   H     H_    0.171693 0.329736 0.584394 0.149366
H13   H     H_    0.678570 0.888371 0.388266 0.147694
H14   H     H_    0.514305 0.595805 0.755193 0.224089
H15   H     H_    0.484856 0.415841 0.239940 0.202868
H16   H     H_    0.485695 0.595805 0.244807 0.224089
H17   H     H_    0.268465 0.699360 0.161022 0.216047
H18   H     H_    0.515144 0.415840 0.760060 0.202868
H19   H     H_    0.014305 0.095805 0.755193 0.224088
H20   H     H_    0.984856 0.915841 0.239940 0.202867
H21   H     H_    0.985695 0.095806 0.244807 0.224089
H22   H     H_    0.015144 0.915841 0.760060 0.202867
H23   H     H_    0.675372 0.452786 0.909039 0.341243
H24   H     H_    0.394233 0.704520 0.287796 0.342193
H25   H     H_    0.324627 0.452786 0.090961 0.341242
H26   H     H_    0.605767 0.704520 0.712204 0.342193
H27   H     H_    0.175373 0.952786 0.909039 0.341243
H28   H     H_    0.252717 0.351009 0.098950 0.227099
H29   H     H_    0.894233 0.204519 0.287796 0.342193
H30   H     H_    0.824627 0.952786 0.090961 0.341242
H31   H     H_    0.105767 0.204519 0.712204 0.342193
H32   H     H_    0.522941 0.328184 0.887695 0.333856
H33   H     H_    0.451825 0.645499 0.065717 0.335392
H34   H     H_    0.477059 0.328186 0.112303 0.333854
H35   H     H_    0.548175 0.645499 0.934282 0.335393
H36   H     H_    0.022941 0.828186 0.887696 0.333854
H37   H     H_    0.951826 0.145500 0.065719 0.335392
H38   H     H_    0.977059 0.828186 0.112303 0.333854
H39   H     H_    0.731535 0.699360 0.838978 0.216047
H40   H     H_    0.048174 0.145499 0.934282 0.335392
H41   H     H_    0.389976 0.676864 0.942068 0.337158
H42   H     H_    0.557594 0.246962 0.952109 0.340753
H43   H     H_    0.610024 0.676864 0.057931 0.337159
H44   H     H_    0.442407 0.246964 0.047889 0.340754
H45   H     H_    0.889977 0.176865 0.942070 0.337160
H46   H     H_    0.057593 0.746964 0.952111 0.340754
H47   H     H_    0.110024 0.176864 0.057931 0.337159
H48   H     H_    0.942407 0.746964 0.047889 0.340755
H49   H     H_    0.655550 0.620431 0.638061 0.191593
H50   H     H_    0.247283 0.851009 0.901050 0.227099
H51   H     H_    0.323084 0.416917 0.364198 0.196182
H52   H     H_    0.344450 0.620431 0.361939 0.191592
H53   H     H_    0.676916 0.416917 0.635802 0.196182
H54   H     H_    0.155550 0.120431 0.638061 0.191592
H55   H     H_    0.823084 0.916917 0.364198 0.196182
H56   H     H_    0.844450 0.120431 0.361939 0.191592
H57   H     H_    0.176916 0.916917 0.635802 0.196182
H58   H     H_    0.565672 0.565717 0.318521 0.308222
H59   H     H_    0.441916 0.462895 0.683545 0.296931
H60   H     H_    0.434328 0.565717 0.681479 0.308222
H61   H     H_    0.768465 0.199360 0.161022 0.216048
H62   H     H_    0.558084 0.462895 0.316455 0.296931
H63   H     H_    0.065672 0.065717 0.318521 0.308222
H64   H     H_    0.941916 0.962895 0.683545 0.296931
H65   H     H_    0.934328 0.065717 0.681479 0.308222
H66   H     H_    0.058084 0.962895 0.316455 0.296931
H67   H     H_    0.326244 0.553780 0.256640 0.302843
H68   H     H_    0.673885 0.446296 0.745680 0.308967
H69   H     H_    0.673756 0.553780 0.743360 0.302843
H70   H     H_    0.326115 0.446296 0.254320 0.308967
H71   H     H_    0.826244 0.053780 0.256640 0.302842
H72   H     H_    0.752717 0.851009 0.098950 0.227099
H73   H     H_    0.173885 0.946296 0.745680 0.308967
H74   H     H_    0.173756 0.053780 0.743360 0.302842
H75   H     H_    0.826115 0.946296 0.254320 0.308967
H76   H     H_    0.379333 0.775948 0.383726 0.338767
H77   H     H_    0.785592 0.454312 0.659471 0.325151
H78   H     H_    0.620667 0.775948 0.616274 0.338767
H79   H     H_    0.214408 0.454312 0.340529 0.325151
H80   H     H_    0.879333 0.275948 0.383726 0.338767
H81   H     H_    0.285592 0.954312 0.659471 0.325151
H82   H     H_    0.120667 0.275948 0.616274 0.338767
H83   H     H_    0.231535 0.199360 0.838978 0.216048
H84   H     H_    0.714408 0.954312 0.340529 0.325151
H85   H     H_    0.339293 0.659521 0.598772 0.193429
H86   H     H_    0.641452 0.339936 0.369070 0.188976
H87   H     H_    0.660707 0.659521 0.401228 0.193430
H88   H     H_    0.358548 0.339936 0.630930 0.188976
H89   H     H_    0.839293 0.159521 0.598772 0.193429
H90   H     H_    0.141452 0.839936 0.369070 0.188976
H91   H     H_    0.160707 0.159521 0.401228 0.193429
H92   H     H_    0.858548 0.839936 0.630930 0.188976
H93   H     H_    0.798125 0.251057 0.601062 0.149003
H94   H     H_    0.328307 0.829736 0.415605 0.149366
H95   H     H_    0.215054 0.798524 0.369698 0.149671
H96   H     H_    0.201875 0.251057 0.398938 0.149003
H97   H     H_    0.784945 0.798524 0.630302 0.149671
H98   H     H_    0.298125 0.751058 0.601062 0.149003
H99   H     H_    0.715054 0.298524 0.369698 0.149671
H100  H     H_    0.701875 0.751058 0.398938 0.149003
H101  H     H_    0.284945 0.298524 0.630302 0.149671
H102  H     H_    0.819429 0.299859 0.912867 0.190505
H103  H     H_    0.181254 0.723899 0.112890 0.190461
H104  H     H_    0.180572 0.299859 0.087134 0.190505
N1    N     N_R   0.532910 0.558440 0.665240 -0.084851
N2    N     N_R   0.402970 0.441090 0.454460 -0.074183
N3    N     N_R   0.402970 0.558910 0.454460 -0.075745
N4    N     N_R   0.597030 0.441090 0.545540 -0.074183
N5    N     N_R   0.097030 0.058910 0.545540 -0.075745
N6    N     N_R   0.902970 0.941090 0.454460 -0.074183
N7    N     N_R   0.902970 0.058910 0.454460 -0.075745
N8    N     N_R   0.097030 0.941090 0.545540 -0.074183
N9    N     N_R   0.566200 0.559270 0.454460 -0.105575
N10   N     N_R   0.433800 0.440730 0.545540 -0.101925
N11   N     N_R   0.433800 0.559270 0.545540 -0.105575
N12   N     N_R   0.467090 0.441560 0.334760 -0.088793
N13   N     N_R   0.566200 0.440730 0.454460 -0.101925
N14   N     N_R   0.066200 0.059270 0.454460 -0.105575
N15   N     N_R   0.933800 0.940730 0.545540 -0.101925
N16   N     N_R   0.933800 0.059270 0.545540 -0.105575
N17   N     N_R   0.066200 0.940730 0.454460 -0.101925
N18   N     N_R   0.421050 0.559750 0.334770 -0.110390
N19   N     N_R   0.578950 0.440250 0.665230 -0.105169
N20   N     N_R   0.578950 0.559750 0.665230 -0.110390
N21   N     N_R   0.421050 0.440250 0.334770 -0.105169
N22   N     N_R   0.921050 0.059750 0.334770 -0.110390
N23   N     N_R   0.467090 0.558440 0.334760 -0.084851
N24   N     N_R   0.078950 0.940250 0.665230 -0.105169
N25   N     N_R   0.078950 0.059750 0.665230 -0.110390
N26   N     N_R   0.921050 0.940250 0.334770 -0.105169
N27   N     N_R   0.532910 0.441560 0.665240 -0.088793
N28   N     N_R   0.032910 0.058440 0.665240 -0.084851
N29   N     N_R   0.967090 0.941560 0.334760 -0.088793
N30   N     N_R   0.967090 0.058440 0.334760 -0.084851
N31   N     N_R   0.032910 0.941560 0.665240 -0.088793
N32   N     N_R   0.597030 0.558910 0.545540 -0.075745
Ni1   Ni    Ni4+2 0.483090 0.500000 0.604440 0.200492
Ni2   Ni    Ni4+2 0.516910 0.500000 0.395560 0.200492
Ni3   Ni    Ni4+2 0.983090 0.000000 0.604440 0.200492
Ni4   Ni    Ni4+2 0.016910 0.000000 0.395560 0.200492
Ni5   Ni    Ni4+2 0.586780 0.500000 0.604440 0.204658
Ni6   Ni    Ni4+2 0.413220 0.500000 0.395560 0.204658
Ni7   Ni    Ni4+2 0.086780 0.000000 0.604440 0.204658
Ni8   Ni    Ni4+2 0.913220 0.000000 0.395560 0.204658
O1    O     O_3   0.699923 0.418991 0.934689 -0.700752
O2    O     O_3   0.432600 0.625024 0.088363 -0.746590
O3    O     O_3   0.463993 0.329699 0.152100 -0.745412
O4    O     O_3   0.567400 0.625024 0.911637 -0.746590
O5    O     O_3   0.036007 0.829698 0.847900 -0.745412
O6    O     O_3   0.932600 0.125024 0.088364 -0.746591
O7    O     O_3   0.963993 0.829699 0.152100 -0.745412
O8    O     O_3   0.067400 0.125024 0.911637 -0.746591
O9    O     O_3   0.380964 0.715828 0.955358 -0.745526
O10   O     O_3   0.592404 0.257743 0.002973 -0.746815
O11   O     O_3   0.619036 0.715827 0.044642 -0.745526
O12   O     O_3   0.358363 0.713572 0.238372 -0.730206
O13   O     O_3   0.407595 0.257744 0.997026 -0.746815
O14   O     O_3   0.880965 0.215828 0.955359 -0.745527
O15   O     O_3   0.092405 0.757744 0.002974 -0.746815
O16   O     O_3   0.119036 0.215828 0.044642 -0.745526
O17   O     O_3   0.907595 0.757744 0.997026 -0.746815
O18   O     O_3   0.575618 0.606008 0.343778 -0.774773
O19   O     O_3   0.413873 0.432925 0.656807 -0.758534
O20   O     O_3   0.424382 0.606008 0.656222 -0.774772
O21   O     O_3   0.586127 0.432925 0.343193 -0.758535
O22   O     O_3   0.075618 0.106008 0.343778 -0.774773
O23   O     O_3   0.300076 0.418991 0.065310 -0.700751
O24   O     O_3   0.913873 0.932925 0.656807 -0.758535
O25   O     O_3   0.924382 0.106008 0.656222 -0.774773
O26   O     O_3   0.086127 0.932925 0.343193 -0.758535
O27   O     O_3   0.332281 0.584146 0.223446 -0.748205
O28   O     O_3   0.666940 0.410868 0.769981 -0.753649
O29   O     O_3   0.667718 0.584146 0.776554 -0.748205
O30   O     O_3   0.333060 0.410868 0.230019 -0.753649
O31   O     O_3   0.832281 0.084147 0.223446 -0.748205
O32   O     O_3   0.166939 0.910868 0.769981 -0.753649
O33   O     O_3   0.167718 0.084146 0.776554 -0.748205
O34   O     O_3   0.641637 0.713572 0.761628 -0.730206
O35   O     O_3   0.833060 0.910868 0.230019 -0.753649
O36   O     O_3   0.381961 0.737106 0.411418 -0.752253
O37   O     O_3   0.747657 0.447262 0.619303 -0.776419
O38   O     O_3   0.618039 0.737106 0.588581 -0.752253
O39   O     O_3   0.252343 0.447262 0.380697 -0.776419
O40   O     O_3   0.881961 0.237106 0.411419 -0.752253
O41   O     O_3   0.247657 0.947262 0.619303 -0.776419
O42   O     O_3   0.118039 0.237106 0.588581 -0.752253
O43   O     O_3   0.752343 0.947262 0.380697 -0.776419
O44   O     O_3   0.199923 0.918991 0.934689 -0.700752
O45   O     O_3   0.858363 0.213572 0.238372 -0.730206
O46   O     O_3   0.800076 0.918991 0.065310 -0.700751
O47   O     O_3   0.141637 0.213572 0.761628 -0.730206
O48   O     O_3   0.536007 0.329698 0.847899 -0.745413

loop_
_geom_bond_atom_site_label_1
_geom_bond_atom_site_label_2
_ccdc_geom_bond_type
C61   C70   A    
N24   N31   A    
C11   H3    S    
C31   C42   A    
H29   O45   S    
C100  C127  A    
C132  C150  A    
C35   H89   S    
H77   O37   S    
N2    N10   A    
N7    Ni8   S    
C12   H4    S    
C103  H18   S    
C124  C133  A    
C125  H20   S    
C69   O43   S    
C57   C76   A    
H69   O29   S    
C52   C61   A    
C25   O26   S    
C48   C162  A    
C54   C63   A    
C147  H22   S    
C13   H87   S    
N30   Ni4   S    
C101  C128  A    
H81   O41   S    
H34   O3    S    
C54   H8    S    
H36   O5    S    
N26   Ni8   S    
C134  C143  A    
C133  C151  A    
C97   C115  A    
C110  C145  A    
C67   O42   S    
C21   C48   A    
C106  O10   S    
H40   O8    S    
C45   C160  A    
H47   O16   S    
C42   C147  A    
C2    H86   S    
C109  C118  A    
N13   Ni2   S    
H43   O11   S    
C147  N31   A    
N6    N15   A    
C130  O46   S    
C50   C164  A    
C28   N20   A    
N10   Ni1   S    
C68   H92   S    
C114  H19   S    
C119  O5    S    
C37   C96   S    
C17   C43   A    
C18   C44   A    
C15   C142  A    
C164  H56   S    
C41   C100  S    
C160  N3    A    
C47   C71   S    
C109  O14   S    
C53   H2    S    
C22   C49   A    
C46   C84   A    
N21   Ni6   S    
C16   H7    S    
C131  C149  A    
C2    C71   A    
C78   H98   S    
C83   C91   A    
C31   N24   A    
C68   C77   A    
C26   N18   A    
C21   O22   S    
C104  C121  A    
C13   C72   A    
H76   O36   S    
C19   N11   A    
H46   O15   S    
N8    N17   A    
C106  C115  A    
C3    H39   S    
C107  O11   S    
C105  C140  A    
C116  O4    S    
H27   O44   S    
H68   O28   S    
C57   C85   A    
C36   C99   S    
C84   C93   A    
C20   C47   A    
C3    C11   A    
C86   C95   A    
H41   O9    S    
C60   C95   A    
C127  O45   S    
N23   Ni2   S    
C126  C134  A    
C10   C168  A    
C44   C159  A    
H31   O47   S    
C167  H17   S    
C78   C87   A    
C46   H90   S    
C123  C132  A    
C48   C76   S    
C69   C77   A    
C32   O33   S    
C56   H10   S    
N8    Ni7   S    
C98   C124  A    
C118  O6    S    
C92   N23   A    
C133  C142  A    
C38   C103  A    
C105  C113  A    
C59   H12   S    
C14   H5    S    
C50   C74   S    
C17   O18   S    
C124  O34   S    
C11   C148  A    
C150  C166  A    
H84   O43   S    
C85   C94   A    
C24   H88   S    
C8    H102  S    
C31   O32   S    
C23   O25   S    
H59   O19   S    
N12   Ni2   S    
C78   C158  A    
C161  H53   S    
C64   C73   A    
C30   C41   A    
C2    C79   A    
C109  C144  A    
N3    N11   A    
C21   N14   A    
C125  N29   A    
C23   N16   A    
H24   O12   S    
C46   C75   A    
C162  N5    A    
C1    C34   A    
C99   C126  A    
H66   O26   S    
C139  C148  A    
C33   C40   A    
C92   H16   S    
C111  C146  A    
C29   N21   A    
N5    Ni7   S    
N27   Ni1   S    
N6    Ni8   S    
C57   H91   S    
C65   C74   A    
C7    H83   S    
C26   O27   S    
C99   C117  A    
C129  O47   S    
C88   C91   S    
C36   C81   A    
N24   Ni7   S    
C165  H57   S    
N22   Ni8   S    
C112  O17   S    
C10   C146  A    
N28   Ni3   S    
C4    H50   S    
C51   C165  A    
C4    C12   A    
C165  N8    A    
C42   C101  S    
C122  C131  A    
C39   C102  S    
C117  O3    S    
C132  C141  A    
C135  C144  A    
H32   O48   S    
C37   C92   A    
C80   H100  S    
C108  C117  A    
C105  O9    S    
C43   C157  A    
C110  C119  A    
C19   C45   A    
H44   O13   S    
C52   H94   S    
C136  H21   S    
C112  C121  A    
C97   C123  A    
N19   Ni5   S    
C160  H52   S    
C60   C69   A    
C138  C146  A    
C40   C125  A    
C87   C93   S    
C49   C77   S    
C62   C71   A    
C20   N13   A    
C107  C116  A    
C49   C163  A    
C83   H93   S    
C22   N15   A    
N2    Ni6   S    
C28   C34   A    
H67   O27   S    
C81   H15   S    
C10   H104  S    
H73   O32   S    
C27   N19   A    
C110  O15   S    
C6    C156  A    
C138  C155  A    
C4    C154  A    
H30   O46   S    
C35   C74   A    
C121  O7    S    
H78   O38   S    
H35   O4    S    
C149  C167  A    
C103  N27   A    
C29   O30   S    
C82   H101  S    
C137  C145  A    
H70   O30   S    
C58   C93   A    
C127  C135  A    
C136  N30   A    
C24   C73   A    
C27   C38   A    
H82   O42   S    
C60   H13   S    
H65   O25   S    
C32   C39   A    
C80   C89   A    
N20   Ni5   S    
C56   C91   A    
C64   O39   S    
H23   O1    S    
C150  C153  A    
C123  O1    S    
C12   C140  A    
C164  N7    A    
C59   C94   A    
C111  O16   S    
C128  O44   S    
C17   N9    A    
C9    H103  S    
C13   C80   A    
C22   O24   S    
H26   O34   S    
C104  C130  A    
C114  N28   A    
C55   H9    S    
C130  C139  A    
C79   C88   A    
C152  C168  A    
C90   C94   S    
N32   Ni5   S    
H62   O21   S    
H42   O10   S    
C16   C143  A    
C28   O29   S    
C35   C83   A    
C23   C50   A    
C70   C158  A    
N26   N29   A    
C89   C95   S    
C149  C154  A    
C18   O19   S    
C152  C155  A    
C134  C152  A    
C157  H49   S    
C151  C156  A    
N9    N32   A    
C5    C14   A    
H37   O6    S    
C66   O41   S    
C27   O28   S    
H71   O31   S    
N18   Ni6   S    
C159  H51   S    
C96   C113  A    
C100  C118  A    
C157  N32   A    
C102  C120  A    
C30   N22   A    
C106  C141  A    
N14   Ni4   S    
C15   H6    S    
C45   C70   S    
C159  N2    A    
C65   O40   S    
N15   Ni3   S    
C1    H14   S    
C26   C37   A    
C55   C90   A    
C82   C90   A    
C96   C122  A    
C126  O23   S    
H75   O35   S    
C66   C75   A    
C9    C145  A    
C34   C98   S    
C137  C154  A    
H64   O24   S    
C44   C73   S    
N22   N30   A    
C47   C161  A    
C7    C155  A    
C63   C72   A    
C108  O13   S    
C86   H97   S    
C108  C143  A    
C122  O12   S    
N4    N13   A    
C43   C72   S    
C68   C86   A    
C102  C129  A    
H79   O39   S    
N17   Ni4   S    
C29   C36   A    
C113  O2    S    
C139  C156  A    
C51   C75   S    
C56   C65   A    
C24   C82   A    
N9    Ni2   S    
N25   Ni7   S    
C6    C15   A    
C58   C66   A    
H38   O7    S    
C162  H54   S    
C79   H99   S    
H63   O22   S    
C84   H95   S    
C58   H11   S    
N1    N20   A    
H48   O17   S    
N19   N27   A    
C1    N1    A    
C59   C67   A    
C14   C141  A    
C115  O48   S    
C81   N12   A    
C38   C97   S    
H58   O18   S    
C129  C138  A    
N18   N23   A    
C101  C119  A    
H45   O14   S    
C9    C167  A    
C54   C89   A    
C62   O37   S    
N1    Ni1   S    
N31   Ni3   S    
C131  C140  A    
N29   Ni4   S    
C30   O31   S    
C6    H72   S    
C112  C148  A    
C25   N17   A    
C111  C120  A    
C128  C137  A    
C25   C51   A    
N16   Ni3   S    
C161  N4    A    
C40   C104  S    
C53   C62   A    
C98   C116  A    
C18   N10   A    
C39   C114  A    
C55   C64   A    
H33   O2    S    
C8    C144  A    
C107  C142  A    
C63   O38   S    
C8    C166  A    
H25   O23   S    
C20   O21   S    
N3    Ni6   S    
C19   O20   S    
C33   O35   S    
N25   N28   A    
C5    H61   S    
C33   N26   A    
H74   O33   S    
C7    C16   A    
C52   C87   A    
N4    Ni5   S    
C32   N25   A    
C163  N6    A    
C163  H55   S    
N5    N14   A    
C3    C151  A    
C135  C153  A    
C61   O36   S    
N7    N16   A    
C158  H85   S    
H80   O40   S    
H60   O20   S    
N12   N21   A    
C5    C153  A    
C53   C88   A    
C120  O8    S    
C166  H1    S    
C168  H28   S    
C67   C76   A    
C85   H96   S    
C41   C136  A    
N11   Ni1   S    
