data_mof_unit_31073.cif
_audit_creation_date              2012-10-26T17:12:29-0400
_audit_creation_method            fapswitch 2.2
_symmetry_space_group_name_H-M    P1
_symmetry_Int_Tables_number       1
_space_group_crystal_system       triclinic
_cell_length_a                    16.851088
_cell_length_b                    16.663755
_cell_length_c                    16.889193
_cell_angle_alpha                 67.3177
_cell_angle_beta                  67.585111
_cell_angle_gamma                 67.112756
_cell_volume                      3879.0705361

loop_
_atom_site_label
_atom_site_type_symbol
_atom_type_description
_atom_site_fract_x
_atom_site_fract_y
_atom_site_fract_z
_atom_type_partial_charge
C1    C     C_R   0.031787 0.827668 0.563531 0.610784
C2    C     C_R   0.014468 0.570369 0.830768 0.630147
C3    C     C_R   0.171199 0.975647 0.433936 0.623651
C4    C     C_R   0.829501 0.020089 0.568178 0.611495
C5    C     C_R   0.494934 0.941483 0.742297 0.242659
C6    C     C_R   0.532878 0.992279 0.279033 0.239268
C7    C     C_R   0.102305 0.683297 0.458364 0.318904
C8    C     C_R   0.919169 0.303994 0.547185 0.247828
C9    C     C_R   0.706843 0.445761 0.066158 0.300799
C10   C     C_R   0.283257 0.543668 0.964462 0.244071
C11   C     C_R   0.308324 0.904869 0.543463 0.296804
C12   C     C_R   0.969054 0.172353 0.436479 0.622694
C13   C     C_R   0.696836 0.064557 0.467194 0.244372
C14   C     C_R   0.550682 0.299850 0.921400 0.310615
C15   C     C_R   0.453956 0.708516 0.061114 0.254905
C16   C     C_R   0.061352 0.489109 0.266860 0.315558
C17   C     C_R   0.920194 0.528891 0.731839 0.240403
C18   C     C_R   0.548747 0.995186 0.555666 -0.071847
C19   C     C_R   0.456760 0.974763 0.458339 -0.071537
C20   C     C_R   0.006312 0.552509 0.547381 -0.057757
C21   C     C_R   0.992753 0.451607 0.453507 -0.058094
C22   C     C_R   0.542716 0.541528 0.025409 -0.058618
C23   C     C_R   0.827707 0.563143 0.031962 0.622625
C24   C     C_R   0.455343 0.456238 0.980856 -0.060157
C25   C     C_R   0.580655 0.015916 0.461648 0.053905
C26   C     C_R   0.429448 0.946460 0.551934 -0.002168
C27   C     C_R   0.957465 0.488005 0.593514 0.067835
C28   C     C_R   0.033078 0.523506 0.405800 -0.031345
C29   C     C_R   0.454624 0.586561 0.016438 0.056079
C30   C     C_R   0.546345 0.416720 0.979581 -0.034954
C31   C     C_R   0.531060 0.010688 0.413018 0.068671
C32   C     C_R   0.471327 0.963411 0.601069 0.021502
C33   C     C_R   0.408011 0.539536 0.003082 0.050613
C34   C     C_R   0.172224 0.435944 0.969556 0.574899
C35   C     C_R   0.585302 0.453229 0.014974 -0.034427
C36   C     C_R   0.959722 0.430070 0.547990 0.063763
C37   C     C_R   0.048961 0.567012 0.454631 -0.033655
C38   C     C_R   0.438448 0.950087 0.694187 0.231078
C39   C     C_R   0.553784 0.037329 0.319519 0.279600
C40   C     C_R   0.108889 0.622064 0.415589 0.235283
C41   C     C_R   0.933245 0.349352 0.594185 0.282546
C42   C     C_R   0.661391 0.401958 0.047793 0.233969
C43   C     C_R   0.315996 0.573455 0.008675 0.343069
C44   C     C_R   0.365629 0.896003 0.591529 0.293715
C45   C     C_R   0.571172 0.007364 0.834468 0.613450
C46   C     C_R   0.663049 0.037798 0.420156 0.277236
C47   C     C_R   0.596057 0.345572 0.937695 0.237262
C48   C     C_R   0.416625 0.676885 0.021912 0.284013
C49   C     C_R   0.058007 0.547345 0.310776 0.237534
C50   C     C_R   0.902322 0.489325 0.681417 0.299498
C51   C     C_R   0.567337 0.979651 0.698476 -0.001548
C52   C     C_R   0.447648 0.976750 0.316219 0.002608
C53   C     C_R   0.052496 0.674305 0.548161 -0.016725
C54   C     C_R   0.952221 0.324709 0.453458 -0.007414
C55   C     C_R   0.677229 0.541828 0.051258 -0.016139
C56   C     C_R   0.432286 0.981671 0.169560 0.602079
C57   C     C_R   0.320661 0.452989 0.958713 -0.067476
C58   C     C_R   0.326598 0.947498 0.450363 -0.021796
C59   C     C_R   0.675569 0.031883 0.560581 -0.010625
C60   C     C_R   0.455705 0.325702 0.945582 -0.011107
C61   C     C_R   0.546536 0.674773 0.052158 -0.005200
C62   C     C_R   0.011539 0.425795 0.311735 -0.013279
C63   C     C_R   0.982037 0.580593 0.689077 -0.018427
C64   C     C_R   0.614371 0.991681 0.745162 0.016873
C65   C     C_R   0.395076 0.980688 0.264713 -0.003830
C66   C     C_R   0.050598 0.727123 0.597335 0.043667
C67   C     C_R   0.437021 0.172606 0.967064 0.611961
C68   C     C_R   0.951269 0.272993 0.403860 0.038160
C69   C     C_R   0.727240 0.593237 0.054955 0.014451
C70   C     C_R   0.272458 0.404454 0.948617 -0.024638
C71   C     C_R   0.268344 0.969906 0.396070 0.000427
C72   C     C_R   0.734332 0.017701 0.611037 -0.014558
C73   C     C_R   0.405542 0.274428 0.943275 0.021781
C74   C     C_R   0.595896 0.725402 0.055770 -0.007980
C75   C     C_R   0.981854 0.389733 0.266498 0.006720
C76   C     C_R   0.015333 0.612443 0.734770 0.015678
C77   C     C_R   0.704644 0.986928 0.705285 0.139787
C78   C     C_R   0.563597 0.827340 0.032195 0.605742
C79   C     C_R   0.301979 0.999731 0.302339 0.181978
C80   C     C_R   0.057906 0.681669 0.683983 0.221988
C81   C     C_R   0.943121 0.317941 0.317511 0.197884
C82   C     C_R   0.681295 0.679328 0.070348 0.148206
C83   C     C_R   0.319536 0.320003 0.929824 0.188792
C84   C     C_R   0.596858 0.002707 0.604844 -0.083050
C85   C     C_R   0.409309 0.967887 0.408216 -0.078124
C86   C     C_R   0.013630 0.602218 0.594745 -0.092913
C87   C     C_R   0.984973 0.401213 0.406397 -0.083219
C88   C     C_R   0.589430 0.586346 0.042039 -0.078268
C89   C     C_R   0.983275 0.430478 0.170013 0.626567
C90   C     C_R   0.410290 0.410983 0.962598 -0.070822
Cu1   Cu    Cu3+1 0.995180 0.995180 0.424630 1.158751
Cu2   Cu    Cu3+1 0.004820 0.004820 0.575370 1.190833
Cu3   Cu    Cu3+1 0.995180 0.424630 0.995180 1.200142
Cu4   Cu    Cu3+1 0.004820 0.575370 0.004820 1.249260
Cu5   Cu    Cu3+1 0.424630 0.995180 0.995180 1.166313
Cu6   Cu    Cu3+1 0.575370 0.004820 0.004820 1.207751
H1    H     H_    0.450016 0.846370 0.841123 0.339095
H2    H     H_    0.335993 0.768971 0.126443 0.350629
H3    H     H_    0.158078 0.525980 0.166421 0.364256
H4    H     H_    0.853451 0.468469 0.846972 0.337820
H5    H     H_    0.333829 0.956782 0.797199 0.344417
H6    H     H_    0.598900 0.117688 0.205190 0.327201
H7    H     H_    0.198385 0.546777 0.340599 0.352684
H8    H     H_    0.935046 0.245627 0.700236 0.340049
H9    H     H_    0.633990 0.286961 0.089432 0.348533
H10   H     H_    0.197340 0.651435 0.051761 0.375319
H11   H     H_    0.426101 0.805586 0.679666 0.340545
H12   H     H_    0.659113 0.952577 0.216184 0.355555
H13   H     H_    0.777475 0.022453 0.328427 0.338480
H14   H     H_    0.707146 0.378704 0.891329 0.347895
H15   H     H_    0.340311 0.798997 0.981525 0.331744
H16   H     H_    0.032686 0.675918 0.290796 0.348704
H17   H     H_    0.779844 0.494540 0.755033 0.323911
H18   H     H_    0.833150 0.808487 0.702010 0.317809
H19   H     H_    0.245362 0.203316 0.120970 0.371512
H20   H     H_    0.290453 0.676133 0.614823 0.388494
H21   H     H_    0.732115 0.424867 0.273504 0.384755
H22   H     H_    0.595832 0.730382 0.237107 0.338991
H23   H     H_    0.178935 0.747856 0.354067 0.375671
H24   H     H_    0.341690 0.193452 0.783539 0.368870
H25   H     H_    0.827854 0.257696 0.649261 0.353363
H26   H     H_    0.793853 0.331646 0.107296 0.394074
H27   H     H_    0.240597 0.589343 0.860780 0.384739
H28   H     H_    0.226913 0.850241 0.649608 0.402149
H29   H     H_    0.741922 0.153221 0.360408 0.374592
H30   H     H_    0.662224 0.223390 0.861645 0.379880
O1    O     O_R   0.124540 0.978640 0.385460 -0.444631
O2    O     O_R   0.124540 0.385460 0.978640 -0.459797
O3    O     O_R   0.021360 0.875460 0.614540 -0.427044
O4    O     O_R   0.978640 0.124540 0.385460 -0.436246
O5    O     O_R   0.013780 0.867370 0.487190 -0.518236
O6    O     O_R   0.986220 0.132630 0.512810 -0.490813
O7    O     O_R   0.867370 0.487190 0.013780 -0.472907
O8    O     O_R   0.132630 0.512810 0.986220 -0.476376
O9    O     O_R   0.487190 0.013780 0.867370 -0.476704
O10   O     O_R   0.512810 0.986220 0.132630 -0.466740
O11   O     O_R   0.512810 0.132630 0.986220 -0.499367
O12   O     O_R   0.875460 0.021360 0.614540 -0.432387
O13   O     O_R   0.487190 0.867370 0.013780 -0.468797
O14   O     O_R   0.986220 0.512810 0.132630 -0.452906
O15   O     O_R   0.013780 0.487190 0.867370 -0.468399
O16   O     O_R   0.132630 0.986220 0.512810 -0.489480
O17   O     O_R   0.867370 0.013780 0.487190 -0.488678
O18   O     O_3   0.487575 0.885460 0.828562 -0.688565
O19   O     O_3   0.602926 0.937348 0.230264 -0.599849
O20   O     O_3   0.154976 0.742118 0.418831 -0.636620
O21   O     O_3   0.865337 0.246242 0.590935 -0.661307
O22   O     O_3   0.769718 0.394089 0.113307 -0.602986
O23   O     O_R   0.978640 0.385460 0.124540 -0.455234
O24   O     O_3   0.230367 0.610664 0.911812 -0.614754
O25   O     O_3   0.243003 0.860635 0.584306 -0.616001
O26   O     O_3   0.746365 0.125906 0.422715 -0.616080
O27   O     O_3   0.597099 0.239778 0.869767 -0.646469
O28   O     O_3   0.399567 0.763267 0.116969 -0.669852
O29   O     O_3   0.116463 0.490384 0.181650 -0.680593
O30   O     O_3   0.871885 0.525091 0.819449 -0.707745
O31   O     O_3   0.350436 0.949288 0.736932 -0.646781
O32   O     O_3   0.592013 0.107541 0.269081 -0.635974
O33   O     O_3   0.180912 0.610407 0.342001 -0.650637
O34   O     O_R   0.021360 0.614540 0.875460 -0.458666
O35   O     O_3   0.929333 0.311125 0.683801 -0.633642
O36   O     O_3   0.687262 0.308159 0.071965 -0.657567
O37   O     O_3   0.258627 0.633858 0.057780 -0.615845
O38   O     O_3   0.365170 0.828616 0.671354 -0.625321
O39   O     O_3   0.715637 0.021882 0.338793 -0.647324
O40   O     O_3   0.688232 0.324348 0.905160 -0.655204
O41   O     O_3   0.351479 0.736763 0.979400 -0.631972
O42   O     O_3   0.072065 0.630229 0.257815 -0.647855
O43   O     O_3   0.826025 0.461237 0.712227 -0.641208
O44   O     O_2   0.818107 0.963870 0.795273 -0.199926
O45   O     O_R   0.385460 0.124540 0.978640 -0.434248
O46   O     O_2   0.733078 0.853340 0.855861 -0.273695
O47   O     O_3   0.863104 0.841115 0.714666 -0.524786
O48   O     O_2   0.193758 0.045681 0.198599 -0.227606
O49   O     O_2   0.155943 0.145385 0.291126 -0.313119
O50   O     O_3   0.289828 0.154915 0.151498 -0.543553
O51   O     O_2   0.139328 0.733186 0.757243 -0.229904
O52   O     O_2   0.198261 0.575634 0.748056 -0.312024
O53   O     O_3   0.231183 0.701656 0.602502 -0.461912
O54   O     O_2   0.881472 0.253063 0.236513 -0.232813
O55   O     O_2   0.787766 0.278160 0.382082 -0.253507
O56   O     O_R   0.614540 0.875460 0.021360 -0.414254
O57   O     O_3   0.796728 0.419711 0.245943 -0.483061
O58   O     O_2   0.773173 0.638804 0.188409 -0.256930
O59   O     O_2   0.775505 0.779671 0.067468 -0.183372
O60   O     O_3   0.630262 0.774502 0.197494 -0.454922
O61   O     O_2   0.221945 0.221513 0.935714 -0.258958
O62   O     O_2   0.227958 0.360309 0.811983 -0.229421
O63   O     O_3   0.368220 0.221449 0.805666 -0.505150
O64   O     O_R   0.614540 0.021360 0.875460 -0.454272
O65   O     O_R   0.385460 0.978640 0.124540 -0.446425
O66   O     O_R   0.875460 0.614540 0.021360 -0.452872
S1    S     S_3+6 0.779901 0.911148 0.771441 0.059362
S2    S     S_3+6 0.231325 0.087301 0.235858 0.041443
S3    S     S_3+6 0.158027 0.672576 0.701716 0.052563
S4    S     S_3+6 0.850716 0.313799 0.295391 0.066056
S5    S     S_3+6 0.718881 0.717723 0.131070 0.078303
S6    S     S_3+6 0.280575 0.281021 0.870593 0.061023

loop_
_geom_bond_atom_site_label_1
_geom_bond_atom_site_label_2
_ccdc_geom_bond_type
O63   S6    S    
C25   C31   A    
C52   C65   A    
C21   C87   A    
C26   C32   A    
Cu3   Cu4   S    
C65   C79   A    
C46   O39   S    
C41   O35   S    
Cu4   O14   S    
C64   C77   A    
C23   C69   S    
C40   O33   S    
Cu3   O23   S    
Cu5   Cu6   S    
C3    O16   A    
C2    C76   S    
Cu2   O12   S    
C78   O13   A    
H6    O32   S    
C4    O17   A    
C71   C79   A    
H22   O60   S    
C18   C32   A    
C26   C44   A    
C66   C80   A    
Cu6   O10   S    
Cu1   O4    S    
O53   S3    S    
H23   O20   S    
C22   C35   A    
C12   C68   S    
C9    C42   A    
H19   O50   S    
C79   S2    S    
Cu1   O1    S    
C30   C35   A    
C68   C81   A    
C52   C85   A    
Cu2   O6    S    
C9    O22   S    
C37   C40   A    
Cu3   O7    S    
C32   C38   A    
C54   C87   A    
C3    O1    A    
C58   C71   A    
Cu1   O5    S    
C63   C76   A    
C34   O8    A    
C56   C65   S    
H16   O42   S    
C29   C33   A    
C60   C73   A    
H21   O57   S    
Cu6   O64   S    
C55   C88   A    
C35   C42   A    
C19   C26   A    
C77   S1    S    
C15   O28   S    
C69   C82   A    
H18   O47   S    
C20   C86   A    
C18   C84   A    
C7    C40   A    
H25   O21   S    
O60   S5    S    
C53   C86   A    
C67   C73   S    
H26   O22   S    
C57   C70   A    
C11   C58   A    
C12   O6    A    
C34   C70   S    
O49   S2    D    
O54   S4    D    
C27   C50   A    
Cu5   O65   S    
C59   C72   A    
C7    O20   S    
H4    O30   S    
C89   O23   A    
H27   O24   S    
C19   C31   A    
C5    C38   A    
C36   C41   A    
C18   C25   A    
C16   C62   A    
C15   C48   A    
C74   C82   A    
C23   O66   A    
C56   O10   A    
C24   C33   A    
C1    C66   S    
Cu1   O17   S    
C2    O34   A    
C45   O9    A    
C57   C90   A    
C23   O7    A    
C29   C48   A    
C33   C43   A    
C30   C47   A    
C10   C57   A    
C8    C41   A    
C38   O31   S    
C82   S5    S    
C8    C54   A    
H8    O35   S    
C21   C36   A    
C6    O19   S    
C75   C81   A    
C5    O18   S    
H17   O43   S    
O61   S6    D    
C67   O45   A    
C20   C37   A    
C4    O12   A    
H3    O29   S    
C78   O56   A    
C3    C71   S    
H1    O18   S    
C72   C77   A    
C70   C83   A    
C61   C88   A    
Cu4   O66   S    
C28   C49   A    
C6    C52   A    
C39   O32   S    
O62   S6    D    
C89   O14   A    
C16   O29   S    
Cu5   O9    S    
O57   S4    S    
C15   C61   A    
C11   C44   A    
H10   O37   S    
C16   C49   A    
C83   S6    S    
C53   C66   A    
C55   C69   A    
H13   O39   S    
C49   O42   S    
C9    C55   A    
C11   O25   S    
H28   O25   S    
C12   O4    A    
C22   C88   A    
C63   C86   A    
O47   S1    S    
C61   C74   A    
C62   C75   A    
C8    O21   S    
H15   O41   S    
C7    C53   A    
C58   C85   A    
C4    C72   S    
Cu3   O15   S    
H12   O19   S    
C62   C87   A    
C21   C28   A    
C47   O40   S    
C80   S3    S    
H29   O26   S    
Cu4   O34   S    
O51   S3    D    
C10   C43   A    
H9    O36   S    
Cu5   O13   S    
Cu6   O11   S    
C51   C64   A    
C76   C80   A    
C13   O26   S    
Cu6   O56   S    
C19   C85   A    
C24   C90   A    
C17   C50   A    
O44   S1    D    
C42   O36   S    
O48   S2    D    
C14   C47   A    
C13   C59   A    
C20   C27   A    
C60   C90   A    
C27   C36   A    
O55   S4    D    
C14   C60   A    
O52   S3    D    
C45   C64   S    
C1    O3    A    
C59   C84   A    
O46   S1    D    
O59   S5    D    
Cu2   O3    S    
Cu3   O2    S    
C14   O27   S    
H24   O63   S    
C10   O24   S    
C81   S4    S    
H2    O28   S    
H14   O40   S    
H7    O33   S    
C13   C46   A    
C48   O41   S    
C28   C37   A    
C1    O5    A    
C51   C84   A    
Cu2   O16   S    
Cu4   O8    S    
C31   C39   A    
C50   O43   S    
C67   O11   A    
C24   C30   A    
C56   O65   A    
C75   C89   S    
H5    O31   S    
H30   O27   S    
C45   O64   A    
C54   C68   A    
H11   O38   S    
C34   O2    A    
O58   S5    D    
C74   C78   S    
H20   O53   S    
C22   C29   A    
C2    O15   A    
C6    C39   A    
C5    C51   A    
C44   O38   S    
O50   S2    S    
C17   O30   S    
Cu5   O45   S    
C25   C46   A    
C73   C83   A    
C17   C63   A    
Cu1   Cu2   S    
C43   O37   S    
