data_mof_unit_38575.cif
_audit_creation_date              2012-12-10T18:05:14-0500
_audit_creation_method            fapswitch 2.2
_symmetry_space_group_name_H-M    P1
_symmetry_Int_Tables_number       1
_space_group_crystal_system       triclinic
_cell_length_a                    9.627571
_cell_length_b                    10.753491
_cell_length_c                    16.897809
_cell_angle_alpha                 87.56154
_cell_angle_beta                  94.333177
_cell_angle_gamma                 89.700947
_cell_volume                      1742.78742944

loop_
_atom_site_label
_atom_site_type_symbol
_atom_type_description
_atom_site_fract_x
_atom_site_fract_y
_atom_site_fract_z
_atom_type_partial_charge
C1    C     C_R   0.499916 0.262707 0.498956 0.853104
C2    C     C_R   0.500087 0.737294 0.501042 0.853050
C3    C     C_R   0.416981 0.937897 0.443225 -0.176689
C4    C     C_R   0.583077 0.062108 0.556751 -0.176898
C5    C     C_R   0.500340 0.871124 0.501761 -0.083013
C6    C     C_R   0.499681 0.128879 0.498229 -0.082896
C7    C     C_R   0.081091 0.412310 0.544370 0.059585
C8    C     C_R   0.918918 0.587713 0.455650 0.059448
C9    C     C_R   0.932391 0.411153 0.543608 0.051087
C10   C     C_R   0.067610 0.588820 0.456384 0.051242
C11   C     C_R   0.517745 0.504630 0.650955 0.834231
C12   C     C_R   0.482256 0.495356 0.349045 0.834183
C13   C     C_R   0.529340 0.520908 0.737468 -0.107156
C14   C     C_R   0.470675 0.479031 0.262534 -0.107181
C15   C     C_R   0.431649 0.592739 0.775240 -0.099173
C16   C     C_R   0.568398 0.407202 0.224781 -0.099128
C17   C     C_R   0.444544 0.599300 0.858591 0.089605
C18   C     C_R   0.555523 0.400605 0.141431 0.089613
C19   C     C_R   0.551917 0.532654 0.903907 0.260177
C20   C     C_R   0.448134 0.467203 0.096097 0.260182
C21   C     C_R   0.658388 0.475643 0.865242 -0.041883
C22   C     C_R   0.341630 0.524195 0.134744 -0.041873
C23   C     C_R   0.644224 0.467772 0.782631 -0.203783
C24   C     C_R   0.355777 0.532109 0.217353 -0.203791
C25   C     C_R   0.415644 0.066916 0.441080 0.230764
C26   C     C_R   0.584393 0.933088 0.558904 0.230821
Cu1   Cu    Cu3+1 0.640660 0.500020 0.500000 0.996990
Cu2   Cu    Cu3+1 0.359340 0.499980 0.500000 0.997271
H1    H     H_    0.723240 0.419333 0.753236 0.184336
H2    H     H_    0.276733 0.580536 0.246730 0.184338
H3    H     H_    0.355645 0.889609 0.397984 0.177913
H4    H     H_    0.644461 0.110399 0.601971 0.177788
N1    N     N_2   0.554622 0.522795 0.988066 -0.215439
N2    N     N_2   0.445446 0.477042 0.011938 -0.215456
N3    N     N_R   0.852070 0.500030 0.499980 -0.239092
N4    N     N_R   0.147930 0.499970 0.500020 -0.239143
O1    O     O_R   0.618740 0.319660 0.500000 -0.556116
O2    O     O_R   0.381260 0.680340 0.500000 -0.555684
O3    O     O_R   0.381170 0.319630 0.500010 -0.556105
O4    O     O_R   0.618830 0.680370 0.499990 -0.556407
O5    O     O_R   0.631780 0.498870 0.613920 -0.610193
O6    O     O_R   0.368220 0.501130 0.386080 -0.610122
O7    O     O_R   0.394210 0.498840 0.613930 -0.591083
O8    O     O_R   0.605790 0.501160 0.386070 -0.591125
C27   C     C_2   0.680226 0.333613 0.270780 0.450790
H5    H     H_    0.783802 0.329842 0.249743 0.095671
O9    O     O_2   0.656348 0.272275 0.330592 -0.503228
C28   C     C_2   0.319828 0.666359 0.729260 0.450787
H6    H     H_    0.216264 0.670143 0.750310 0.095681
O10   O     O_2   0.343700 0.727704 0.669450 -0.503148
I1    I     I_    0.678993 0.269788 0.084877 -0.263737
I2    I     I_    0.321131 0.730121 0.915180 -0.263695
C29   C     C_2   0.786232 0.426614 0.910613 0.450367
H7    H     H_    0.809329 0.450693 0.971817 0.110018
O11   O     O_2   0.868799 0.360730 0.879857 -0.522405
C30   C     C_2   0.213771 0.573165 0.089357 0.450354
H8    H     H_    0.190707 0.549070 0.028152 0.110006
O12   O     O_2   0.131158 0.639020 0.120098 -0.522472
I3    I     I_    0.290885 0.160791 0.347661 -0.174179
I4    I     I_    0.709159 0.839214 0.652321 -0.173962
C31   C     C_2   0.163818 0.323843 0.598310 0.499125
H9    H     H_    0.212814 0.354695 0.653808 0.038517
O13   O     O_2   0.174316 0.214804 0.582087 -0.461638
C32   C     C_2   0.836212 0.676342 0.401812 0.498052
H10   H     H_    0.786727 0.645563 0.346421 0.039001
O14   O     O_2   0.826219 0.785434 0.418013 -0.461638
C33   C     C_2   0.865346 0.312266 0.590365 0.434803
H11   H     H_    0.792775 0.334516 0.633203 0.064076
O15   O     O_2   0.890807 0.202867 0.580765 -0.476277
C34   C     C_2   0.134656 0.687625 0.409591 0.435678
H12   H     H_    0.206615 0.665270 0.366437 0.063333
O16   O     O_2   0.109827 0.797049 0.419496 -0.476179

loop_
_geom_bond_atom_site_label_1
_geom_bond_atom_site_label_2
_ccdc_geom_bond_type
C16   C27   S    
C4    C26   A    
C9    C33   S    
C15   C17   A    
C34   H12   S    
C14   C16   A    
C2    O4    A    
C21   C29   S    
C7    N4    A    
Cu1   O5    S    
Cu2   O7    S    
C13   C15   A    
C1    O1    A    
Cu1   O4    S    
C3    C5    A    
C20   N2    S    
C32   H10   S    
C28   O10   D    
N1    N2    D    
C12   C14   S    
C12   O8    A    
C32   O14   D    
C27   H5    S    
C33   O15   D    
C3    H3    S    
C11   C13   S    
C13   C23   A    
C4    H4    S    
C15   C28   S    
C8    C32   S    
C23   H1    S    
C17   I2    S    
Cu2   O6    S    
C28   H6    S    
C17   C19   A    
Cu1   O1    S    
C18   I1    S    
C11   O5    A    
C18   C20   A    
C29   O11   D    
C21   C23   A    
C31   H9    S    
C8    C10   A    
C22   C24   A    
C11   O7    A    
C6    C25   A    
C1    O3    A    
C20   C22   A    
C24   H2    S    
C12   O6    A    
C33   H11   S    
C2    C5    S    
C10   C34   S    
C3    C25   A    
C30   H8    S    
Cu2   N4    S    
C16   C18   A    
C4    C6    A    
C19   N1    S    
C27   O9    D    
C14   C24   A    
Cu1   Cu2   S    
C7    C9    A    
C2    O2    A    
C7    C31   S    
C9    N3    A    
C22   C30   S    
C25   I3    S    
Cu2   O3    S    
Cu1   N3    S    
Cu2   O2    S    
C19   C21   A    
C26   I4    S    
Cu1   O8    S    
C34   O16   D    
C31   O13   D    
C5    C26   A    
C29   H7    S    
C30   O12   D    
C10   N4    A    
C8    N3    A    
C1    C6    S    
