data_mof_unit_12054.cif
_audit_creation_date              2013-03-05T15:57:38-0500
_audit_creation_method            fapswitch 2.2
_symmetry_space_group_name_H-M    P1
_symmetry_Int_Tables_number       1
_space_group_crystal_system       triclinic
_cell_length_a                    19.413369
_cell_length_b                    17.723418
_cell_length_c                    12.667774
_cell_angle_alpha                 90.327726
_cell_angle_beta                  99.670511
_cell_angle_gamma                 89.707598
_cell_volume                      4296.57295591

loop_
_atom_site_label
_atom_site_type_symbol
_atom_site_description
_atom_site_fract_x
_atom_site_fract_y
_atom_site_fract_z
_atom_type_partial_charge
O1    O     O_R   0.448200 0.076800 0.373930 -0.531902
O2    O     O_R   0.448200 0.923200 0.373930 -0.561451
O3    O     O_R   0.948200 0.576800 0.373930 -0.531921
O4    O     O_R   0.948200 0.423200 0.373930 -0.561238
O5    O     O_R   0.414750 0.076790 0.542400 -0.632365
O6    O     O_R   0.414750 0.923210 0.542400 -0.627604
O7    O     O_R   0.914750 0.576790 0.542400 -0.632365
O8    O     O_R   0.914750 0.423210 0.542400 -0.627691
C1    C     C_R   0.415116 0.106776 0.447361 0.941905
C2    C     C_R   0.412999 0.894884 0.444077 0.886711
C3    C     C_R   0.915123 0.606780 0.447362 0.941924
C4    C     C_R   0.913012 0.394883 0.444087 0.887155
Zn1   Zn    Zn3+2 0.522330 0.000000 0.387520 1.083412
Zn2   Zn    Zn3+2 0.022330 0.500000 0.387520 1.083358
Zn3   Zn    Zn3+2 0.477660 0.000000 0.612480 0.991393
Zn4   Zn    Zn3+2 0.977660 0.500000 0.612480 0.991458
O9    O     O_R   0.585240 0.923200 0.457600 -0.570754
O10   O     O_R   0.585240 0.076800 0.457600 -0.570298
O11   O     O_R   0.085240 0.423200 0.457600 -0.570726
O12   O     O_R   0.085240 0.576800 0.457600 -0.570295
O13   O     O_R   0.551780 0.923190 0.626070 -0.629166
O14   O     O_R   0.551780 0.076810 0.626070 -0.626247
O15   O     O_R   0.051780 0.423190 0.626070 -0.629219
O16   O     O_R   0.051780 0.576810 0.626070 -0.626217
C5    C     C_R   0.590244 0.898787 0.557209 0.881555
C6    C     C_R   0.589709 0.101955 0.556870 0.888808
C7    C     C_R   0.090234 0.398775 0.557203 0.881379
C8    C     C_R   0.089723 0.601940 0.556881 0.888927
C9    C     C_R   0.743079 0.191922 0.727320 -0.080193
C10   C     C_R   0.725901 0.787236 0.737146 -0.083513
C11   C     C_R   0.243224 0.691682 0.727338 -0.080156
C12   C     C_R   0.225867 0.287206 0.737145 -0.083610
H1    H     H_    0.657154 0.126709 0.761861 0.173805
H2    H     H_    0.641645 0.858793 0.764136 0.187914
H3    H     H_    0.157299 0.626456 0.761855 0.173641
H4    H     H_    0.141621 0.358778 0.764126 0.187889
H5    H     H_    0.767628 0.191859 0.810605 0.216140
H6    H     H_    0.745719 0.783939 0.822127 0.216391
H7    H     H_    0.267842 0.691503 0.810593 0.216057
H8    H     H_    0.245687 0.283921 0.822127 0.216395
C13   C     C_R   0.645632 0.155159 0.594046 -0.004405
C14   C     C_R   0.643401 0.842677 0.594865 -0.094095
C15   C     C_R   0.145695 0.655084 0.594090 -0.004301
C16   C     C_R   0.143370 0.342642 0.594855 -0.093934
C17   C     C_R   0.348715 0.810584 0.298509 -0.148136
C18   C     C_R   0.350216 0.197899 0.316384 -0.167207
C19   C     C_R   0.848687 0.310696 0.298511 -0.147889
C20   C     C_R   0.850250 0.697912 0.316374 -0.167315
C21   C     C_R   0.289774 0.765787 0.265938 0.235719
C22   C     C_R   0.278104 0.210743 0.283854 0.267502
C23   C     C_R   0.789586 0.266173 0.265930 0.236017
C24   C     C_R   0.778142 0.710784 0.283842 0.267521
C25   C     C_R   0.253150 0.735211 0.342280 -0.112005
C26   C     C_R   0.234718 0.214051 0.362978 -0.145357
C27   C     C_R   0.752999 0.235514 0.342224 -0.111991
C28   C     C_R   0.734756 0.714118 0.362961 -0.145234
C29   C     C_R   0.277051 0.747622 0.454687 -0.025555
C30   C     C_R   0.267197 0.225329 0.472174 0.023888
C31   C     C_R   0.776976 0.247743 0.454651 -0.025171
C32   C     C_R   0.767232 0.725379 0.472163 0.023884
C33   C     C_R   0.341588 0.784840 0.485415 -0.014242
C34   C     C_R   0.338270 0.206299 0.502328 -0.054681
C35   C     C_R   0.841542 0.284900 0.485396 -0.014775
C36   C     C_R   0.838299 0.706326 0.502321 -0.054648
C37   C     C_R   0.742282 0.221360 0.538062 0.054326
C38   C     C_R   0.732692 0.758392 0.550470 0.094955
C39   C     C_R   0.242358 0.721262 0.538110 0.053977
C40   C     C_R   0.232654 0.258344 0.550475 0.095056
C41   C     C_R   0.777074 0.221424 0.646487 0.017254
C42   C     C_R   0.762712 0.755818 0.660602 0.019407
C43   C     C_R   0.277165 0.721288 0.646516 0.017641
C44   C     C_R   0.262677 0.255783 0.660606 0.019384
C45   C     C_R   0.346310 0.746659 0.671776 0.204001
C46   C     C_R   0.331997 0.231323 0.690771 0.217416
C47   C     C_R   0.846237 0.246766 0.671768 0.203922
C48   C     C_R   0.832027 0.731346 0.690765 0.217456
C49   C     C_R   0.380173 0.773636 0.589962 -0.124983
C50   C     C_R   0.372301 0.215590 0.610632 -0.220725
C51   C     C_R   0.880129 0.273660 0.589928 -0.124655
C52   C     C_R   0.872330 0.715606 0.610627 -0.220764
C53   C     C_R   0.673298 0.195746 0.517604 -0.147899
C54   C     C_R   0.674248 0.804001 0.519673 -0.137582
C55   C     C_R   0.173364 0.695697 0.517675 -0.148696
C56   C     C_R   0.174206 0.303949 0.519667 -0.137616
C57   C     C_R   0.678918 0.156207 0.700516 -0.157650
C58   C     C_R   0.666401 0.830592 0.704214 -0.150494
C59   C     C_R   0.179039 0.656013 0.700536 -0.157717
C60   C     C_R   0.166371 0.330565 0.704206 -0.150313
C61   C     C_R   0.368810 0.828112 0.408774 -0.157474
C62   C     C_R   0.372769 0.175757 0.422650 -0.235332
C63   C     C_R   0.868808 0.328146 0.408777 -0.157020
C64   C     C_R   0.872793 0.675771 0.422646 -0.235301
H9    H     H_    0.640177 0.204604 0.441867 0.183602
H10   H     H_    0.655473 0.814907 0.436176 0.193303
H11   H     H_    0.140241 0.704637 0.441973 0.184524
H12   H     H_    0.155425 0.314840 0.436165 0.193260
C65   C     C_R   0.641450 0.979738 0.131077 -0.227178
C66   C     C_R   0.141444 0.479685 0.131083 -0.227189
H13   H     H_    0.669857 0.986869 0.935270 0.171054
H14   H     H_    0.169854 0.486838 0.935280 0.170942
H15   H     H_    0.695792 0.968786 0.125685 0.224825
H16   H     H_    0.195787 0.468735 0.125696 0.224863
N1    N     N_R   0.552340 0.000000 0.237260 -0.218622
N2    N     N_R   0.052340 0.500000 0.237260 -0.218803
C67   C     C_R   0.378230 0.994799 0.759471 0.052735
C68   C     C_R   0.878231 0.494771 0.759470 0.052970
C69   C     C_R   0.352274 0.984591 0.853363 -0.141619
C70   C     C_R   0.852279 0.484480 0.853353 -0.141806
C71   C     C_R   0.398842 0.982845 0.949172 0.006406
C72   C     C_R   0.898847 0.482694 0.949161 0.006751
C73   C     C_R   0.471113 0.995257 0.951809 0.048304
C74   C     C_R   0.971109 0.495167 0.951807 0.048371
C75   C     C_R   0.495022 0.999073 0.853352 0.285246
C76   C     C_R   0.995020 0.499039 0.853354 0.285365
C77   C     C_R   0.520927 0.998843 0.046857 -0.093558
C78   C     C_R   0.020917 0.498763 0.046859 -0.093333
C79   C     C_R   0.592610 0.990304 0.039731 0.065394
C80   C     C_R   0.092604 0.490243 0.039735 0.065624
C81   C     C_R   0.614880 0.991208 0.941134 -0.181646
C82   C     C_R   0.114876 0.491164 0.941141 -0.181651
C83   C     C_R   0.566441 0.998727 0.849005 -0.166329
C84   C     C_R   0.066440 0.498705 0.849013 -0.166269
C85   C     C_R   0.503176 0.011287 0.148829 0.290801
C86   C     C_R   0.003160 0.511213 0.148828 0.291319
C87   C     C_R   0.620055 0.980069 0.229874 0.383989
C88   C     C_R   0.120051 0.480052 0.229882 0.382889
N3    N     N_R   0.448170 0.000000 0.762060 -0.129421
N4    N     N_R   0.948170 0.500000 0.762060 -0.129378
H17   H     H_    0.343113 0.995060 0.683543 0.149314
H18   H     H_    0.843113 0.495051 0.683544 0.149275
H19   H     H_    0.377166 0.968998 0.018839 0.232685
H20   H     H_    0.877187 0.468759 0.018820 0.232538
H21   H     H_    0.296906 0.976301 0.851819 0.186306
H22   H     H_    0.796915 0.476148 0.851797 0.186318
H23   H     H_    0.585993 0.000956 0.775183 0.189872
H24   H     H_    0.085992 0.500962 0.775192 0.189808
N5    N     N_R   0.437508 0.044655 0.159883 0.199745
O17   O     O_R   0.392853 0.007087 0.204505 -0.374885
O18   O     O_R   0.415817 0.103449 0.102649 -0.329102
N6    N     N_R   0.937452 0.544485 0.159884 0.199712
O19   O     O_R   0.892847 0.506846 0.204519 -0.374996
O20   O     O_R   0.915689 0.603262 0.102663 -0.329081
N7    N     N_R   0.383808 0.739846 0.779019 0.227092
O21   O     O_R   0.403410 0.673784 0.817513 -0.313386
O22   O     O_R   0.397572 0.799724 0.838592 -0.335894
N8    N     N_R   0.364143 0.233472 0.801325 0.219623
O23   O     O_R   0.402108 0.290989 0.838817 -0.298856
O24   O     O_R   0.349853 0.181573 0.866449 -0.302073
N9    N     N_R   0.883706 0.240038 0.779056 0.227136
O25   O     O_R   0.902662 0.173958 0.818079 -0.313938
O26   O     O_R   0.898365 0.300044 0.837991 -0.335838
N10   N     N_R   0.864172 0.733488 0.801318 0.219634
O27   O     O_R   0.902088 0.791031 0.838839 -0.298927
O28   O     O_R   0.849937 0.681542 0.866410 -0.302018
C89   C     C_2   0.392585 0.830401 0.217197 1.079248
O29   O     O_2   0.365503 0.856178 0.130821 -0.575950
O30   O     O_R   0.464428 0.815486 0.237366 -0.759030
H25   H     H_    0.488552 0.830873 0.175804 0.347056
C90   C     C_2   0.402795 0.221230 0.250047 1.076471
O31   O     O_2   0.384409 0.251051 0.162962 -0.485424
O32   O     O_R   0.474116 0.213963 0.290382 -0.788925
H26   H     H_    0.504469 0.234141 0.239310 0.384545
C91   C     C_2   0.892805 0.330054 0.217311 1.077691
O33   O     O_2   0.865964 0.355495 0.130596 -0.575721
O34   O     O_R   0.964638 0.315117 0.238044 -0.759257
H27   H     H_    0.988956 0.330221 0.176562 0.347218
C92   C     C_2   0.902836 0.721161 0.249997 1.076330
O35   O     O_2   0.884456 0.750937 0.162878 -0.485407
O36   O     O_R   0.974155 0.713869 0.290322 -0.788635
H28   H     H_    0.004516 0.733962 0.239201 0.384658
C93   C     C_2   0.704874 0.174406 0.300138 0.956938
O37   O     O_2   0.727479 0.110162 0.299827 -0.551206
O38   O     O_R   0.637132 0.191379 0.248905 -0.764789
H29   H     H_    0.610534 0.144975 0.218414 0.345252
C94   C     C_2   0.658935 0.695291 0.334421 0.939732
O39   O     O_2   0.629864 0.662662 0.399465 -0.589206
O40   O     O_R   0.620825 0.713590 0.234137 -0.707360
H30   H     H_    0.570186 0.697338 0.225588 0.384981
C95   C     C_2   0.205156 0.673929 0.300406 0.958300
O41   O     O_2   0.228036 0.609823 0.299521 -0.551437
O42   O     O_R   0.137194 0.690649 0.249871 -0.764688
H31   H     H_    0.110712 0.644199 0.219317 0.345280
C96   C     C_2   0.158907 0.195168 0.334459 0.939758
O43   O     O_2   0.129844 0.162602 0.399569 -0.589356
O44   O     O_R   0.120804 0.213313 0.234109 -0.707590
H32   H     H_    0.070180 0.197010 0.225572 0.384786
N11   N     N_R   0.269555 0.746451 0.154562 0.224435
O45   O     O_R   0.210469 0.770690 0.101420 -0.294428
O46   O     O_R   0.308534 0.701545 0.107939 -0.321018
N12   N     N_R   0.249236 0.216282 0.172290 0.264283
O47   O     O_R   0.219279 0.278615 0.134600 -0.286879
O48   O     O_R   0.260258 0.162704 0.106406 -0.268139
N13   N     N_R   0.769177 0.247136 0.154540 0.224625
O49   O     O_R   0.711267 0.273897 0.100755 -0.292935
O50   O     O_R   0.806750 0.200213 0.108502 -0.321879
N14   N     N_R   0.749273 0.716297 0.172276 0.264240
O51   O     O_R   0.719387 0.778652 0.134533 -0.286741
O52   O     O_R   0.760234 0.662666 0.106435 -0.268088
C97   C     C_2   0.457957 0.771061 0.605866 0.967408
O53   O     O_2   0.493085 0.789258 0.691453 -0.553522
O54   O     O_R   0.490684 0.743639 0.523019 -0.774611
H33   H     H_    0.542804 0.736585 0.545694 0.360798
C98   C     C_2   0.450240 0.215974 0.639491 1.028342
O55   O     O_2   0.478766 0.185315 0.721493 -0.512035
O56   O     O_R   0.491841 0.252046 0.575175 -0.778424
H34   H     H_    0.463888 0.281946 0.514640 0.328384
C99   C     C_2   0.957918 0.270951 0.605737 0.967209
O57   O     O_2   0.993125 0.289055 0.691300 -0.553131
O58   O     O_R   0.990559 0.243543 0.522789 -0.774492
H35   H     H_    0.042691 0.236496 0.545346 0.360877
C100  C     C_2   0.950269 0.715974 0.639492 1.028308
O59   O     O_2   0.978786 0.685317 0.721499 -0.511951
O60   O     O_R   0.991879 0.752029 0.575175 -0.778420
H36   H     H_    0.963934 0.781935 0.514638 0.328364
N15   N     N_R   0.669880 0.956189 0.320587 0.243098
O61   O     O_R   0.685647 0.999463 0.404089 -0.325001
O62   O     O_R   0.711419 0.899894 0.309497 -0.385032
N16   N     N_R   0.169880 0.456221 0.320617 0.243249
O63   O     O_R   0.185638 0.499539 0.404072 -0.325535
O64   O     O_R   0.211425 0.399920 0.309588 -0.384870

loop_
_geom_bond_atom_site_label_1
_geom_bond_atom_site_label_2
_geom_bond_distance
_ccdc_geom_bond_type
C30   C34   1.408216 A    
C98   O55   1.221106 D    
C49   C97   1.490009 S    
C37   C41   1.425153 A    
C39   C55   1.398102 A    
O34   H27   1.014076 S    
C54   H10   1.077541 S    
C27   C31   1.437633 A    
C89   O30   1.399171 S    
C69   C71   1.386647 A    
O36   H28   1.013213 S    
C4    C63   1.486915 S    
C91   O33   1.221671 D    
O10   C6    1.320991 A    
C20   C92   1.488507 S    
C96   O43   1.223468 D    
N1    C85   1.359147 A    
C74   C76   1.404084 A    
O32   H26   1.013196 S    
N16   O63   1.298127 A    
C92   O36   1.398558 S    
C35   C51   1.422160 A    
O38   H29   1.012881 S    
H4    C60   1.082955 S    
O7    C3    1.319950 A    
C98   O56   1.398957 S    
C22   C26   1.414189 A    
Zn1   O10   1.941987 S    
C91   O34   1.399179 S    
N6    O20   1.300150 A    
C53   H9    1.073316 S    
C79   C81   1.388838 A    
C37   C53   1.398200 A    
C56   H12   1.077574 S    
C51   C99   1.490204 S    
C65   C87   1.383277 A    
C48   N10   1.434634 S    
N7    O21   1.301196 A    
C12   C60   1.389749 A    
C68   N4    1.356264 A    
C15   C55   1.389351 A    
C76   N4    1.345977 A    
C10   H6    1.082444 S    
N7    O22   1.301211 A    
H2    C58   1.082953 S    
O2    Zn1   1.971679 S    
H1    C57   1.083037 S    
O13   C5    1.310276 A    
C71   C73   1.416089 A    
O6    Zn3   1.941864 S    
H3    C59   1.083030 S    
C3    C64   1.475182 S    
Zn3   O14   1.971660 S    
C90   O31   1.223192 D    
C2    C61   1.487223 S    
C33   C49   1.422215 A    
C77   C79   1.416884 A    
C14   C54   1.384094 A    
C70   H22   1.082522 S    
C71   H19   1.069799 S    
C39   C43   1.425019 A    
C20   C64   1.401500 A    
C90   O32   1.398549 S    
C72   H20   1.069911 S    
H14   C82   1.084556 S    
O15   C7    1.310265 A    
O4    C4    1.311843 A    
O11   C7    1.324212 A    
C9    C57   1.389568 A    
C40   C44   1.419654 A    
C19   C91   1.487404 S    
C11   C43   1.412115 A    
C32   C38   1.410244 A    
C97   O53   1.222468 D    
O8    Zn4   1.941864 S    
C65   C79   1.380258 A    
Zn3   N3    2.069457 S    
O30   H25   1.014072 S    
C36   C52   1.428250 A    
N9    O26   1.300781 A    
C29   C39   1.427124 A    
N1    C87   1.377622 A    
C7    C16   1.452921 S    
C27   C93   1.471896 S    
C10   C42   1.408374 A    
C33   C61   1.412471 A    
C18   C22   1.409069 A    
C66   C80   1.380259 A    
N8    O24   1.300694 A    
C81   C83   1.376905 A    
C72   C74   1.416077 A    
C34   C50   1.428247 A    
C25   C95   1.472008 S    
C77   C85   1.407672 A    
C75   N3    1.345971 A    
C67   N3    1.356241 A    
C28   C94   1.494484 S    
C99   O57   1.222422 D    
C40   C56   1.392327 A    
Zn2   O12   1.941987 S    
C11   C59   1.389609 A    
N6    O19   1.299710 A    
C94   O40   1.397459 S    
C23   N13   1.438757 S    
C92   O35   1.223192 D    
C43   C45   1.402370 A    
C25   C29   1.437635 A    
N14   O51   1.301092 A    
C67   H17   1.081496 S    
O12   C8    1.321002 A    
N13   O50   1.301917 A    
O42   H31   1.012770 S    
C83   H23   1.067703 S    
C28   C32   1.433911 A    
C1    C62   1.475195 S    
O1    Zn1   1.962879 S    
N15   O61   1.298128 A    
N12   O47   1.301094 A    
O5    C1    1.319923 A    
C38   C54   1.392295 A    
C96   O44   1.397459 S    
C67   C69   1.380606 A    
Zn2   N2    2.082102 S    
C100  O59   1.221099 D    
C21   N11   1.439402 S    
O60   H36   1.012552 S    
O8    C4    1.335337 A    
O5    Zn3   1.940244 S    
C13   C53   1.389342 A    
C26   C30   1.433899 A    
O58   H35   1.011665 S    
O1    C1    1.323491 A    
C73   C75   1.404058 A    
C55   H11   1.073191 S    
C50   C98   1.495757 S    
N5    O18   1.300154 A    
C93   O37   1.218390 D    
C84   H24   1.067709 S    
O3    Zn2   1.962879 S    
C78   C80   1.416901 A    
C52   C100  1.495758 S    
C14   C58   1.399521 A    
C44   C46   1.402889 A    
O7    Zn4   1.940244 S    
C100  O60   1.398949 S    
N10   O28   1.300665 A    
C10   C58   1.389761 A    
O40   H30   1.013853 S    
Zn4   O15   1.962861 S    
O14   C6    1.316770 A    
Zn1   N1    2.082102 S    
C36   C64   1.406235 A    
C9    H5    1.082272 S    
O2    C2    1.311902 A    
C74   C78   1.413312 A    
C12   H8    1.082445 S    
C17   C61   1.418790 A    
C82   C84   1.376913 A    
O16   C8    1.316774 A    
C97   O54   1.398678 S    
N8    O23   1.300957 A    
C45   N7    1.434860 S    
C66   C88   1.383268 A    
C30   C40   1.410227 A    
C68   H18   1.081496 S    
O56   H34   1.012553 S    
N12   O48   1.301127 A    
C78   C86   1.407705 A    
C19   C63   1.418566 A    
Zn2   O11   1.940367 S    
C46   N8    1.434651 S    
C86   N6    1.430368 S    
C48   C52   1.407815 A    
C24   N14   1.433857 S    
C16   C56   1.384102 A    
C5    C14   1.452924 S    
O6    C2    1.335418 A    
C19   C23   1.398513 A    
C70   C72   1.386667 A    
C29   C33   1.413505 A    
C18   C62   1.401468 A    
C93   O38   1.397370 S    
C75   C83   1.396779 A    
C13   C57   1.394284 A    
N5    O17   1.299704 A    
C85   N5    1.430353 S    
C8    C15   1.457164 S    
C31   C35   1.413505 A    
O54   H33   1.011643 S    
Zn1   O9    1.940367 S    
N16   O64   1.301446 A    
C32   C36   1.408212 A    
O9    C5    1.324198 A    
N15   O62   1.301445 A    
C15   C59   1.394336 A    
N11   O45   1.300913 A    
C69   H21   1.082525 S    
C94   O39   1.223467 D    
C66   H16   1.085006 S    
N9    O25   1.300969 A    
C31   C37   1.427127 A    
C42   C48   1.402874 A    
C87   N15   1.436387 S    
O44   H32   1.013851 S    
C38   C42   1.419645 A    
Zn3   O13   1.962861 S    
C68   C70   1.380658 A    
C47   N9    1.435028 S    
C21   C25   1.405471 A    
C18   C90   1.488460 S    
C34   C62   1.406239 A    
C11   H7    1.082318 S    
C17   C21   1.398882 A    
C41   C47   1.402558 A    
C23   C27   1.405118 A    
Zn4   N4    2.069457 S    
O4    Zn2   1.971679 S    
C17   C89   1.487132 S    
C22   N12   1.433861 S    
C80   C82   1.388847 A    
N11   O46   1.301342 A    
N14   O52   1.301122 A    
O3    C3    1.323455 A    
H13   C81   1.084557 S    
C95   O41   1.218477 D    
C76   C84   1.396772 A    
C88   N16   1.436363 S    
C20   C24   1.409068 A    
N2    C88   1.377607 A    
N10   O27   1.300932 A    
Zn4   O16   1.971660 S    
N13   O49   1.301534 A    
C46   C50   1.407820 A    
C35   C63   1.412432 A    
C89   O29   1.221637 D    
C99   O58   1.398695 S    
C45   C49   1.404514 A    
C26   C96   1.494519 S    
C9    C41   1.412145 A    
C73   C77   1.413339 A    
C95   O42   1.397420 S    
N2    C86   1.359130 A    
C16   C60   1.399529 A    
C47   C51   1.404610 A    
C65   H15   1.085007 S    
C24   C28   1.414173 A    
C6    C13   1.457128 S    
C12   C44   1.408360 A    
