data_mof_unit_28104.cif
_audit_creation_date              2013-03-05T15:40:11-0500
_audit_creation_method            fapswitch 2.2
_symmetry_space_group_name_H-M    P1
_symmetry_Int_Tables_number       1
_space_group_crystal_system       triclinic
_cell_length_a                    10.836672
_cell_length_b                    10.85233
_cell_length_c                    15.332674
_cell_angle_alpha                 97.07632
_cell_angle_beta                  74.854189
_cell_angle_gamma                 98.654946
_cell_volume                      1714.05617631

loop_
_atom_site_label
_atom_site_type_symbol
_atom_site_description
_atom_site_fract_x
_atom_site_fract_y
_atom_site_fract_z
_atom_type_partial_charge
Zn1   Zn    Zn3+2 0.580150 0.419820 0.574680 1.043788
Zn2   Zn    Zn3+2 0.401380 0.373730 0.437510 0.988714
Zn3   Zn    Zn3+2 0.631680 0.593260 0.413140 0.988497
Zn4   Zn    Zn3+2 0.386790 0.613180 0.574670 1.023576
O1    O     O_3   0.500000 0.500000 0.500000 -0.503815
O2    O     O_R   0.212140 0.566330 0.564260 -0.633292
O3    O     O_R   0.764730 0.456770 0.540270 -0.631592
O4    O     O_R   0.412790 0.208310 0.468260 -0.696554
O5    O     O_R   0.610350 0.768590 0.427210 -0.662077
O6    O     O_R   0.463530 0.379110 0.309170 -0.622435
O7    O     O_R   0.388210 0.611730 0.699360 -0.608908
O8    O     O_R   0.624720 0.532760 0.292120 -0.631964
O9    O     O_R   0.523540 0.476390 0.699360 -0.643411
O10   O     O_R   0.537910 0.240570 0.564270 -0.579054
O11   O     O_R   0.438950 0.782540 0.540270 -0.594302
O12   O     O_R   0.222350 0.398740 0.468260 -0.635071
O13   O     O_R   0.800790 0.578160 0.427210 -0.641430
C1    C     C_R   0.157827 0.478380 0.520179 0.865214
C2    C     C_R   0.842396 0.521520 0.480093 0.911075
C3    C     C_R   0.466394 0.168007 0.521081 0.887691
C4    C     C_R   0.529905 0.834140 0.480722 0.796580
C5    C     C_R   0.554462 0.444814 0.257904 0.910830
C6    C     C_R   0.442404 0.551788 0.743486 0.862899
C7    C     C_R   0.639472 0.285840 0.020173 0.442395
H1    H     H_    0.576911 0.208426 0.861812 0.191882
C8    C     C_R   0.572908 0.418956 0.159746 -0.159230
C9    C     C_R   0.343082 0.666792 0.895169 -0.159456
C10   C     C_R   0.292564 0.667620 0.990389 0.420121
C11   C     C_R   0.314717 0.571999 0.036903 -0.175129
C12   C     C_R   0.406255 0.490996 0.989839 -0.002549
C13   C     C_R   0.422859 0.467012 0.895207 -0.029537
C14   C     C_R   0.481683 0.432430 0.032352 0.106875
C15   C     C_R   0.554063 0.336919 0.982463 -0.001597
C16   C     C_R   0.536316 0.291510 0.896446 -0.216396
C17   C     C_R   0.460533 0.348759 0.856022 -0.083827
C18   C     C_R   0.494469 0.473120 0.120329 -0.229059
C19   C     C_R   0.652843 0.330381 0.108356 -0.145027
C20   C     C_R   0.402240 0.561713 0.845365 -0.229639
H2    H     H_    0.444180 0.548425 0.159730 0.125281
C21   C     C_2   0.979829 0.530663 0.472636 -0.348628
H3    H     H_    0.046864 0.586726 0.422302 0.139001
C22   C     C_2   0.022150 0.470224 0.527568 -0.278804
H4    H     H_    0.957302 0.412872 0.577913 0.169506
C23   C     C_2   0.542624 0.969328 0.475362 0.152752
C24   C     C_2   0.450225 0.035470 0.527279 0.274005
C25   C     C_2   0.753395 0.287711 0.144167 0.910593
O14   O     O_2   0.738951 0.284652 0.225673 -0.677979
O15   O     O_R   0.867064 0.253816 0.084351 -0.740099
H5    H     H_    0.928251 0.227674 0.116648 0.346122
O16   O     O_3   0.656068 0.032837 0.426130 -0.658487
C26   C     C_3   0.682461 0.992439 0.332422 0.106708
H6    H     H_    0.676366 0.071891 0.295306 0.190822
H7    H     H_    0.612960 0.913736 0.313126 0.112532
C27   C     C_3   0.819907 0.957123 0.301596 -0.295961
H8    H     H_    0.888732 0.038999 0.316360 0.231911
H9    H     H_    0.828635 0.879836 0.339976 0.247593
C28   C     C_3   0.856785 0.915866 0.200459 -0.909051
H10   H     H_    0.786816 0.836766 0.183340 0.271740
H11   H     H_    0.954008 0.884673 0.181921 0.286731
H12   H     H_    0.859560 0.995264 0.160589 0.260792
O17   O     O_3   0.341456 0.980572 0.586798 -0.614704
C29   C     C_3   0.228410 0.987992 0.558628 0.055557
H13   H     H_    0.167919 0.895887 0.566595 0.180082
H14   H     H_    0.246772 0.004309 0.485549 0.114311
C30   C     C_3   0.152135 0.088062 0.619365 -0.274089
H15   H     H_    0.126064 0.064163 0.690885 0.263593
H16   H     H_    0.211971 0.180623 0.615735 0.236490
C31   C     C_3   0.029505 0.097777 0.590694 -0.923851
H17   H     H_    0.053767 0.124892 0.520075 0.270649
H18   H     H_    0.976155 0.170304 0.636333 0.274561
H19   H     H_    0.966395 0.006907 0.595042 0.267452
O18   O     O_3   0.717773 0.199868 0.968140 -0.595762
C32   C     C_3   0.651490 0.076687 0.971272 0.061480
H20   H     H_    0.660588 0.035454 0.900196 0.185801
H21   H     H_    0.546263 0.071802 0.003900 0.104698
C33   C     C_3   0.715059 0.997288 0.018817 -0.303629
H22   H     H_    0.820829 0.008764 0.988907 0.271812
H23   H     H_    0.696599 0.030313 0.091946 0.202000
C34   C     C_3   0.664134 0.858420 0.009469 -0.949257
H24   H     H_    0.563906 0.841248 0.050987 0.251709
H25   H     H_    0.724293 0.803264 0.034337 0.279121
H26   H     H_    0.667776 0.825119 0.937466 0.282033
C35   C     C_2   0.329615 0.775012 0.849319 0.966280
O19   O     O_2   0.223996 0.810151 0.860840 -0.575641
O20   O     O_R   0.438652 0.838070 0.794212 -0.814717
H27   H     H_    0.417581 0.910353 0.766877 0.379854
C36   C     C_2   0.224723 0.540279 0.125761 0.940637
O21   O     O_2   0.214476 0.435262 0.150260 -0.627256
O22   O     O_R   0.146436 0.626433 0.179223 -0.783494
H28   H     H_    0.088850 0.591962 0.236642 0.339384
O23   O     O_3   0.211491 0.754925 0.036390 -0.573721
C37   C     C_3   0.283665 0.870489 0.056492 0.122822
H29   H     H_    0.235191 0.946338 0.042317 0.184190
H30   H     H_    0.384096 0.882874 0.013477 0.092436
C38   C     C_3   0.283968 0.887247 0.157212 -0.342569
H31   H     H_    0.182979 0.875651 0.198891 0.261354
H32   H     H_    0.335902 0.814690 0.172184 0.217773
C39   C     C_3   0.348354 0.016153 0.184358 -0.967488
H33   H     H_    0.453132 0.025152 0.152398 0.257299
H34   H     H_    0.335136 0.028169 0.259092 0.270203
H35   H     H_    0.305040 0.091296 0.164166 0.287016
C40   C     C_2   0.402808 0.271613 0.785503 0.973043
O24   O     O_2   0.455838 0.184196 0.741403 -0.580089
O25   O     O_R   0.285337 0.292029 0.771252 -0.818239
H36   H     H_    0.238627 0.354561 0.817936 0.309003

loop_
_geom_bond_atom_site_label_1
_geom_bond_atom_site_label_2
_geom_bond_distance
_ccdc_geom_bond_type
C36   O21   1.223890 D    
C32   H20   1.111115 S    
C38   H31   1.111215 S    
C33   C34   1.527769 S    
C17   C40   1.494690 S    
C38   C39   1.526959 S    
O20   H27   1.013943 S    
O6    C5    1.272467 A    
C29   H13   1.111202 S    
Zn1   O1    1.953280 S    
C14   C18   1.402241 A    
C10   C11   1.410643 A    
C33   H23   1.109530 S    
C1    C22   1.434811 S    
C12   C13   1.410685 A    
C28   H11   1.110200 S    
C9    C20   1.429744 A    
O8    C5    1.277686 A    
O9    C6    1.292141 A    
C16   C17   1.399652 A    
C24   O17   1.391972 S    
C29   H14   1.117245 S    
Zn3   O8    1.907335 S    
C25   O14   1.222216 D    
C31   H17   1.111115 S    
C30   H16   1.109709 S    
Zn2   O12   1.925842 S    
C3    C24   1.434464 S    
H1    C16   1.080668 S    
C21   C22   1.333573 D    
C32   H21   1.115186 S    
C40   O24   1.220826 D    
O25   H36   1.011664 S    
C15   C16   1.401118 A    
C25   O15   1.398807 S    
O2    C1    1.262568 A    
C27   H9    1.110538 S    
C26   H6    1.108755 S    
O10   C3    1.270931 A    
C33   H22   1.111764 S    
Zn4   O2    1.927240 S    
O23   C37   1.419544 S    
C34   H25   1.110059 S    
O18   C32   1.419186 S    
C28   H12   1.108798 S    
O16   C26   1.416402 S    
C37   C38   1.533378 S    
C26   H7    1.115733 S    
C11   C12   1.417603 A    
Zn3   O5    1.930170 S    
C4    C23   1.463239 S    
C35   O19   1.223007 D    
C30   C31   1.526175 S    
C37   H30   1.113672 S    
C7    C19   1.415284 A    
O4    C3    1.262628 A    
Zn4   O7    1.917927 S    
C40   O25   1.399830 S    
C8    C18   1.392715 A    
C21   H3    1.087749 S    
C35   O20   1.398496 S    
C30   H15   1.111633 S    
C39   H34   1.110667 S    
C36   O22   1.397261 S    
C32   C33   1.531088 S    
C13   C17   1.419187 A    
Zn2   O1    1.925823 S    
Zn1   O9    1.902397 S    
C22   H4    1.086437 S    
C39   H35   1.111084 S    
C23   C24   1.345554 D    
C7    O18   1.388553 S    
C23   O16   1.394417 S    
C27   H8    1.111863 S    
O15   H5    1.013982 S    
C29   C30   1.532508 S    
Zn1   O3    1.923371 S    
C18   H2    1.081752 S    
Zn2   O4    1.940646 S    
Zn4   O1    1.922910 S    
Zn3   O1    1.933550 S    
C34   H26   1.110934 S    
C38   H32   1.111253 S    
C8    C19   1.415112 A    
C6    C20   1.502841 S    
O3    C2    1.276486 A    
C7    C15   1.418191 A    
C13   C20   1.428993 A    
C26   C27   1.532344 S    
C14   C15   1.417931 A    
Zn4   O11   1.935495 S    
C9    C35   1.484401 S    
C19   C25   1.493464 S    
C12   C14   1.426113 A    
O5    C4    1.268183 A    
C28   H10   1.110536 S    
C31   H19   1.110884 S    
O7    C6    1.287184 A    
C37   H29   1.111127 S    
O13   C2    1.278990 A    
Zn3   O13   1.933251 S    
C10   O23   1.388921 S    
O17   C29   1.417217 S    
C11   C36   1.498665 S    
C2    C21   1.452698 S    
C34   H24   1.107560 S    
O11   C4    1.268184 A    
O12   C1    1.261385 A    
C39   H33   1.107503 S    
C5    C8    1.462671 S    
C9    C10   1.418406 A    
C31   H18   1.110525 S    
Zn1   O10   1.926863 S    
O22   H28   1.014023 S    
C27   C28   1.524402 S    
Zn2   O6    1.911325 S    
