data_mof_unit_45443.cif
_audit_creation_date              2012-10-26T18:44:52-0400
_audit_creation_method            fapswitch 2.2
_symmetry_space_group_name_H-M    P1
_symmetry_Int_Tables_number       1
_space_group_crystal_system       triclinic
_cell_length_a                    16.024388
_cell_length_b                    14.769399
_cell_length_c                    10.852473
_cell_angle_alpha                 90.017637
_cell_angle_beta                  90.35539
_cell_angle_gamma                 90.235855
_cell_volume                      2568.38976766

loop_
_atom_site_label
_atom_site_type_symbol
_atom_type_description
_atom_site_fract_x
_atom_site_fract_y
_atom_site_fract_z
_atom_type_partial_charge
C1    C     C_1   0.252120 0.499523 0.491147 0.034775
C2    C     C_R   0.574283 0.048219 0.482567 -0.094887
C3    C     C_R   0.956322 0.583787 0.477470 0.031467
C4    C     C_R   0.043132 0.416654 0.472396 0.050900
C5    C     C_R   0.044569 0.583333 0.478085 0.019120
C6    C     C_R   0.954913 0.417151 0.469882 0.021358
C7    C     C_R   0.340939 0.499838 0.498233 0.548412
C8    C     C_R   0.658984 0.500154 0.497249 0.549961
C9    C     C_R   0.499661 0.499968 0.262303 0.518111
C10   C     C_R   0.500582 0.500031 0.737920 0.521597
C11   C     C_R   0.912074 0.500643 0.474475 0.067340
C12   C     C_1   0.747586 0.500452 0.488115 0.019965
C13   C     C_R   0.087427 0.499737 0.477484 0.080832
C14   C     C_1   0.500019 0.802710 0.499896 0.147245
C15   C     C_1   0.499971 0.197289 0.499903 0.148336
C16   C     C_1   0.822307 0.500692 0.480650 -0.017017
C17   C     C_1   0.177277 0.499379 0.484548 0.018149
C18   C     C_R   0.633915 0.582956 0.130729 -0.143266
C19   C     C_R   0.365266 0.417490 0.871399 -0.137475
C20   C     C_R   0.636003 0.582136 0.875472 -0.139306
C21   C     C_R   0.366119 0.416280 0.126617 -0.122659
C22   C     C_R   0.698760 0.627364 0.070057 0.227267
C23   C     C_R   0.500443 0.500062 0.871743 0.019463
C24   C     C_R   0.300352 0.373543 0.933847 0.236616
C25   C     C_R   0.701200 0.624884 0.940294 0.228773
C26   C     C_R   0.301717 0.371586 0.063783 0.263403
C27   C     C_R   0.567269 0.542071 0.936750 -0.034665
C28   C     C_R   0.433527 0.457535 0.064158 -0.043108
C29   C     C_R   0.566708 0.542037 0.066129 -0.033494
C30   C     C_R   0.433496 0.457788 0.934814 -0.034713
C31   C     C_3   0.091746 0.672970 0.480608 -0.378021
C32   C     C_3   0.907708 0.327613 0.463551 -0.379190
C33   C     C_3   0.910733 0.673855 0.481145 -0.299584
C34   C     C_R   0.499922 0.499878 0.128772 0.018269
C35   C     C_3   0.088609 0.326540 0.470692 -0.323879
C36   C     C_R   0.500002 0.902858 0.499776 0.003630
C37   C     C_R   0.499969 0.097138 0.499780 0.005078
C38   C     C_R   0.574300 0.952428 0.482542 -0.089821
C39   C     C_R   0.425661 0.047566 0.516914 -0.090086
C40   C     C_R   0.425683 0.951778 0.516925 -0.095443
Cu1   Cu    Cu3+1 0.500000 0.589220 0.500000 1.021545
Cu2   Cu    Cu3+1 0.500000 0.410780 0.500000 1.010957
H1    H     H_    0.632572 0.084152 0.469098 0.126071
H2    H     H_    0.074351 0.714065 0.398878 0.155507
H3    H     H_    0.076219 0.710878 0.565687 0.152511
H4    H     H_    0.839010 0.334650 0.459322 0.142346
H5    H     H_    0.925971 0.289912 0.379532 0.157283
H6    H     H_    0.922300 0.286248 0.546212 0.148387
H7    H     H_    0.842000 0.667451 0.481286 0.227806
H8    H     H_    0.928301 0.711470 0.566026 0.166456
H9    H     H_    0.927207 0.714923 0.399150 0.181189
H10   H     H_    0.157257 0.332974 0.473749 0.189144
H11   H     H_    0.070404 0.285503 0.551918 0.164914
H12   H     H_    0.367395 0.915845 0.530405 0.125231
H13   H     H_    0.072816 0.288938 0.385082 0.167556
H14   H     H_    0.239891 0.238448 0.322216 0.357131
H15   H     H_    0.805046 0.566433 0.724094 0.334661
H16   H     H_    0.264209 0.315990 0.657487 0.344470
H17   H     H_    0.689210 0.747787 0.289694 0.343458
H18   H     H_    0.367365 0.082986 0.530374 0.130240
H19   H     H_    0.632590 0.917005 0.469026 0.138538
H20   H     H_    0.637177 0.580805 0.229967 0.174714
H21   H     H_    0.361544 0.419992 0.772233 0.165778
H22   H     H_    0.639933 0.580406 0.776243 0.174022
H23   H     H_    0.362442 0.418477 0.225785 0.188203
H24   H     H_    0.160481 0.666111 0.478845 0.141015
N1    N     N_1   0.500000 0.276710 0.500000 -0.181564
N2    N     N_1   0.500000 0.723290 0.500000 -0.181787
O1    O     O_R   0.380310 0.575320 0.500020 -0.498225
O2    O     O_2   0.200271 0.227128 0.097599 -0.204049
O3    O     O_3   0.263148 0.297715 0.296634 -0.575331
O4    O     O_2   0.770388 0.773723 0.844398 -0.194685
O5    O     O_2   0.866705 0.656184 0.915208 -0.189051
O6    O     O_3   0.785288 0.629269 0.711994 -0.555011
O7    O     O_2   0.228436 0.221620 0.848573 -0.240418
O8    O     O_2   0.135762 0.348127 0.895699 -0.156869
O9    O     O_3   0.224285 0.357446 0.697750 -0.564501
O10   O     O_2   0.849744 0.624838 0.176038 -0.219589
O11   O     O_2   0.799729 0.772650 0.105797 -0.191239
O12   O     O_R   0.619690 0.424680 0.499980 -0.501730
O13   O     O_3   0.735334 0.704424 0.303481 -0.552623
O14   O     O_R   0.619690 0.575320 0.499980 -0.465777
O15   O     O_R   0.380310 0.424680 0.500020 -0.485420
O16   O     O_R   0.499990 0.575350 0.319650 -0.505241
O17   O     O_R   0.500010 0.424650 0.680350 -0.503402
O18   O     O_R   0.500010 0.575350 0.680350 -0.493488
O19   O     O_R   0.499990 0.424650 0.319650 -0.493899
O20   O     O_2   0.149285 0.375651 0.163157 -0.233911
S1    S     S_3+6 0.224926 0.316298 0.154048 0.046281
S2    S     S_3+6 0.783756 0.673366 0.854394 0.071400
S3    S     S_3+6 0.219537 0.322875 0.845004 0.068023
S4    S     S_3+6 0.774227 0.684064 0.162585 0.049518

loop_
_geom_bond_atom_site_label_1
_geom_bond_atom_site_label_2
_ccdc_geom_bond_type
C31   H24   S    
C6    C32   S    
C21   C26   A    
C10   O17   A    
Cu2   O12   S    
C27   C29   A    
Cu1   Cu2   S    
C7    O15   A    
C26   S1    S    
Cu1   O18   S    
C25   S2    S    
C8    O14   A    
C24   C26   A    
O5    S2    D    
C14   C36   S    
C35   H11   S    
C20   C25   A    
C3    C33   S    
C33   H7    S    
C4    C13   A    
C15   C37   S    
H16   O9    S    
O13   S4    S    
O9    S3    S    
C12   C16   T    
C19   H21   S    
C22   C25   A    
C23   C27   A    
C5    C13   A    
O7    S3    D    
C38   H19   S    
C4    C35   S    
C28   C34   A    
C18   C22   A    
C32   H6    S    
Cu1   N2    S    
C31   H2    S    
C35   H13   S    
C23   C30   A    
C36   C40   A    
C4    C6    A    
C6    C11   A    
C18   C29   A    
C18   H20   S    
O8    S3    D    
O10   S4    D    
C33   H8    S    
Cu1   O16   S    
C29   C34   A    
H15   O6    S    
C20   H22   S    
O4    S2    D    
C11   C16   S    
C2    C38   A    
O3    S1    S    
C2    H1    S    
C8    C12   S    
H14   O3    S    
C15   N1    T    
Cu2   O17   S    
O11   S4    D    
C39   H18   S    
C21   C28   A    
C40   H12   S    
Cu2   N1    S    
C32   H5    S    
O2    S1    D    
C24   S3    S    
C39   C40   A    
Cu1   O1    S    
C10   O18   A    
C14   N2    T    
C21   H23   S    
C1    C7    S    
C32   H4    S    
Cu2   O15   S    
H17   O13   S    
C3    C5    A    
C7    O1    A    
C20   C27   A    
C10   C23   S    
C33   H9    S    
C1    C17   T    
C13   C17   S    
O6    S2    S    
C36   C38   A    
C19   C24   A    
C37   C39   A    
C9    O19   A    
C2    C37   A    
C9    C34   S    
Cu1   O14   S    
C28   C30   A    
C3    C11   A    
C9    O16   A    
O20   S1    D    
C31   H3    S    
C35   H10   S    
C8    O12   A    
C22   S4    S    
Cu2   O19   S    
C19   C30   A    
C5    C31   S    
