data_mof_unit_32228.cif
_audit_creation_date              2012-12-11T16:57:21-0500
_audit_creation_method            fapswitch 2.2
_symmetry_space_group_name_H-M    P1
_symmetry_Int_Tables_number       1
_space_group_crystal_system       triclinic
_cell_length_a                    14.472499
_cell_length_b                    16.328973
_cell_length_c                    6.923883
_cell_angle_alpha                 90.152813
_cell_angle_beta                  98.395597
_cell_angle_gamma                 89.884871
_cell_volume                      1618.7164606

loop_
_atom_site_label
_atom_site_type_symbol
_atom_type_description
_atom_site_fract_x
_atom_site_fract_y
_atom_site_fract_z
_atom_type_partial_charge
O1    O     O_R   0.584990 0.413650 0.534420 -0.550648
O2    O     O_R   0.584990 0.586350 0.534420 -0.547992
O3    O     O_R   0.596190 0.585230 0.208380 -0.537909
O4    O     O_R   0.596190 0.414770 0.208380 -0.532675
O5    O     O_R   0.415010 0.586420 0.976930 -0.546869
O6    O     O_R   0.415010 0.413580 0.976930 -0.546058
C1    C     C_R   0.620140 0.613149 0.384796 0.703946
C2    C     C_R   0.620288 0.386766 0.384811 0.716318
O7    O     O_3   0.440560 0.500000 0.319140 -0.371204
V1    V     V_3+5 0.511030 0.500000 0.068070 1.401822
O8    O     O_R   0.403810 0.414840 0.643540 -0.539130
O9    O     O_R   0.403810 0.585160 0.643540 -0.542087
C3    C     C_R   0.378990 0.388111 0.807000 0.700904
C4    C     C_R   0.385084 0.616636 0.808485 0.704923
V2    V     V_3+5 0.488970 0.500000 0.560620 1.379549
O10   O     O_3   0.559440 0.500000 0.859420 -0.381641
C5    C     C_2   0.320380 0.688356 0.807258 -0.066259
C6    C     C_2   0.307725 0.321731 0.802316 -0.052560
C7    C     C_2   0.314230 0.735721 0.969833 0.202545
C8    C     C_2   0.266720 0.300323 0.962203 0.257792
C9    C     C_2   0.191898 0.816159 0.102950 0.151617
C10   C     C_2   0.196777 0.179716 0.105056 0.123638
C11   C     C_2   0.248679 0.807164 0.963399 0.393439
C12   C     C_2   0.197476 0.232594 0.952311 0.378822
C13   C     C_R   0.675820 0.748940 0.529511 -0.058684
C14   C     C_R   0.677691 0.252416 0.536176 -0.046026
C15   C     C_R   0.690627 0.680558 0.415363 -0.269999
C16   C     C_R   0.691448 0.319486 0.416734 -0.294910
C17   C     C_R   0.771525 0.683512 0.318514 0.423486
C18   C     C_R   0.772743 0.316947 0.321396 0.434343
C19   C     C_R   0.834211 0.751234 0.346321 0.175394
C20   C     C_R   0.835783 0.249583 0.349101 0.175226
C21   C     C_R   0.820803 0.816185 0.478178 -0.232862
C22   C     C_R   0.822698 0.185164 0.480940 -0.253278
C23   C     C_R   0.737892 0.813812 0.559066 -0.014869
C24   C     C_R   0.741776 0.188220 0.568469 0.019924
C25   C     C_3   0.711644 0.834975 0.754069 0.065946
C26   C     C_3   0.729429 0.178208 0.777264 0.054587
C27   C     C_3   0.642781 0.762651 0.723534 0.461539
C28   C     C_3   0.657140 0.246913 0.743406 0.507544
H1    H     H_    0.770266 0.827444 0.875943 0.129093
H2    H     H_    0.793356 0.193238 0.881112 0.106218
O11   O     O_R   0.921430 0.915960 0.371040 -0.544894
O12   O     O_R   0.921430 0.084040 0.371040 -0.545166
O13   O     O_R   0.910450 0.087500 0.697310 -0.547130
O14   O     O_R   0.910450 0.912500 0.697310 -0.543184
O15   O     O_R   0.091710 0.087460 0.928430 -0.538911
O16   O     O_R   0.091710 0.912540 0.928430 -0.516697
C29   C     C_R   0.889930 0.115656 0.520199 0.745108
C30   C     C_R   0.888664 0.885216 0.519283 0.741514
O17   O     O_3   0.065970 0.000000 0.586140 -0.356083
V3    V     V_3+5 0.995640 0.000000 0.837400 1.469272
O18   O     O_R   0.103020 0.915700 0.261710 -0.542068
O19   O     O_R   0.103020 0.084300 0.261710 -0.546530
C31   C     C_R   0.125989 0.886676 0.098909 0.682518
C32   C     C_R   0.124664 0.114318 0.099099 0.669299
V4    V     V_3+5 0.017940 0.000000 0.344880 1.438070
O20   O     O_3   0.947330 0.000000 0.046180 -0.382660
O21   O     O_3   0.250389 0.867539 0.823978 -0.643315
H3    H     H_    0.303941 0.856883 0.753026 0.313352
O22   O     O_3   0.127780 0.231001 0.793705 -0.644132
H4    H     H_    0.144601 0.186179 0.708263 0.307263
N1    N     N_3   0.667505 0.697965 0.868302 -0.643132
H5    H     H_    0.613106 0.655674 0.858793 0.260632
H6    H     H_    0.727131 0.666756 0.838922 0.241353
N2    N     N_3   0.684990 0.317999 0.867590 -0.637950
H7    H     H_    0.739087 0.349820 0.816031 0.232787
H8    H     H_    0.628322 0.357612 0.864573 0.267814
N3    N     N_3   0.373666 0.723258 0.152989 -0.656542
H9    H     H_    0.443662 0.723612 0.131171 0.237353
H10   H     H_    0.356591 0.668089 0.215099 0.264126
N4    N     N_3   0.282997 0.344647 0.143869 -0.649935
H11   H     H_    0.269170 0.406918 0.119203 0.234502
H12   H     H_    0.351506 0.334999 0.211742 0.263138
O23   O     O_3   0.189918 0.754905 0.239067 -0.653449
H13   H     H_    0.140616 0.767988 0.319676 0.303114
O24   O     O_3   0.267857 0.184270 0.261323 -0.647145
H14   H     H_    0.261218 0.138409 0.351681 0.306280
N5    N     N_3   0.262995 0.708201 0.627541 -0.651609
H15   H     H_    0.308034 0.721222 0.526810 0.279812
H16   H     H_    0.224321 0.656156 0.579236 0.254158
N6    N     N_3   0.284036 0.277135 0.623704 -0.644596
H17   H     H_    0.255089 0.318491 0.516729 0.286793
H18   H     H_    0.345926 0.254051 0.583579 0.260031
O25   O     O_3   0.795857 0.619877 0.204168 -0.612980
H19   H     H_    0.763164 0.569720 0.234908 0.279884
O26   O     O_3   0.797569 0.381188 0.210447 -0.606147
H20   H     H_    0.764050 0.431046 0.241454 0.278810
N7    N     N_3   0.915308 0.748553 0.249594 -0.600213
H21   H     H_    0.912001 0.796890 0.150293 0.227518
H22   H     H_    0.974803 0.755081 0.353836 0.214372
N8    N     N_3   0.917704 0.252648 0.254877 -0.589461
H23   H     H_    0.976853 0.247138 0.360571 0.236890
H24   H     H_    0.916207 0.203822 0.156821 0.226794
N9    N     N_3   0.666981 0.915426 0.753582 -0.643853
H25   H     H_    0.633930 0.919585 0.877838 0.265425
H26   H     H_    0.615795 0.922029 0.631144 0.285303
N10   N     N_3   0.689850 0.098663 0.813012 -0.581950
H27   H     H_    0.744431 0.056269 0.821157 0.248113
H28   H     H_    0.670256 0.100576 0.952473 0.253193
O27   O     O_3   0.548351 0.785898 0.707049 -0.639411
H29   H     H_    0.511434 0.740177 0.640233 0.283313
O28   O     O_3   0.565566 0.220970 0.755299 -0.609159
H30   H     H_    0.523211 0.263309 0.688608 0.277448

loop_
_geom_bond_atom_site_label_1
_geom_bond_atom_site_label_2
_ccdc_geom_bond_type
O12   C29   A    
O16   C31   A    
N2    H8    S    
O26   H20   S    
N1    H6    S    
C12   O22   S    
C15   C17   A    
O1    C2    A    
N9    H25   S    
O4    C2    A    
O25   H19   S    
C11   O21   S    
O27   H29   S    
C3    C6    S    
C23   C25   S    
C26   H2    S    
O3    C1    A    
V2    O10   S    
O14   V3    S    
C5    N5    S    
C1    C15   S    
C25   N9    S    
N3    H10   S    
O2    C1    A    
C5    C7    D    
O8    V2    S    
C8    C12   S    
C19   N7    S    
C19   C21   A    
O17   V4    S    
N7    H22   S    
O7    V1    S    
C17   O25   S    
C26   N10   S    
N2    H7    S    
O21   H3    S    
C28   N2    S    
C4    C5    S    
N3    H9    S    
C18   O26   S    
C6    N6    S    
C27   O27   S    
O18   C31   A    
O19   C32   A    
O17   V3    S    
C18   C20   A    
N4    H12   S    
C9    C31   S    
O18   V4    S    
C10   C32   S    
O13   V3    S    
C21   C30   S    
O24   H14   S    
N5    H15   S    
C20   C22   A    
C7    C11   S    
O23   H13   S    
O9    V2    S    
O13   C29   A    
O12   V4    S    
N8    H24   S    
O2    V2    S    
O5    C4    A    
V3    O20   S    
C13   C23   A    
O1    V2    S    
C14   C24   A    
O9    C4    A    
N10   H27   S    
N6    H18   S    
C9    C11   D    
C2    C16   S    
C10   C12   D    
C7    N3    S    
O4    V1    S    
N5    H16   S    
O14   C30   A    
C22   C29   S    
C10   O24   S    
N4    H11   S    
O6    V1    S    
N9    H26   S    
O11   C30   A    
O15   V3    S    
C13   C15   A    
C27   N1    S    
C9    O23   S    
C14   C16   A    
C16   C18   A    
O7    V2    S    
O5    V1    S    
C17   C19   A    
O3    V1    S    
V1    O10   S    
C13   C27   S    
O6    C3    A    
C26   C28   S    
O8    C3    A    
C14   C28   S    
V4    O20   S    
C20   N8    S    
C24   C26   S    
N8    H23   S    
C21   C23   A    
C22   C24   A    
C6    C8    D    
C25   H1    S    
O22   H4    S    
N10   H28   S    
O11   V4    S    
N1    H5    S    
O16   V3    S    
C25   C27   S    
N6    H17   S    
O28   H30   S    
C8    N4    S    
N7    H21   S    
O15   C32   A    
C28   O28   S    
O19   V4    S    
