data_mof_unit_33635.cif
_audit_creation_date              2012-10-26T19:15:58-0400
_audit_creation_method            fapswitch 2.2
_symmetry_space_group_name_H-M    P1
_symmetry_Int_Tables_number       1
_space_group_crystal_system       triclinic
_cell_length_a                    7.771637
_cell_length_b                    9.096847
_cell_length_c                    16.990361
_cell_angle_alpha                 89.619375
_cell_angle_beta                  93.397692
_cell_angle_gamma                 90.020644
_cell_volume                      1199.03636068

loop_
_atom_site_label
_atom_site_type_symbol
_atom_type_description
_atom_site_fract_x
_atom_site_fract_y
_atom_site_fract_z
_atom_type_partial_charge
C1    C     C_R   0.499968 0.219965 0.500020 0.554243
C2    C     C_R   0.632784 0.495575 0.142838 0.032320
C3    C     C_R   0.505786 0.440416 0.902446 0.189178
C4    C     C_R   0.494215 0.559587 0.097554 0.189178
C5    C     C_R   0.648634 0.382129 0.865243 0.035388
C6    C     C_R   0.351366 0.617872 0.134757 0.035387
C7    C     C_R   0.663401 0.405880 0.783088 -0.002921
C8    C     C_R   0.336599 0.594119 0.216912 -0.002921
C9    C     C_1   0.499974 0.065353 0.500010 -0.046129
C10   C     C_1   0.500026 0.934646 0.499990 -0.046129
C11   C     C_2   0.796314 0.457078 0.106882 0.215300
C12   C     C_R   0.500032 0.780035 0.499980 0.554244
C13   C     C_2   0.203687 0.542925 0.893118 0.215301
C14   C     C_3   0.782432 0.292647 0.913041 -0.368169
C15   C     C_3   0.217569 0.707355 0.086959 -0.368170
C16   C     C_3   0.820299 0.352594 0.742317 -0.340659
C17   C     C_3   0.179698 0.647402 0.257682 -0.340658
C18   C     C_R   0.520467 0.493380 0.651847 0.540873
C19   C     C_R   0.479533 0.506619 0.348153 0.540873
C20   C     C_R   0.526753 0.478018 0.738785 -0.021439
C21   C     C_R   0.473247 0.521983 0.261215 -0.021439
C22   C     C_R   0.380773 0.524268 0.776484 -0.135277
C23   C     C_R   0.619228 0.475734 0.223516 -0.135278
C24   C     C_R   0.367217 0.504428 0.857162 0.032320
Cu1   Cu    Cu3+1 0.669080 0.500010 0.500000 1.015723
Cu2   Cu    Cu3+1 0.330920 0.499990 0.500000 1.015722
H1    H     H_    0.725801 0.425380 0.257831 0.180368
H2    H     H_    0.253610 0.730130 0.025985 0.169434
H3    H     H_    0.917355 0.294858 0.781376 0.126580
H4    H     H_    0.779750 0.275031 0.694543 0.140864
H5    H     H_    0.888269 0.447997 0.717460 0.183708
H6    H     H_    0.082640 0.705134 0.218623 0.126581
H7    H     H_    0.111731 0.551997 0.282539 0.183709
H8    H     H_    0.220244 0.724966 0.305456 0.140864
H9    H     H_    0.274200 0.574622 0.742170 0.180369
H10   H     H_    0.820509 0.495322 0.047978 0.137313
H11   H     H_    0.179494 0.504684 0.952023 0.137314
H12   H     H_    0.797133 0.183389 0.885489 0.133058
H13   H     H_    0.907743 0.351242 0.916220 0.144428
H14   H     H_    0.746395 0.269876 0.974016 0.169435
H15   H     H_    0.092259 0.648758 0.083778 0.144426
H16   H     H_    0.202864 0.816611 0.114513 0.133058
N1    N     N_1   0.076820 0.499970 0.500010 -0.084334
N2    N     N_1   0.923180 0.500030 0.499990 -0.084334
N3    N     N_2   0.505135 0.437170 0.985791 -0.269114
N4    N     N_2   0.494867 0.562833 0.014209 -0.269115
O1    O     O_R   0.642760 0.288400 0.500000 -0.497436
O2    O     O_2   0.092664 0.615807 0.857048 -0.530538
O3    O     O_R   0.357240 0.711600 0.500000 -0.497436
O4    O     O_R   0.357190 0.288380 0.500000 -0.490407
O5    O     O_R   0.642810 0.711620 0.500000 -0.490407
O6    O     O_R   0.658410 0.498660 0.613920 -0.504906
O7    O     O_R   0.341590 0.501340 0.386080 -0.504906
O8    O     O_R   0.372840 0.498650 0.613930 -0.507451
O9    O     O_R   0.627160 0.501350 0.386070 -0.507451
O10   O     O_2   0.907336 0.384193 0.142952 -0.530538

loop_
_geom_bond_atom_site_label_1
_geom_bond_atom_site_label_2
_ccdc_geom_bond_type
C13   O2    D    
C2    C4    A    
N1    N2    T    
Cu1   O5    S    
C23   H1    S    
C14   H12   S    
C9    C10   T    
Cu1   O1    S    
C13   H11   S    
C8    C17   S    
C19   O7    A    
Cu2   O4    S    
C8    C21   A    
Cu1   Cu2   S    
Cu1   O6    S    
C18   O6    A    
C4    N4    S    
N3    N4    D    
C16   H5    S    
C22   H9    S    
C15   H15   S    
C5    C14   S    
C17   H7    S    
C2    C11   S    
C10   C12   S    
Cu1   N2    S    
C13   C24   S    
C7    C16   S    
C19   C21   S    
C20   C22   A    
Cu2   N1    S    
C12   O3    A    
C18   C20   S    
C21   C23   A    
C14   H13   S    
C22   C24   A    
C17   H8    S    
C18   O8    A    
C14   H14   S    
C15   H2    S    
Cu2   O7    S    
Cu2   O8    S    
C12   O5    A    
C1    C9    S    
C16   H3    S    
C4    C6    A    
C7    C20   A    
C1    O4    A    
Cu2   O3    S    
C19   O9    A    
C2    C23   A    
C5    C7    A    
C17   H6    S    
C11   H10   S    
C6    C8    A    
C6    C15   S    
C16   H4    S    
C3    N3    S    
C1    O1    A    
C11   O10   D    
Cu1   O9    S    
C15   H16   S    
C3    C24   A    
C3    C5    A    
