data_mof_unit_35992.cif
_audit_creation_date              2012-12-10T18:16:25-0500
_audit_creation_method            fapswitch 2.2
_symmetry_space_group_name_H-M    P1
_symmetry_Int_Tables_number       1
_space_group_crystal_system       triclinic
_cell_length_a                    18.308158
_cell_length_b                    18.402667
_cell_length_c                    18.311797
_cell_angle_alpha                 119.791232
_cell_angle_beta                  60.092809
_cell_angle_gamma                 119.932565
_cell_volume                      4374.70152182

loop_
_atom_site_label
_atom_site_type_symbol
_atom_type_description
_atom_site_fract_x
_atom_site_fract_y
_atom_site_fract_z
_atom_type_partial_charge
C1    C     C_R   0.390566 0.110323 0.610803 0.840025
C2    C     C_R   0.030907 0.963466 0.907162 -0.263928
C3    C     C_R   0.947826 0.944267 0.051909 -0.056684
C4    C     C_R   0.055631 0.055670 0.948140 -0.056494
C5    C     C_R   0.977667 0.907234 0.957571 -0.003013
C6    C     C_R   0.027406 0.092697 0.042507 -0.001506
C7    C     C_R   0.019244 0.467416 0.906310 0.509942
C8    C     C_R   0.965123 0.517054 0.093115 0.506687
C9    C     C_R   0.969556 0.524644 0.961914 -0.392301
C10   C     C_R   0.022192 0.467208 0.037726 -0.392393
C11   C     C_R   0.942462 0.549918 0.054795 -0.155696
C12   C     C_R   0.609370 0.889535 0.390149 0.846830
C13   C     C_R   0.049864 0.442501 0.944908 -0.160356
C14   C     C_R   0.070920 0.077566 0.483909 0.465906
C15   C     C_R   0.934684 0.919081 0.511520 0.456366
C16   C     C_R   0.109022 0.389430 0.889852 0.836822
C17   C     C_R   0.889441 0.609054 0.110101 0.835856
C18   C     C_R   0.016956 0.025253 0.430459 -0.057880
C19   C     C_R   0.983684 0.975496 0.569852 -0.063288
C20   C     C_R   0.948357 0.945663 0.444297 -0.261928
C21   C     C_R   0.053304 0.053892 0.554735 -0.257598
C22   C     C_R   0.541546 0.092363 0.530294 0.517078
C23   C     C_R   0.989252 0.231008 0.122381 -0.185152
C24   C     C_R   0.457894 0.906202 0.477471 0.492190
C25   C     C_R   0.592472 0.036689 0.471081 -0.379716
C26   C     C_R   0.406687 0.962324 0.531343 -0.389934
C27   C     C_R   0.551948 0.944427 0.446647 -0.152089
C28   C     C_R   0.447507 0.054794 0.556001 -0.163107
C29   C     C_R   0.406819 0.471808 0.525237 -0.197429
C30   C     C_R   0.592746 0.527302 0.474156 -0.207379
C31   C     C_R   0.460334 0.525147 0.471695 -0.182266
C32   C     C_R   0.539291 0.473588 0.527208 -0.183555
C33   C     C_R   0.553647 0.553327 0.445972 0.011889
C34   C     C_R   0.013221 0.768176 0.887302 -0.175863
C35   C     C_R   0.446075 0.445799 0.553297 0.011880
C36   C     C_R   0.417878 0.511591 0.028800 -0.073802
C37   C     C_R   0.584915 0.494293 0.968333 -0.075161
C38   C     C_R   0.474477 0.568146 0.080018 0.427254
C39   C     C_R   0.534967 0.448611 0.911435 0.461187
C40   C     C_R   0.390302 0.391426 0.889895 0.887509
C41   C     C_R   0.610211 0.609469 0.109751 0.850716
C42   C     C_R   0.555335 0.555654 0.052531 -0.219351
C43   C     C_R   0.447843 0.450655 0.944768 -0.216317
C44   C     C_R   0.108871 0.110219 0.611282 0.837052
C45   C     C_R   0.009245 0.322055 0.168597 -0.187750
C46   C     C_R   0.890940 0.889840 0.389169 0.880051
C47   C     C_R   0.390070 0.390048 0.609742 0.783088
C48   C     C_R   0.609876 0.609667 0.390024 0.792170
C49   C     C_R   0.110333 0.110518 0.890620 0.781236
C50   C     C_R   0.890439 0.889456 0.109390 0.786472
C51   C     C_R   0.151863 0.331468 0.155295 -0.074945
C52   C     C_R   0.865653 0.670988 0.828523 -0.129513
C53   C     C_R   0.132282 0.239944 0.109266 0.113235
C54   C     C_R   0.881566 0.761414 0.878511 0.112437
C55   C     C_R   0.050479 0.189315 0.091867 0.108294
C56   C     C_R   0.996622 0.677872 0.837633 -0.169702
C57   C     C_R   0.956271 0.810661 0.907976 0.111593
C58   C     C_3   0.631358 0.204137 0.614705 0.074226
C59   C     C_3   0.568424 0.190653 0.705396 -0.337163
C60   C     C_3   0.620820 0.220134 0.764769 -0.901987
C61   C     C_3   0.350957 0.776985 0.425197 0.054907
C62   C     C_3   0.333522 0.676949 0.382078 -0.267468
C63   C     C_3   0.261992 0.630482 0.338533 -0.927795
C64   C     C_3   0.473116 0.710927 0.140054 0.046343
C65   C     C_3   0.540212 0.788994 0.185656 -0.303165
C66   C     C_3   0.557470 0.876036 0.179181 -1.003092
C67   C     C_R   0.090766 0.372769 0.184771 0.134336
C68   C     C_3   0.644707 0.450986 0.774213 0.084581
C69   C     C_3   0.626796 0.440566 0.695746 -0.292639
C70   C     C_3   0.712362 0.483739 0.631009 -0.996011
C71   C     C_3   0.970942 0.387069 0.784509 0.075006
C72   C     C_3   0.947472 0.290297 0.772886 -0.330852
C73   C     C_3   0.870536 0.228529 0.735711 -0.966289
C74   C     C_3   0.878836 0.463939 0.211676 0.048314
C75   C     C_3   0.782527 0.462214 0.250040 -0.303620
C76   C     C_3   0.717229 0.384705 0.285473 -0.989492
C77   C     C_3   0.218784 0.139830 0.414073 0.098469
C78   C     C_R   0.922850 0.628770 0.807567 0.141233
C79   C     C_3   0.292121 0.227508 0.403282 -0.302859
C80   C     C_3   0.384220 0.217112 0.349878 -0.983139
C81   C     C_3   0.907201 0.776691 0.492843 0.133349
C82   C     C_3   0.834816 0.685378 0.486151 -0.305261
C83   C     C_3   0.872487 0.613819 0.456589 -1.007899
C84   C     C_R   0.973497 0.036495 0.092916 -0.263387
H1    H     H_    0.664484 0.066211 0.446302 0.191374
H2    H     H_    0.070852 0.805285 0.909308 0.137548
H3    H     H_    0.961284 0.353154 0.192058 0.118600
H4    H     H_    0.041643 0.646477 0.822122 0.145970
H5    H     H_    0.951586 0.065688 0.165074 0.175843
H6    H     H_    0.052855 0.934304 0.835000 0.174680
H7    H     H_    0.952295 0.549268 0.931816 0.190028
H8    H     H_    0.044106 0.447401 0.068140 0.193879
H9    H     H_    0.109833 0.495072 0.195842 0.194692
H10   H     H_    0.061855 0.476217 0.293773 0.187201
H11   H     H_    0.848299 0.499951 0.792606 0.162876
H12   H     H_    0.334717 0.933650 0.556658 0.187205
H13   H     H_    0.958056 0.516876 0.738801 0.177335
H14   H     H_    0.982866 0.070817 0.374842 0.229553
H15   H     H_    0.043392 0.000775 0.299978 0.169925
H16   H     H_    0.948474 0.009086 0.703991 0.184810
H17   H     H_    0.008306 0.937972 0.640708 0.207170
H18   H     H_    0.674051 0.275042 0.626559 0.168031
H19   H     H_    0.678327 0.166464 0.580129 0.127504
H20   H     H_    0.522227 0.228895 0.739407 0.271431
H21   H     H_    0.527544 0.119314 0.695379 0.194797
H22   H     H_    0.663874 0.179059 0.733346 0.252387
H23   H     H_    0.334885 0.451041 0.544562 0.166293
H24   H     H_    0.573562 0.211814 0.830482 0.265912
H25   H     H_    0.663440 0.291048 0.775793 0.280234
H26   H     H_    0.371302 0.804705 0.373189 0.128536
H27   H     H_    0.287836 0.787915 0.478043 0.140470
H28   H     H_    0.396559 0.664573 0.330916 0.277070
H29   H     H_    0.311334 0.648307 0.433729 0.214040
H30   H     H_    0.197377 0.639024 0.389475 0.253734
H31   H     H_    0.252661 0.558419 0.306516 0.276388
H32   H     H_    0.282363 0.657916 0.286635 0.271094
H33   H     H_    0.296920 0.512268 0.123883 0.225529
H34   H     H_    0.664469 0.548029 0.455181 0.157409
H35   H     H_    0.340367 0.581427 0.065940 0.174515
H36   H     H_    0.662366 0.461060 0.988890 0.190080
H37   H     H_    0.720365 0.529754 0.926202 0.211431
H38   H     H_    0.411470 0.727294 0.168301 0.150599
H39   H     H_    0.501468 0.702853 0.067451 0.117606
H40   H     H_    0.513814 0.795590 0.257037 0.240355
H41   H     H_    0.604541 0.776501 0.153935 0.199435
H42   H     H_    0.585069 0.871614 0.108158 0.269977
H43   H     H_    0.606585 0.930869 0.212727 0.267834
H44   H     H_    0.494512 0.891458 0.212620 0.264774
H45   H     H_    0.428615 0.544363 0.450682 0.163583
H46   H     H_    0.701948 0.428570 0.748199 0.156646
H47   H     H_    0.665460 0.523318 0.813115 0.114320
H48   H     H_    0.598837 0.369084 0.659470 0.271829
H49   H     H_    0.576915 0.472542 0.721394 0.224580
H50   H     H_    0.740008 0.555980 0.665364 0.270545
H51   H     H_    0.697757 0.474935 0.574610 0.265961
H52   H     H_    0.763137 0.452312 0.603670 0.271064
H53   H     H_    0.164988 0.149681 0.108583 0.184994
H54   H     H_    0.215117 0.170663 0.011267 0.186895
H55   H     H_    0.857693 0.853822 0.872109 0.187995
H56   H     H_    0.570907 0.454004 0.547880 0.162859
H57   H     H_    0.795002 0.828768 0.967786 0.188212
H58   H     H_    0.989838 0.390655 0.718274 0.167648
H59   H     H_    0.910977 0.408371 0.828293 0.115107
H60   H     H_    0.006829 0.268993 0.726144 0.265452
H61   H     H_    0.928067 0.284519 0.838247 0.192462
H62   H     H_    0.809640 0.247401 0.782115 0.264179
H63   H     H_    0.855565 0.159086 0.727649 0.269796
H64   H     H_    0.888868 0.231835 0.669484 0.271400
H65   H     H_    0.895731 0.469081 0.264861 0.158330
H66   H     H_    0.883672 0.399434 0.157678 0.117464
H67   H     H_    0.214674 0.370514 0.168280 0.141479
H68   H     H_    0.777343 0.525305 0.305320 0.255572
H69   H     H_    0.764265 0.456280 0.197354 0.203736
H70   H     H_    0.722198 0.320671 0.231494 0.268155
H71   H     H_    0.647848 0.384026 0.310558 0.275444
H72   H     H_    0.731676 0.391628 0.341210 0.266438
H73   H     H_    0.214570 0.091845 0.347035 0.136932
H74   H     H_    0.236981 0.113012 0.443227 0.110327
H75   H     H_    0.277852 0.252183 0.368946 0.224121
H76   H     H_    0.292456 0.277554 0.470226 0.241636
H77   H     H_    0.400728 0.194840 0.384502 0.263297
H78   H     H_    0.809150 0.633602 0.804937 0.132112
H79   H     H_    0.435473 0.282069 0.343413 0.274034
H80   H     H_    0.385992 0.168020 0.282059 0.266062
H81   H     H_    0.938667 0.791839 0.539555 0.143046
H82   H     H_    0.958816 0.773827 0.425206 0.131991
H83   H     H_    0.780853 0.687075 0.551981 0.225459
H84   H     H_    0.805829 0.668380 0.436783 0.253853
H85   H     H_    0.927431 0.611823 0.391420 0.280663
H86   H     H_    0.818866 0.547975 0.449088 0.264739
H87   H     H_    0.898286 0.627239 0.507152 0.272862
H88   H     H_    0.926091 0.192898 0.110053 0.137245
N1    N     N_3   0.111867 0.466255 0.231394 -0.489961
N2    N     N_3   0.906198 0.536685 0.754069 -0.477323
N3    N     N_3   0.035833 0.053111 0.360440 -0.416086
N4    N     N_3   0.957891 0.954062 0.646731 -0.424101
N5    N     N_3   0.331653 0.518522 0.060393 -0.407004
N6    N     N_3   0.664088 0.475045 0.939150 -0.443894
N7    N     N_3   0.196159 0.199901 0.080677 -0.470860
N8    N     N_3   0.821333 0.801859 0.898434 -0.475589
O1    O     O_3   0.249960 0.250040 0.750040 -0.492090
O2    O     O_R   0.865890 0.634160 0.194850 -0.608496
O3    O     O_R   0.305100 0.073510 0.634200 -0.657149
O4    O     O_R   0.694900 0.926490 0.365800 -0.654198
O5    O     O_R   0.134110 0.365830 0.926590 -0.649893
O6    O     O_R   0.865890 0.634170 0.073410 -0.656441
O7    O     O_R   0.426490 0.365840 0.805130 -0.634903
O8    O     O_R   0.573510 0.634160 0.194870 -0.614258
O9    O     O_R   0.134150 0.194970 0.634230 -0.613893
O10   O     O_R   0.865850 0.805030 0.365770 -0.621552
O11   O     O_R   0.426480 0.365860 0.634240 -0.656886
O12   O     O_3   0.750040 0.749960 0.249960 -0.487309
O13   O     O_R   0.573520 0.634140 0.365760 -0.642783
O14   O     O_R   0.134190 0.073490 0.805100 -0.652241
O15   O     O_R   0.865810 0.926510 0.194900 -0.652608
O16   O     O_R   0.305020 0.365860 0.634250 -0.645166
O17   O     O_R   0.694980 0.634140 0.365750 -0.679710
O18   O     O_R   0.134160 0.194930 0.926560 -0.638820
O19   O     O_R   0.865840 0.805070 0.073440 -0.637810
O20   O     O_3   0.583293 0.183470 0.561555 -0.627795
O21   O     O_3   0.418193 0.815456 0.463284 -0.615901
O22   O     O_3   0.449381 0.634162 0.158514 -0.635605
O23   O     O_R   0.305030 0.365830 0.926580 -0.621112
O24   O     O_3   0.568860 0.396939 0.824445 -0.622756
O25   O     O_3   0.045640 0.443485 0.814374 -0.618381
O26   O     O_3   0.938200 0.539961 0.184869 -0.622695
O27   O     O_3   0.136969 0.155931 0.470565 -0.600641
O28   O     O_3   0.867725 0.840916 0.524787 -0.613103
O29   O     O_R   0.694970 0.634170 0.073420 -0.668905
O30   O     O_R   0.134180 0.073510 0.634210 -0.665920
O31   O     O_R   0.865820 0.926490 0.365790 -0.659692
O32   O     O_R   0.426530 0.194970 0.634210 -0.602120
O33   O     O_R   0.573470 0.805030 0.365790 -0.606380
O34   O     O_R   0.134110 0.365840 0.805150 -0.603046
Zn1   Zn    Zn3+2 0.206570 0.293400 0.880180 0.967095
Zn2   Zn    Zn3+2 0.793430 0.706600 0.119820 0.939290
Zn3   Zn    Zn3+2 0.380110 0.293420 0.706660 0.963975
Zn4   Zn    Zn3+2 0.619890 0.706580 0.293340 0.977839
Zn5   Zn    Zn3+2 0.206560 0.293420 0.706670 0.983043
Zn6   Zn    Zn3+2 0.793440 0.706580 0.293330 0.962323
Zn7   Zn    Zn3+2 0.206610 0.119900 0.706640 0.931082
Zn8   Zn    Zn3+2 0.793390 0.880100 0.293360 0.947431

loop_
_geom_bond_atom_site_label_1
_geom_bond_atom_site_label_2
_ccdc_geom_bond_type
O9    Zn5   S    
O2    Zn6   S    
C23   C45   A    
C48   O13   A    
C68   O24   S    
H57   N8    S    
C41   C42   S    
C14   C18   A    
C54   N8    S    
C24   C27   A    
O12   Zn4   S    
C6    C55   S    
C7    O25   S    
C35   C47   S    
C9    H7    S    
C81   C82   S    
C1    O3    A    
C40   O7    A    
C82   H84   S    
O4    Zn8   S    
C37   N6    S    
C58   O20   S    
C59   H21   S    
C73   H63   S    
C59   H20   S    
C14   C21   A    
C22   O20   S    
C45   H3    S    
H11   N2    S    
C24   C26   A    
C32   H56   S    
O34   Zn5   S    
C77   O27   S    
C79   H75   S    
C56   H4    S    
O32   Zn3   S    
O18   Zn1   S    
C72   H61   S    
C83   H86   S    
C83   H85   S    
C56   C78   A    
C66   H43   S    
C72   H60   S    
C34   H2    S    
C65   H40   S    
H9    N1    S    
C37   C42   A    
C2    H6    S    
H36   N6    S    
C19   N4    S    
C80   H80   S    
C60   H25   S    
C61   O21   S    
C15   C19   A    
C63   H30   S    
C17   O2    A    
C40   C43   S    
C23   H88   S    
C52   C54   A    
C68   C69   S    
C22   C25   A    
C83   H87   S    
O1    Zn5   S    
C1    C28   S    
C81   H82   S    
C31   C33   A    
C74   H65   S    
C31   H45   S    
H55   N8    S    
O17   Zn6   S    
C75   H68   S    
C44   O30   A    
C15   O28   S    
C60   H24   S    
C34   C56   A    
C49   O18   A    
C63   H31   S    
C18   N3    S    
C61   C62   S    
C77   C79   S    
C51   H67   S    
C59   C60   S    
O30   Zn7   S    
C22   C28   A    
C14   O27   S    
C1    O32   A    
C70   H52   S    
O11   Zn3   S    
O13   Zn4   S    
C12   O33   A    
C46   O10   A    
C52   C78   A    
H54   N7    S    
C53   N7    S    
C70   H50   S    
C3    C50   S    
H33   N5    S    
C82   H83   S    
C53   C55   A    
C26   H12   S    
C15   C20   A    
C80   H77   S    
C24   O21   S    
O29   Zn2   S    
C6    C84   A    
C74   C75   S    
C12   C27   S    
O1    Zn7   S    
O19   Zn2   S    
C32   C35   A    
C47   O16   A    
C62   H29   S    
C4    C6    A    
C79   H76   S    
C39   C43   A    
C10   H8    S    
C30   H34   S    
C58   C59   S    
O31   Zn8   S    
C76   H72   S    
O5    Zn1   S    
C41   O8    A    
O6    Zn2   S    
C51   C53   A    
C65   H41   S    
C68   H47   S    
C2    C4    A    
C75   C76   S    
C80   H79   S    
C45   C67   A    
C62   C63   S    
C73   H64   S    
C44   O9    A    
C34   C57   A    
C21   C44   S    
C50   O15   A    
C75   H69   S    
H53   N7    S    
C40   O23   A    
C71   O25   S    
C17   O6    A    
O3    Zn7   S    
C25   H1    S    
C36   C43   A    
C62   H28   S    
O1    Zn1   S    
C51   C67   A    
C16   O34   A    
C68   H46   S    
C9    C11   A    
C38   O22   S    
C61   H26   S    
O14   Zn7   S    
C58   H18   S    
C63   H32   S    
C8    C10   A    
C82   C83   S    
C81   O28   S    
O1    Zn3   S    
C70   H51   S    
C2    C5    A    
C84   H5    S    
O12   Zn6   S    
C71   H58   S    
C61   H27   S    
C69   H48   S    
C73   H62   S    
O16   Zn5   S    
C60   H22   S    
C71   H59   S    
O7    Zn3   S    
O23   Zn1   S    
C7    C9    A    
C64   O22   S    
C11   C17   S    
C69   H49   S    
H13   N2    S    
C30   C33   A    
C19   C21   A    
C29   H23   S    
C36   N5    S    
C8    O26   S    
C72   C73   S    
C3    C5    A    
C10   C13   A    
O10   Zn6   S    
O15   Zn8   S    
C50   O19   A    
C23   C55   A    
H37   N6    S    
O8    Zn4   S    
C25   C27   A    
C64   H39   S    
C29   C35   A    
C77   H74   S    
C76   H71   S    
C26   C28   A    
C5    C57   S    
C48   O17   A    
C16   O5    A    
O33   Zn4   S    
C64   C65   S    
C36   C38   A    
C4    C49   S    
C41   O29   A    
C71   C72   S    
C37   C39   A    
C30   C32   A    
H14   N3    S    
C12   O4    A    
C67   N1    S    
C8    C11   A    
C64   H38   S    
C74   O26   S    
C76   H70   S    
C66   H44   S    
C18   C20   A    
C47   O11   A    
C69   C70   S    
H16   N4    S    
H10   N1    S    
O12   Zn8   S    
C79   C80   S    
C38   C42   A    
C66   H42   S    
C7    C13   A    
H15   N3    S    
C29   C31   A    
C65   C66   S    
C49   O14   A    
C13   C16   S    
C77   H73   S    
C3    C84   A    
C78   N2    S    
C33   C48   S    
C81   H81   S    
C74   H66   S    
H17   N4    S    
C58   H19   S    
H35   N5    S    
C39   O24   S    
O12   Zn2   S    
C20   C46   S    
C46   O31   A    
C52   H78   S    
C54   C57   A    
