data_mof_unit_22932.cif
_audit_creation_date              2012-12-10T19:45:40-0500
_audit_creation_method            fapswitch 2.2
_symmetry_space_group_name_H-M    P1
_symmetry_Int_Tables_number       1
_space_group_crystal_system       triclinic
_cell_length_a                    10.760349
_cell_length_b                    14.685519
_cell_length_c                    14.68302
_cell_angle_alpha                 65.444783
_cell_angle_beta                  103.020941
_cell_angle_gamma                 103.295514
_cell_volume                      2031.64686509

loop_
_atom_site_label
_atom_site_type_symbol
_atom_type_description
_atom_site_fract_x
_atom_site_fract_y
_atom_site_fract_z
_atom_type_partial_charge
C1    C     C_R   0.476958 0.119529 0.312327 0.804305
C2    C     C_R   0.522988 0.880465 0.687677 0.804202
C3    C     C_R   0.870950 0.001515 0.496848 -0.071766
C4    C     C_R   0.129046 0.998522 0.503108 -0.071627
C5    C     C_R   0.908716 0.984898 0.419870 -0.017742
C6    C     C_R   0.091273 0.015145 0.580079 -0.017813
C7    C     C_R   0.460460 0.186849 0.205090 -0.047936
C8    C     C_R   0.539024 0.813111 0.794926 -0.047882
C9    C     C_R   0.404904 0.215216 0.027586 -0.217128
C10   C     C_R   0.593321 0.784650 0.972489 -0.217262
C11   C     C_R   0.414957 0.148870 0.128652 -0.202579
C12   C     C_R   0.583979 0.851031 0.871435 -0.202258
C13   C     C_R   0.490928 0.291413 0.179739 -0.266997
C14   C     C_R   0.508409 0.708559 0.820215 -0.266667
C15   C     C_R   0.476313 0.360266 0.078780 0.090526
C16   C     C_R   0.522016 0.639653 0.921189 0.090471
C17   C     C_R   0.436490 0.320237 0.002144 0.164563
C18   C     C_R   0.561454 0.679644 0.997870 0.164500
C19   C     C_R   0.502751 0.467224 0.052054 0.064382
C20   C     C_R   0.495144 0.532689 0.947888 0.064345
C21   C     C_R   0.462009 0.488967 0.874062 -0.224961
C22   C     C_R   0.535334 0.510911 0.125881 -0.224947
C23   C     C_R   0.262708 0.998973 0.502012 0.808790
C24   C     C_R   0.737290 0.001035 0.497974 0.808745
C25   C     C_R   0.430860 0.385061 0.900924 -0.230141
C26   C     C_R   0.566448 0.614808 0.099067 -0.230111
C27   C     C_R   0.664787 0.265798 0.693457 -0.318989
C28   C     C_R   0.335183 0.734234 0.306520 -0.318971
C29   C     C_R   0.646650 0.190313 0.655949 0.097326
C30   C     C_R   0.353304 0.809694 0.344061 0.097458
C31   C     C_R   0.539150 0.293518 0.499981 0.007371
C32   C     C_R   0.460906 0.706494 0.499983 0.007123
C33   C     C_R   0.541792 0.369002 0.537816 -0.001736
C34   C     C_R   0.458239 0.631026 0.462114 -0.001809
C35   C     C_R   0.614388 0.355843 0.634126 0.135252
C36   C     C_R   0.385620 0.644195 0.365813 0.135188
C37   C     C_R   0.480368 0.458094 0.483247 0.019146
C38   C     C_R   0.519676 0.541943 0.516648 0.019192
C39   C     C_R   0.618068 0.532082 0.602971 0.070475
C40   C     C_R   0.382018 0.467982 0.396891 0.070610
C41   C     C_R   0.645775 0.435264 0.667485 -0.222374
C42   C     C_R   0.354284 0.564804 0.332411 -0.222565
C43   C     C_R   0.305073 0.932197 0.832383 -0.131691
C44   C     C_R   0.694289 0.067693 0.167839 -0.131742
C45   C     C_R   0.220251 0.931085 0.745493 -0.196279
C46   C     C_R   0.779283 0.068852 0.254638 -0.196012
C47   C     C_R   0.182875 0.021456 0.670110 0.015420
C48   C     C_R   0.817073 0.978546 0.329863 0.015475
C49   C     C_R   0.232605 0.114578 0.683063 0.461679
C50   C     C_R   0.767598 0.885442 0.316828 0.461420
C51   C     C_R   0.320764 0.114310 0.769446 -0.113343
C52   C     C_R   0.679286 0.885655 0.230531 -0.113108
C53   C     C_R   0.356456 0.023723 0.843847 -0.227535
C54   C     C_R   0.643167 0.976174 0.156297 -0.227337
C55   C     C_R   0.961675 0.016775 0.575886 -0.249234
C56   C     C_R   0.038324 0.983279 0.424055 -0.249300
Cu1   Cu    Cu3+1 0.466270 0.918260 0.475690 0.943277
Cu2   Cu    Cu3+1 0.533730 0.081740 0.524310 0.943362
H1    H     H_    0.423461 0.024458 0.910771 0.132140
H2    H     H_    0.576026 0.975397 0.089445 0.132054
H3    H     H_    0.373168 0.184399 0.969227 0.132790
H4    H     H_    0.624703 0.815431 0.030883 0.132653
H5    H     H_    0.459902 0.532325 0.794130 0.139758
H6    H     H_    0.536804 0.467480 0.205763 0.139585
H7    H     H_    0.705403 0.424347 0.740216 0.142077
H8    H     H_    0.294745 0.575778 0.259642 0.142089
H9    H     H_    0.498386 0.695266 0.577565 0.115187
H10   H     H_    0.501764 0.304740 0.422393 0.115161
H11   H     H_    0.317212 0.880019 0.296683 0.122518
H12   H     H_    0.682712 0.119981 0.703354 0.122548
H13   H     H_    0.718944 0.254105 0.768207 0.135262
H14   H     H_    0.281011 0.745940 0.231771 0.135226
H15   H     H_    0.331244 0.861876 0.890810 0.154685
H16   H     H_    0.667779 0.137971 0.109541 0.154633
H17   H     H_    0.182551 0.859412 0.737271 0.140890
H18   H     H_    0.816771 0.140512 0.262930 0.140642
H19   H     H_    0.360770 0.184850 0.779463 0.138752
H20   H     H_    0.639469 0.815115 0.220459 0.138644
H21   H     H_    0.930930 0.027302 0.635882 0.154455
H22   H     H_    0.069071 0.972760 0.364057 0.154452
H23   H     H_    0.404082 0.355150 0.841764 0.150099
H24   H     H_    0.592802 0.644702 0.158235 0.150060
H25   H     H_    0.471079 0.682995 0.759262 0.146402
H26   H     H_    0.529100 0.317063 0.240578 0.146502
H27   H     H_    0.608838 0.931793 0.853353 0.153256
H28   H     H_    0.390205 0.068096 0.146786 0.153197
N1    N     N_R   0.584450 0.204570 0.560790 -0.175173
N2    N     N_R   0.415550 0.795430 0.439210 -0.175192
O1    O     O_R   0.455540 0.022090 0.338120 -0.591324
O2    O     O_R   0.544460 0.977910 0.661880 -0.591360
O3    O     O_R   0.512510 0.160150 0.379180 -0.598952
O4    O     O_R   0.487490 0.839850 0.620820 -0.598965
O5    O     O_R   0.291160 0.930970 0.479480 -0.583356
O6    O     O_R   0.708840 0.069030 0.520520 -0.583291
O7    O     O_R   0.348130 0.069020 0.520540 -0.570727
O8    O     O_R   0.651870 0.930980 0.479460 -0.570803
C57   C     C_3   0.703865 0.621144 0.625678 -0.412582
C58   C     C_3   0.849518 0.616442 0.643989 -0.321608
C59   C     C_3   0.929258 0.705283 0.670181 -0.851079
H29   H     H_    0.906646 0.778742 0.610478 0.260646
H30   H     H_    0.908785 0.700025 0.743203 0.254379
H31   H     H_    0.033691 0.703326 0.677488 0.242537
H32   H     H_    0.874142 0.545789 0.707629 0.214015
H33   H     H_    0.877934 0.618636 0.574767 0.243326
H34   H     H_    0.692730 0.693579 0.560523 0.236417
H35   H     H_    0.676768 0.623651 0.693264 0.189214
C60   C     C_3   0.296428 0.378919 0.374047 -0.412406
C61   C     C_3   0.150727 0.383615 0.355219 -0.321937
C62   C     C_3   0.071357 0.294786 0.328858 -0.850847
H36   H     H_    0.093451 0.299411 0.256577 0.254632
H37   H     H_    0.092754 0.221320 0.389206 0.260523
H38   H     H_    0.966841 0.297390 0.320045 0.242343
H39   H     H_    0.121767 0.381439 0.424243 0.243104
H40   H     H_    0.126309 0.454246 0.291449 0.214085
H41   H     H_    0.323970 0.376387 0.306632 0.188893
H42   H     H_    0.307353 0.306496 0.439269 0.236632
O9    O     O_3   0.199178 0.206740 0.614397 -0.763155
H43   H     H_    0.130226 0.196171 0.561067 0.327259
O10   O     O_3   0.801390 0.793346 0.385341 -0.763193
H44   H     H_    0.870371 0.803956 0.438634 0.327463

loop_
_geom_bond_atom_site_label_1
_geom_bond_atom_site_label_2
_ccdc_geom_bond_type
C43   H15   S    
C1    O1    A    
Cu1   O4    S    
C27   C29   A    
C5    C56   A    
C36   C42   A    
C19   C20   A    
C18   C26   A    
C6    C55   A    
Cu2   N1    S    
C46   H18   S    
C57   C58   S    
C53   H1    S    
C39   C41   A    
C54   H2    S    
C29   N1    A    
C15   C19   A    
C13   H26   S    
Cu1   O1    S    
C12   H27   S    
C9    H3    S    
C37   C40   A    
C24   O8    A    
C38   C39   A    
C39   C57   S    
C11   H28   S    
C58   H32   S    
C32   N2    A    
C61   C62   S    
C61   H40   S    
C2    O2    A    
C3    C55   A    
C43   C53   A    
C49   O9    S    
C44   C46   A    
C49   C51   A    
Cu1   O8    S    
C50   C52   A    
C60   C61   S    
C31   C33   A    
Cu2   O3    S    
C8    C12   A    
C57   H34   S    
C40   C42   A    
C1    O3    A    
C1    C7    S    
C4    C56   A    
C25   H23   S    
C3    C24   S    
C28   H14   S    
C32   H9    S    
C14   H25   S    
C52   H20   S    
C52   C54   A    
C26   H24   S    
C45   C47   A    
C31   H10   S    
C5    C48   S    
C46   C48   A    
C31   N1    A    
C6    C47   S    
C50   O10   S    
C44   H16   S    
C19   C22   A    
C4    C6    A    
C62   H38   S    
C4    C23   S    
C41   H7    S    
C27   C35   A    
C33   C37   A    
C23   O5    A    
C51   C53   A    
C32   C34   A    
C61   H39   S    
C7    C11   A    
Cu2   O7    S    
C51   H19   S    
C37   C38   A    
C24   O6    A    
C55   H21   S    
C59   H29   S    
C13   C15   A    
C16   C20   A    
C2    O4    A    
C48   C50   A    
C43   C45   A    
C60   H41   S    
C10   C12   A    
Cu2   O2    S    
C40   C60   S    
C57   H35   S    
C9    C17   A    
C59   H30   S    
C9    C11   A    
C14   C16   A    
C10   H4    S    
C30   N2    A    
C30   H11   S    
C27   H13   S    
C29   H12   S    
C15   C17   A    
C21   C25   A    
C8    C14   A    
C34   C38   A    
C2    C8    S    
C3    C5    A    
O10   H44   S    
C47   C49   A    
C56   H22   S    
Cu1   N2    S    
C45   H17   S    
C17   C25   A    
C62   H37   S    
Cu2   O6    S    
O9    H43   S    
Cu1   Cu2   S    
C10   C18   A    
C58   H33   S    
C28   C30   A    
C33   C35   A    
C23   O7    A    
C34   C36   A    
C35   C41   A    
C60   H42   S    
C21   H5    S    
C22   H6    S    
C44   C54   A    
C7    C13   A    
C59   H31   S    
C20   C21   A    
C28   C36   A    
C16   C18   A    
C58   C59   S    
C22   C26   A    
C42   H8    S    
Cu1   O5    S    
C62   H36   S    
