data_mof_unit_26134.cif
_audit_creation_date              2012-12-10T19:10:31-0500
_audit_creation_method            fapswitch 2.2
_symmetry_space_group_name_H-M    P1
_symmetry_Int_Tables_number       1
_space_group_crystal_system       triclinic
_cell_length_a                    10.843098
_cell_length_b                    9.783754
_cell_length_c                    15.650581
_cell_angle_alpha                 89.714925
_cell_angle_beta                  88.267523
_cell_angle_gamma                 93.038623
_cell_volume                      1657.18249267

loop_
_atom_site_label
_atom_site_type_symbol
_atom_type_description
_atom_site_fract_x
_atom_site_fract_y
_atom_site_fract_z
_atom_type_partial_charge
C1    C     C_R   0.257519 0.496800 0.506907 0.856458
C2    C     C_3   0.679519 0.494983 0.946365 0.179655
C3    C     C_3   0.682570 0.518763 0.051473 0.262497
C4    C     C_1   0.521832 0.501823 0.824812 -0.018753
C5    C     C_1   0.526168 0.502416 0.174080 -0.049119
C6    C     C_1   0.513045 0.501573 0.249394 -0.230946
C7    C     C_3   0.066544 0.573455 0.590542 -0.020103
C8    C     C_3   0.054660 0.346082 0.517659 -0.007132
C9    C     C_3   0.922530 0.569889 0.587930 -0.496326
C10   C     C_3   0.918006 0.356228 0.502012 -0.462219
C11   C     C_3   0.083113 0.562213 0.423850 -0.377459
C12   C     C_3   0.120202 0.494226 0.509132 0.027751
C13   C     C_3   0.879165 0.507496 0.502564 0.102330
C14   C     C_R   0.500914 0.500325 0.338301 0.904642
C15   C     C_3   0.943924 0.590403 0.424419 0.457964
C16   C     C_3   0.410448 0.074345 0.438049 -0.259074
C17   C     C_3   0.401894 0.913864 0.444145 -0.225921
C18   C     C_3   0.623589 0.088848 0.469097 0.189854
C19   C     C_3   0.621424 0.925003 0.466082 0.159535
C20   C     C_3   0.470626 0.078088 0.584295 -0.327828
C21   C     C_3   0.477605 0.917491 0.585120 -0.331917
C22   C     C_R   0.742528 0.503190 0.500426 0.860002
C23   C     C_R   0.500968 0.499787 0.661521 0.900037
C24   C     C_3   0.466278 0.628514 0.049360 -0.531597
C25   C     C_3   0.478341 0.365086 0.049291 -0.508618
C26   C     C_3   0.442626 0.373941 0.954139 0.362472
C27   C     C_3   0.469733 0.645067 0.949244 0.386537
C28   C     C_1   0.511194 0.500183 0.749857 -0.246692
C29   C     C_3   0.540510 0.503547 0.082001 0.168809
C30   C     C_3   0.530277 0.504669 0.916202 0.107199
H1    H     H_    0.883868 0.671788 0.596987 0.182926
H2    H     H_    0.892815 0.307800 0.440749 0.199740
H3    H     H_    0.140608 0.658048 0.410373 0.162536
H4    H     H_    0.107608 0.496398 0.369382 0.167467
H5    H     H_    0.431559 0.107794 0.371220 0.160234
H6    H     H_    0.405133 0.868223 0.379506 0.156442
H7    H     H_    0.320423 0.110661 0.451011 0.164742
H8    H     H_    0.309504 0.880569 0.471012 0.136001
H9    H     H_    0.536032 0.122954 0.631204 0.165376
H10   H     H_    0.551826 0.888117 0.628090 0.156643
H11   H     H_    0.376740 0.105996 0.606260 0.162974
H12   H     H_    0.390550 0.870421 0.612966 0.190169
H13   H     H_    0.692018 0.121924 0.517511 0.102046
H14   H     H_    0.692944 0.893944 0.510581 0.093869
H15   H     H_    0.369993 0.613335 0.074948 0.189532
H16   H     H_    0.397600 0.332687 0.091996 0.184333
H17   H     H_    0.537248 0.279350 0.056509 0.176175
H18   H     H_    0.495765 0.725839 0.080632 0.150733
H19   H     H_    0.086868 0.510175 0.647295 0.147214
H20   H     H_    0.060337 0.315680 0.586214 0.096182
H21   H     H_    0.882416 0.506392 0.642304 0.152976
H22   H     H_    0.866826 0.294789 0.553281 0.166144
N1    N     N_3   0.499750 0.138610 0.498180 -0.045136
N2    N     N_3   0.499750 0.861390 0.498180 -0.040610
O1    O     O_R   0.314910 0.616040 0.499980 -0.628961
O2    O     O_R   0.314910 0.383960 0.499980 -0.616595
O3    O     O_R   0.500120 0.616090 0.377110 -0.623555
O4    O     O_R   0.500120 0.383910 0.377110 -0.621181
O5    O     O_R   0.685320 0.616040 0.499960 -0.641254
O6    O     O_R   0.685320 0.383960 0.499960 -0.642408
O7    O     O_R   0.500110 0.615990 0.622830 -0.623758
O8    O     O_R   0.500110 0.384010 0.622830 -0.620001
Zn1   Zn    Zn3+2 0.500150 0.654960 0.499960 0.895952
Zn2   Zn    Zn3+2 0.500150 0.345040 0.499960 0.899645
C31   C     C_3   0.333859 0.666346 0.917133 -0.848652
H23   H     H_    0.257762 0.641469 0.963755 0.211849
H24   H     H_    0.313587 0.774633 0.904410 0.225988
H25   H     H_    0.316427 0.615681 0.855289 0.237206
C32   C     C_3   0.298456 0.383394 0.959343 -0.808850
H26   H     H_    0.264420 0.447100 0.011935 0.208888
H27   H     H_    0.258437 0.409644 0.897536 0.239873
H28   H     H_    0.253769 0.282910 0.979251 0.221580
C33   C     C_3   0.934273 0.748220 0.432115 -0.936586
H29   H     H_    0.948800 0.800208 0.369050 0.239669
H30   H     H_    0.845863 0.775219 0.460229 0.255436
H31   H     H_    0.003986 0.796034 0.474128 0.215802
C34   C     C_3   0.888576 0.546296 0.337594 -0.970047
H32   H     H_    0.896060 0.435687 0.325304 0.219738
H33   H     H_    0.789732 0.569384 0.334987 0.237137
H34   H     H_    0.938491 0.601903 0.283743 0.244792
C35   C     C_3   0.675695 0.154827 0.383155 -0.854377
H35   H     H_    0.624889 0.118128 0.326709 0.225867
H36   H     H_    0.677605 0.265944 0.379076 0.286786
H37   H     H_    0.774058 0.131169 0.373711 0.193429
C36   C     C_3   0.660734 0.867473 0.377277 -0.861443
H38   H     H_    0.594539 0.887267 0.326767 0.227572
H39   H     H_    0.752617 0.911044 0.355586 0.212412
H40   H     H_    0.673723 0.757697 0.379492 0.287207
C37   C     C_3   0.460078 0.233341 0.904316 -0.386264
C38   C     C_3   0.365117 0.187809 0.837043 -0.903612
H41   H     H_    0.276723 0.147381 0.867285 0.255639
H42   H     H_    0.347887 0.272752 0.792491 0.268156
H43   H     H_    0.401537 0.102973 0.798400 0.241070
H44   H     H_    0.543570 0.239034 0.864894 0.238290
H45   H     H_    0.465886 0.146662 0.949943 0.186496
C39   C     C_3   0.535828 0.788348 0.920951 -0.370082
C40   C     C_3   0.546050 0.820337 0.824402 -0.890546
H46   H     H_    0.618232 0.762339 0.792078 0.250660
H47   H     H_    0.457672 0.799742 0.791892 0.273823
H48   H     H_    0.573127 0.930611 0.814979 0.232580
H49   H     H_    0.481779 0.870741 0.950244 0.195506
H50   H     H_    0.623372 0.818361 0.947453 0.160661
C41   C     C_3   0.733777 0.667276 0.083010 -0.399292
C42   C     C_3   0.873317 0.708442 0.080702 -0.923525
H51   H     H_    0.891002 0.788584 0.129585 0.242847
H52   H     H_    0.933629 0.624781 0.095982 0.248750
H53   H     H_    0.903401 0.757435 0.019323 0.270005
H54   H     H_    0.689717 0.752807 0.055676 0.183739
H55   H     H_    0.706284 0.676840 0.151643 0.205313
C43   C     C_3   0.767538 0.420004 0.105096 -0.335432
C44   C     C_3   0.729054 0.272701 0.133440 -0.989424
H56   H     H_    0.643152 0.267694 0.173779 0.276494
H57   H     H_    0.723164 0.199614 0.080079 0.248337
H58   H     H_    0.801885 0.235118 0.174740 0.253227
H59   H     H_    0.860780 0.417049 0.074945 0.187596
H60   H     H_    0.785784 0.468730 0.167901 0.229120
C45   C     C_3   0.770597 0.601364 0.894813 -0.276372
C46   C     C_3   0.911135 0.580746 0.893442 -0.899166
H61   H     H_    0.942314 0.536563 0.953684 0.263316
H62   H     H_    0.939880 0.516688 0.839225 0.254165
H63   H     H_    0.962890 0.680769 0.882652 0.232157
H64   H     H_    0.745667 0.604005 0.826901 0.194542
H65   H     H_    0.763773 0.704975 0.917418 0.200516
C47   C     C_3   0.734049 0.350062 0.923948 -0.295876
C48   C     C_3   0.760744 0.312007 0.829125 -0.928846
H66   H     H_    0.729003 0.204272 0.817006 0.231086
H67   H     H_    0.718645 0.378809 0.782624 0.269829
H68   H     H_    0.861401 0.313994 0.814197 0.242587
H69   H     H_    0.824408 0.340525 0.952984 0.218512
H70   H     H_    0.680036 0.265707 0.955279 0.165667
C49   C     C_3   0.120828 0.720450 0.611135 -0.353019
C50   C     C_3   0.196811 0.723097 0.692075 -0.958709
H71   H     H_    0.139525 0.682049 0.747407 0.259509
H72   H     H_    0.278394 0.660543 0.683309 0.275573
H73   H     H_    0.227655 0.829947 0.707303 0.244055
H74   H     H_    0.175742 0.766307 0.557225 0.218415
H75   H     H_    0.047119 0.793003 0.623319 0.198847
C51   C     C_3   0.100448 0.217970 0.472301 -0.348534
C52   C     C_3   0.135005 0.232315 0.376947 -0.871549
H76   H     H_    0.056232 0.267749 0.340782 0.244090
H77   H     H_    0.217349 0.302667 0.365580 0.270528
H78   H     H_    0.157159 0.130574 0.351334 0.225844
H79   H     H_    0.174142 0.180914 0.511383 0.190073
H80   H     H_    0.027726 0.133429 0.478716 0.182722

loop_
_geom_bond_atom_site_label_1
_geom_bond_atom_site_label_2
_ccdc_geom_bond_type
C39   H50   S    
C33   H29   S    
C44   H56   S    
C9    H21   S    
C24   C27   S    
C10   H22   S    
C35   H37   S    
C42   H52   S    
C35   H35   S    
C15   C34   S    
C36   H38   S    
C26   C37   S    
C27   C31   S    
C24   H15   S    
C1    O2    A    
C43   H60   S    
C51   H79   S    
C16   H5    S    
C22   O6    A    
C5    C6    T    
C52   H78   S    
C36   H40   S    
N2    Zn1   S    
C3    C43   S    
C40   H46   S    
C18   C35   S    
C8    C51   S    
C18   C19   S    
C37   H44   S    
C32   H27   S    
C9    C13   S    
C46   H61   S    
O8    Zn2   S    
C18   N1    S    
C4    C28   T    
C16   N1    S    
C11   C15   S    
C23   O8    A    
C50   H71   S    
C31   H24   S    
O1    Zn1   S    
C47   H69   S    
C48   H68   S    
O2    Zn2   S    
C41   H54   S    
C17   H6    S    
C25   H17   S    
C7    C49   S    
C16   H7    S    
C36   H39   S    
C39   H49   S    
C27   C30   S    
C25   C29   S    
C33   H30   S    
C27   C39   S    
C1    C12   S    
C20   H11   S    
C42   H51   S    
C40   H47   S    
C2    C45   S    
O3    Zn1   S    
C5    C29   S    
C34   H33   S    
O4    Zn2   S    
C7    C12   S    
C14   O4    A    
C24   H18   S    
C11   H3    S    
C7    H19   S    
C49   H74   S    
C22   O5    A    
C20   H9    S    
C16   C17   S    
C25   C26   S    
C34   H32   S    
C43   C44   S    
C46   H63   S    
C37   H45   S    
C32   H28   S    
C45   H64   S    
C49   H75   S    
C6    C14   S    
C38   H42   S    
C23   O7    A    
C8    C12   S    
C31   H25   S    
C39   C40   S    
O7    Zn1   S    
C47   H70   S    
C44   H57   S    
C23   C28   S    
C17   N2    S    
C19   N2    S    
C8    C10   S    
C15   C33   S    
C26   C30   S    
C13   C15   S    
C48   H66   S    
C33   H31   S    
C2    C30   S    
C49   C50   S    
C8    H20   S    
C40   H48   S    
C19   H14   S    
C38   H43   S    
C34   H34   S    
C3    C41   S    
C7    C9    S    
C14   O3    A    
C11   H4    S    
C20   N1    S    
C19   C36   S    
C10   C13   S    
C35   H36   S    
C52   H76   S    
C2    C47   S    
O5    Zn1   S    
C41   H55   S    
O6    Zn2   S    
C2    C3    S    
C45   H65   S    
C51   H80   S    
C45   C46   S    
C52   H77   S    
C3    C29   S    
C38   H41   S    
C21   N2    S    
C21   H10   S    
C50   H73   S    
C25   H16   S    
N1    Zn2   S    
C13   C22   S    
C44   H58   S    
C17   H8    S    
C1    O1    A    
C32   H26   S    
C46   H62   S    
C51   C52   S    
C9    H1    S    
C21   H12   S    
C10   H2    S    
C24   C29   S    
C20   C21   S    
C50   H72   S    
C31   H23   S    
C41   C42   S    
C48   H67   S    
C26   C32   S    
C37   C38   S    
C18   H13   S    
C43   H59   S    
C42   H53   S    
C4    C30   S    
C11   C12   S    
C47   C48   S    
