data_mof_unit_11109.cif
_audit_creation_date              2012-12-10T17:46:59-0500
_audit_creation_method            fapswitch 2.2
_symmetry_space_group_name_H-M    P1
_symmetry_Int_Tables_number       1
_space_group_crystal_system       triclinic
_cell_length_a                    9.936966
_cell_length_b                    10.667253
_cell_length_c                    13.616208
_cell_angle_alpha                 90.891095
_cell_angle_beta                  83.184654
_cell_angle_gamma                 89.791968
_cell_volume                      1432.92585884

loop_
_atom_site_label
_atom_site_type_symbol
_atom_type_description
_atom_site_fract_x
_atom_site_fract_y
_atom_site_fract_z
_atom_type_partial_charge
C1    C     C_R   0.500672 0.739167 0.493155 0.957561
C2    C     C_R   0.559281 0.935666 0.558944 -0.241514
C3    C     C_R   0.559933 0.063586 0.561095 -0.192915
C4    C     C_R   0.475856 0.500513 0.685539 0.870795
C5    C     C_R   0.502817 0.128488 0.488779 -0.066885
C6    C     C_R   0.839816 0.665520 0.627717 -0.144941
C7    C     C_R   0.899822 0.746218 0.690694 -0.198046
C8    C     C_R   0.038941 0.744778 0.691333 -0.188141
C9    C     C_R   0.118977 0.662981 0.628692 -0.144451
C10   C     C_R   0.061938 0.580698 0.563187 0.165329
C11   C     C_R   0.917551 0.581245 0.562910 0.171930
C12   C     C_1   0.457727 0.502174 0.789360 -0.182281
C13   C     C_R   0.938712 0.422487 0.439726 -0.113191
C14   C     C_R   0.081663 0.422626 0.439663 -0.102229
C15   C     C_R   0.500585 0.260658 0.498221 0.853911
C16   C     C_R   0.524259 0.496852 0.314470 0.944769
C17   C     C_1   0.542501 0.493496 0.210640 -0.181573
C18   C     C_2   0.558016 0.489932 0.018898 -0.158744
C19   C     C_2   0.442011 0.503850 0.981134 -0.172948
C20   C     C_1   0.445884 0.503393 0.877197 0.005788
C21   C     C_1   0.554259 0.491204 0.122818 -0.000678
C22   C     C_R   0.397618 0.874220 0.323981 0.443156
C23   C     C_R   0.347096 0.945720 0.250221 -0.229715
C24   C     C_R   0.349513 0.075387 0.254470 -0.195662
C25   C     C_R   0.401611 0.136147 0.332209 -0.193685
C26   C     C_R   0.449559 0.067671 0.409316 0.030893
C27   C     C_R   0.448254 0.935532 0.406049 0.051116
C28   C     C_R   0.501820 0.871819 0.484340 -0.089884
H1    H     H_    0.345734 0.515801 0.027447 0.155402
H2    H     H_    0.312700 0.129238 0.196307 0.156998
H3    H     H_    0.405608 0.237222 0.329954 0.148127
H4    H     H_    0.601957 0.112378 0.620873 0.151578
H5    H     H_    0.893462 0.359031 0.390451 0.147916
H6    H     H_    0.361077 0.719566 0.254048 0.325399
H7    H     H_    0.732542 0.672271 0.632446 0.195563
H8    H     H_    0.837691 0.809998 0.739591 0.146767
H9    H     H_    0.085300 0.807284 0.740804 0.149436
H10   H     H_    0.224834 0.666646 0.633977 0.196722
H11   H     H_    0.143470 0.359237 0.390330 0.144592
H12   H     H_    0.654322 0.478160 0.972592 0.161340
H13   H     H_    0.600865 0.885970 0.617508 0.139337
H14   H     H_    0.307975 0.900538 0.187790 0.134099
N1    N     N_R   0.857120 0.501200 0.500900 -0.120261
N2    N     N_R   0.142720 0.501280 0.500940 -0.117322
O1    O     O_R   0.385310 0.683220 0.500000 -0.598247
O2    O     O_R   0.614640 0.683250 0.500010 -0.644135
O3    O     O_R   0.368830 0.499960 0.640340 -0.630751
O4    O     O_R   0.598160 0.499980 0.640350 -0.629228
O5    O     O_R   0.385360 0.316750 0.499990 -0.620456
O6    O     O_R   0.614690 0.316780 0.500000 -0.615043
O7    O     O_R   0.401840 0.500020 0.359650 -0.589853
O8    O     O_R   0.631170 0.500040 0.359660 -0.610035
O9    O     O_3   0.401644 0.745786 0.314230 -0.777381
Zn1   Zn    Zn3+2 0.346870 0.499980 0.499990 0.956739
Zn2   Zn    Zn3+2 0.653130 0.500020 0.500010 0.944930

loop_
_geom_bond_atom_site_label_1
_geom_bond_atom_site_label_2
_ccdc_geom_bond_type
O2    Zn2   S    
C25   H3    S    
C1    C28   S    
C23   C24   A    
O8    Zn2   S    
C11   N1    A    
C6    C7    A    
C8    H9    S    
O4    Zn2   S    
C18   C21   S    
C9    C10   A    
C19   C20   S    
C16   O7    A    
O7    Zn1   S    
C12   C20   T    
C2    C3    A    
C14   H11   S    
C7    C8    A    
C13   C14   A    
C24   C25   A    
C13   H5    S    
C6    C11   A    
C1    O1    A    
C26   C27   A    
C16   O8    A    
C23   H14   S    
O3    Zn1   S    
N1    Zn2   S    
C9    H10   S    
O1    Zn1   S    
C22   O9    S    
C22   C27   A    
C15   O5    A    
C4    O4    A    
C3    H4    S    
C24   H2    S    
C1    O2    A    
C5    C15   S    
C4    C12   S    
C10   C11   A    
C2    H13   S    
C10   N2    A    
O5    Zn1   S    
C19   H1    S    
C5    C26   A    
N2    Zn1   S    
C13   N1    A    
C6    H7    S    
H6    O9    S    
C14   N2    A    
C18   C19   D    
C7    H8    S    
C15   O6    A    
C27   C28   A    
C18   H12   S    
C22   C23   A    
C16   C17   S    
C2    C28   A    
C25   C26   A    
C17   C21   T    
O6    Zn2   S    
C8    C9    A    
C3    C5    A    
C4    O3    A    
