data_mof_unit_18022.cif
_audit_creation_date              2013-03-05T16:14:05-0500
_audit_creation_method            fapswitch 2.2
_symmetry_space_group_name_H-M    P1
_symmetry_Int_Tables_number       1
_space_group_crystal_system       triclinic
_cell_length_a                    9.876805
_cell_length_b                    10.793248
_cell_length_c                    16.639228
_cell_angle_alpha                 88.908537
_cell_angle_beta                  93.823651
_cell_angle_gamma                 89.413537
_cell_volume                      1769.40117049

loop_
_atom_site_label
_atom_site_type_symbol
_atom_site_description
_atom_site_fract_x
_atom_site_fract_y
_atom_site_fract_z
_atom_type_partial_charge
O1    O     O_R   0.614620 0.316750 0.500010 -0.607096
O2    O     O_R   0.385380 0.683250 0.499990 -0.607087
O3    O     O_R   0.385290 0.316780 0.500000 -0.642482
O4    O     O_R   0.614710 0.683220 0.500000 -0.642481
C1    C     C_R   0.501383 0.259991 0.499227 0.919746
C2    C     C_R   0.498618 0.740009 0.500773 0.919705
O5    O     O_R   0.627460 0.498830 0.616130 -0.596459
O6    O     O_R   0.372540 0.501170 0.383870 -0.596436
O7    O     O_R   0.398130 0.498850 0.616130 -0.627538
O8    O     O_R   0.601870 0.501150 0.383870 -0.627545
C3    C     C_R   0.517269 0.499225 0.653396 0.986689
C4    C     C_R   0.482731 0.500770 0.346604 0.986665
Zn1   Zn    Zn3+2 0.653130 0.499980 0.500000 0.969084
Zn2   Zn    Zn3+2 0.346870 0.500020 0.500000 0.969103
C5    C     C_R   0.529270 0.506476 0.740428 -0.223330
C6    C     C_R   0.470735 0.493497 0.259571 -0.223356
C7    C     C_R   0.465562 0.605748 0.778391 -0.008660
C8    C     C_R   0.534517 0.394257 0.221618 -0.008645
C9    C     C_R   0.479831 0.612501 0.862773 0.322733
C10   C     C_R   0.520281 0.387494 0.137236 0.322751
C11   C     C_R   0.561698 0.523954 0.906730 0.135987
C12   C     C_R   0.438364 0.475994 0.093269 0.135982
C13   C     C_R   0.633100 0.433616 0.868231 -0.210691
C14   C     C_R   0.366885 0.566290 0.131758 -0.210684
C15   C     C_R   0.615308 0.421359 0.785300 0.245249
C16   C     C_R   0.384649 0.578562 0.214689 0.245299
N1    N     N_2   0.558062 0.513333 0.990438 -0.084738
N2    N     N_2   0.442007 0.486614 0.009561 -0.084796
H1    H     H_    0.694052 0.366112 0.904024 0.241618
H2    H     H_    0.305891 0.633756 0.095956 0.241585
C17   C     C_R   0.383784 0.067934 0.514239 -0.195021
C18   C     C_R   0.616219 0.932066 0.485768 -0.195050
H3    H     H_    0.293547 0.120958 0.525683 0.168579
H4    H     H_    0.706456 0.879042 0.474324 0.168585
C19   C     C_R   0.376347 0.940876 0.515152 0.195358
C20   C     C_R   0.623657 0.059123 0.484857 0.195362
C21   C     C_R   0.495295 0.872635 0.500814 -0.068544
C22   C     C_R   0.504707 0.127364 0.499191 -0.068511
C23   C     C_R   0.066523 0.563681 0.442164 -0.099681
C24   C     C_R   0.933477 0.436319 0.557836 -0.099694
H5    H     H_    0.117555 0.613431 0.396063 0.184059
H6    H     H_    0.882445 0.386570 0.603937 0.184026
C25   C     C_R   0.922999 0.564137 0.441371 0.209670
C26   C     C_R   0.077001 0.435863 0.558629 0.209682
N3    N     N_R   0.857210 0.499970 0.500020 -0.104519
N4    N     N_R   0.142790 0.500030 0.499980 -0.104523
C27   C     C_3   0.610643 0.293653 0.271395 -0.732649
H7    H     H_    0.548757 0.261465 0.320869 0.201668
H8    H     H_    0.631748 0.210215 0.236333 0.277756
H9    H     H_    0.708468 0.330188 0.297156 0.244885
C28   C     C_3   0.389478 0.706385 0.728621 -0.732670
H10   H     H_    0.451373 0.738549 0.679145 0.201675
H11   H     H_    0.291634 0.669886 0.702863 0.244867
H12   H     H_    0.368417 0.789827 0.763689 0.277786
N5    N     N_R   0.591768 0.294737 0.095255 0.213823
O9    O     O_R   0.528822 0.232835 0.038030 -0.323248
O10   O     O_R   0.722910 0.283155 0.107038 -0.350444
N6    N     N_R   0.408430 0.705299 0.904767 0.213832
O11   O     O_R   0.471442 0.767156 0.961990 -0.323206
O12   O     O_R   0.277295 0.716964 0.892999 -0.350453
N7    N     N_R   0.680779 0.319459 0.748163 0.220794
O13   O     O_R   0.798825 0.278974 0.777481 -0.359388
O14   O     O_R   0.615797 0.256576 0.692175 -0.406208
N8    N     N_R   0.319111 0.680434 0.251816 0.220798
O15   O     O_R   0.201041 0.720844 0.222492 -0.359408
O16   O     O_R   0.384050 0.743369 0.307794 -0.406174
C29   C     C_3   0.240927 0.884190 0.531593 -0.806142
H13   H     H_    0.252259 0.820459 0.584688 0.242076
H14   H     H_    0.163835 0.955147 0.545137 0.221538
H15   H     H_    0.199342 0.834384 0.477796 0.264256
C30   C     C_3   0.759081 0.115808 0.468424 -0.806148
H16   H     H_    0.747761 0.179537 0.415328 0.242072
H17   H     H_    0.800656 0.165615 0.522223 0.264264
H18   H     H_    0.836176 0.044850 0.454887 0.221536
C31   C     C_3   0.846949 0.632821 0.372839 -0.759793
H19   H     H_    0.914148 0.697703 0.342041 0.223449
H20   H     H_    0.808586 0.566171 0.327093 0.255032
H21   H     H_    0.763652 0.689746 0.393894 0.262605
C32   C     C_3   0.153051 0.367181 0.627162 -0.759813
H22   H     H_    0.085852 0.302299 0.657960 0.223429
H23   H     H_    0.236348 0.310256 0.606107 0.262620
H24   H     H_    0.191414 0.433832 0.672907 0.255029

loop_
_geom_bond_atom_site_label_1
_geom_bond_atom_site_label_2
_geom_bond_distance
_ccdc_geom_bond_type
O5    Zn1   1.965391 S    
N5    O9    1.301293 A    
O7    Zn2   1.964378 S    
C8    C27   1.515371 S    
C7    C28   1.515371 S    
Zn2   N4    2.015635 S    
O5    C3    1.288020 A    
O1    C1    1.280125 A    
C18   C20   1.373929 A    
C19   C21   1.416327 A    
C14   C16   1.388390 A    
C5    C15   1.413101 A    
N6    O12   1.301389 A    
O4    Zn1   2.010010 S    
N7    O14   1.301437 A    
C16   N8    1.440213 S    
C3    C5    1.448761 S    
C4    C6    1.448781 S    
C17   H3    1.083731 S    
C8    C10   1.405069 A    
C20   C30   1.515682 S    
O7    C3    1.293071 A    
C24   H6    1.082691 S    
C11   N1    1.398237 S    
C9    N6    1.437600 S    
C12   N2    1.398248 S    
C1    C22   1.431525 S    
C6    C16   1.413088 A    
O2    C2    1.280128 A    
C10   N5    1.437612 S    
C26   N4    1.386449 A    
C27   H9    1.109854 S    
C11   C13   1.388656 A    
C25   C31   1.502078 S    
C24   N3    1.353670 A    
C28   H10   1.110197 S    
O4    C2    1.295561 A    
C32   H23   1.101533 S    
C23   C25   1.416698 A    
N6    O11   1.301284 A    
C29   H13   1.108276 S    
C29   H14   1.111127 S    
C18   H4    1.083730 S    
C31   H19   1.111187 S    
C30   H18   1.111126 S    
C31   H20   1.108343 S    
C27   H7    1.110199 S    
C19   C29   1.515683 S    
O6    C4    1.288027 A    
C2    C21   1.431525 S    
C15   N7    1.440224 S    
C18   C21   1.396435 A    
C25   N3    1.386450 A    
O3    Zn2   2.010013 S    
O8    C4    1.293078 A    
C23   N4    1.353671 A    
C10   C12   1.407429 A    
N5    O10   1.301407 A    
C17   C19   1.373930 A    
O1    Zn1   2.017711 S    
C13   H1    1.083807 S    
C30   H17   1.110297 S    
C5    C7    1.417033 A    
O6    Zn2   1.965391 S    
C9    C11   1.407423 A    
C26   C32   1.502078 S    
O3    C1    1.295562 A    
O8    Zn1   1.964378 S    
C32   H24   1.108342 S    
C27   H8    1.107803 S    
C17   C22   1.396436 A    
C28   H12   1.107792 S    
N8    O15   1.301466 A    
C29   H15   1.110300 S    
C20   C22   1.416328 A    
C30   H16   1.108275 S    
Zn1   N3    2.015635 S    
C7    C9    1.405086 A    
C12   C14   1.388661 A    
C13   C15   1.388381 A    
N7    O13   1.301492 A    
O2    Zn2   2.017709 S    
C31   H21   1.101532 S    
C14   H2    1.083828 S    
C32   H22   1.111188 S    
C24   C26   1.416698 A    
C23   H5    1.082692 S    
C6    C8    1.417038 A    
N1    N2    1.245082 D    
C28   H11   1.109850 S    
N8    O16   1.301425 A    
