data_mof_unit_25867.cif
_audit_creation_date              2012-12-10T17:21:19-0500
_audit_creation_method            fapswitch 2.2
_symmetry_space_group_name_H-M    P1
_symmetry_Int_Tables_number       1
_space_group_crystal_system       triclinic
_cell_length_a                    9.680925
_cell_length_b                    10.825813
_cell_length_c                    13.859153
_cell_angle_alpha                 94.441361
_cell_angle_beta                  85.102442
_cell_angle_gamma                 91.495489
_cell_volume                      1442.56650529

loop_
_atom_site_label
_atom_site_type_symbol
_atom_type_description
_atom_site_fract_x
_atom_site_fract_y
_atom_site_fract_z
_atom_type_partial_charge
C1    C     C_R   0.502139 0.736633 0.494960 0.772729
C2    C     C_1   0.464755 0.500329 0.786019 -0.163409
C3    C     C_R   0.297960 0.863199 0.395696 -0.316329
C4    C     C_R   0.162478 0.907336 0.393816 0.450743
C5    C     C_R   0.131868 0.022286 0.443966 0.387089
C6    C     C_R   0.237172 0.098052 0.480784 -0.300689
C7    C     C_R   0.373381 0.055051 0.479315 0.025273
C8    C     C_R   0.394538 0.929162 0.451686 0.043727
C9    C     C_R   0.504932 0.870331 0.488565 -0.104132
C10   C     C_R   0.604511 0.940734 0.536537 -0.091595
C11   C     C_R   0.599551 0.069001 0.543825 -0.082171
C12   C     C_R   0.477671 0.500651 0.682708 0.805010
C13   C     C_R   0.486602 0.128115 0.512776 -0.141335
C14   C     C_R   0.881139 0.362267 0.340842 0.484412
C15   C     C_R   0.975300 0.333536 0.258669 -0.454688
C16   C     C_R   0.112225 0.315561 0.270711 0.424160
C17   C     C_R   0.162330 0.355214 0.358152 -0.206280
C18   C     C_R   0.082937 0.429705 0.428645 0.076160
C19   C     C_R   0.934228 0.431331 0.424909 0.098348
C20   C     C_R   0.918440 0.570463 0.567948 0.566138
C21   C     C_R   0.068046 0.570445 0.566319 -0.143790
C22   C     C_R   0.496187 0.262955 0.506492 0.810048
C23   C     C_R   0.522443 0.503944 0.317673 0.811234
C24   C     C_1   0.535891 0.513718 0.215237 -0.134217
C25   C     C_2   0.555712 0.527257 0.025549 -0.170749
C26   C     C_2   0.444724 0.499211 0.976748 -0.108492
C27   C     C_1   0.454747 0.500002 0.872993 -0.007875
C28   C     C_1   0.546368 0.521150 0.128878 0.050055
Cu1   Cu    Cu3+1 0.359340 0.500010 0.500010 0.940497
Cu2   Cu    Cu3+1 0.640660 0.499990 0.499990 1.052925
H1    H     H_    0.346199 0.473625 0.014296 0.196735
H2    H     H_    0.940985 0.304268 0.188321 0.199182
H3    H     H_    0.264745 0.328139 0.367247 0.222137
H4    H     H_    0.121893 0.628856 0.618181 0.131499
H5    H     H_    0.654436 0.552387 0.988047 0.150019
H6    H     H_    0.684367 0.895559 0.569875 0.219217
H7    H     H_    0.326477 0.774244 0.360078 0.148765
H8    H     H_    0.206085 0.182452 0.522204 0.224115
H9    H     H_    0.681494 0.122377 0.576871 0.221348
N1    N     N_R   0.852210 0.498790 0.499090 -0.212231
N2    N     N_R   0.148080 0.498710 0.499060 -0.197295
O1    O     O_R   0.381190 0.680360 0.500010 -0.585492
O2    O     O_R   0.618760 0.680340 0.500000 -0.538055
O3    O     O_R   0.364420 0.499990 0.637850 -0.577042
O4    O     O_R   0.601990 0.499960 0.637840 -0.532945
O5    O     O_R   0.381240 0.319660 0.500000 -0.620475
O6    O     O_R   0.618810 0.319640 0.499990 -0.486032
O7    O     O_R   0.398010 0.500040 0.362160 -0.602412
O8    O     O_R   0.635580 0.500010 0.362150 -0.555327
O9    O     O_3   0.750602 0.303533 0.346836 -0.503526
C29   C     C_3   0.712796 0.237273 0.259845 0.035751
H10   H     H_    0.787944 0.163429 0.234495 0.159174
H11   H     H_    0.704578 0.301996 0.202184 0.146332
C30   C     C_3   0.573789 0.171100 0.276375 -0.635769
H12   H     H_    0.493504 0.236999 0.307785 0.244128
H13   H     H_    0.541956 0.128529 0.206025 0.241969
H14   H     H_    0.583285 0.095774 0.324961 0.244656
S1    S     S_3+6 0.216040 0.228271 0.180856 -0.048965
O10   O     O_2   0.348420 0.298495 0.156588 -0.340054
O11   O     O_2   0.249207 0.107738 0.219829 -0.334097
O12   O     O_3   0.132614 0.199161 0.079683 -0.543804
H15   H     H_    0.198375 0.150548 0.033932 0.378099
O13   O     O_3   0.052401 0.837730 0.356926 -0.542528
C31   C     C_3   0.092970 0.734553 0.293236 0.071973
H16   H     H_    0.134292 0.661343 0.334222 0.157376
H17   H     H_    0.170975 0.762106 0.234582 0.154060
C32   C     C_3   0.966375 0.680229 0.246126 -0.751678
H18   H     H_    0.921914 0.750325 0.203844 0.254033
H19   H     H_    0.996368 0.598102 0.196464 0.198015
H20   H     H_    0.886463 0.651330 0.302752 0.255420
S2    S     S_3+6 0.959088 0.060083 0.479658 0.002141
O14   O     O_2   0.915123 0.984567 0.563698 -0.307233
O15   O     O_2   0.945962 0.194785 0.512890 -0.331137
O16   O     O_3   0.857340 0.023870 0.388817 -0.479535
H21   H     H_    0.913415 0.047076 0.329610 0.351622
O17   O     O_3   0.835331 0.648217 0.632130 -0.545202
C33   C     C_3   0.895317 0.685576 0.719324 0.033215
H22   H     H_    0.975371 0.759364 0.706390 0.167023
H23   H     H_    0.940695 0.605740 0.750887 0.133671
C34   C     C_3   0.783499 0.739979 0.793007 -0.736615
H24   H     H_    0.702541 0.668466 0.809462 0.240713
H25   H     H_    0.829821 0.772620 0.861261 0.200523
H26   H     H_    0.734997 0.819509 0.763717 0.251742

loop_
_geom_bond_atom_site_label_1
_geom_bond_atom_site_label_2
_ccdc_geom_bond_type
C34   H24   S    
Cu1   O1    S    
Cu2   O4    S    
C2    C12   S    
C15   H2    S    
C33   H22   S    
C25   C28   S    
C4    O13   S    
C26   C27   S    
C5    C6    A    
C20   N1    A    
C23   O8    A    
C16   C17   A    
S1    O11   D    
C15   C16   A    
C20   O17   S    
C18   C19   A    
C1    O2    A    
C8    C9    A    
C23   C24   S    
C6    H8    S    
C2    C27   T    
C9    C10   A    
S1    O12   S    
C22   O6    A    
C26   H1    S    
C17   H3    S    
C34   H26   S    
O9    C29   S    
C33   H23   S    
C30   H13   S    
O16   H21   S    
Cu1   O7    S    
C32   H18   S    
C31   C32   S    
Cu2   O6    S    
C7    C8    A    
C1    C9    S    
O17   C33   S    
C34   H25   S    
C3    C8    A    
C10   C11   A    
C18   N2    A    
S2    O15   D    
C12   O4    A    
C21   H4    S    
C25   C26   D    
C29   H10   S    
C32   H19   S    
C31   H17   S    
Cu1   Cu2   S    
C17   C18   A    
Cu2   N1    S    
C16   S1    S    
C11   H9    S    
C25   H5    S    
C21   N2    A    
C22   O5    A    
Cu2   O8    S    
Cu1   O3    S    
Cu2   O2    S    
C3    C4    A    
C33   C34   S    
C30   H12   S    
C23   O7    A    
Cu1   N2    S    
C14   C19   A    
C24   C28   T    
C4    C5    A    
S2    O16   S    
C6    C7    A    
Cu1   O5    S    
C32   H20   S    
C31   H16   S    
C29   C30   S    
S1    O10   D    
S2    O14   D    
C5    S2    S    
C11   C13   A    
C14   O9    S    
C13   C22   S    
O12   H15   S    
C19   N1    A    
O13   C31   S    
C1    O1    A    
C7    C13   A    
C20   C21   A    
C3    H7    S    
C12   O3    A    
C14   C15   A    
C10   H6    S    
C29   H11   S    
C30   H14   S    
