data_mof_unit_64004.cif
_audit_creation_date              2012-12-11T14:55:56-0500
_audit_creation_method            fapswitch 2.2
_symmetry_space_group_name_H-M    P1
_symmetry_Int_Tables_number       1
_space_group_crystal_system       triclinic
_cell_length_a                    8.225159
_cell_length_b                    15.013884
_cell_length_c                    19.086288
_cell_angle_alpha                 99.983444
_cell_angle_beta                  91.785702
_cell_angle_gamma                 99.55988
_cell_volume                      2284.70320415

loop_
_atom_site_label
_atom_site_type_symbol
_atom_type_description
_atom_site_fract_x
_atom_site_fract_y
_atom_site_fract_z
_atom_type_partial_charge
Ba1   Ba    Ba6+2 0.854510 0.539840 0.465770 1.636219
Ba2   Ba    Ba6+2 0.335330 0.460240 0.534240 1.634817
C1    C     C_3   0.722819 0.878572 0.298726 -0.361580
C2    C     C_R   0.018564 0.532894 0.726518 0.059461
C3    C     C_R   0.849928 0.418067 0.809822 -0.162057
C4    C     C_3   0.144477 0.736950 0.273524 0.356995
C5    C     C_R   0.781140 0.423422 0.743055 -0.003082
C6    C     C_R   0.343578 0.577447 0.188871 -0.166553
C7    C     C_R   0.411940 0.571339 0.255687 0.001741
C8    C     C_R   0.134669 0.447325 0.197823 -0.149283
C9    C     C_R   0.171605 0.464651 0.272549 0.055627
C10   C     C_R   0.981240 0.486997 0.844451 0.008974
C11   C     C_R   0.875509 0.472710 0.698986 -0.242258
C12   C     C_3   0.675652 0.784400 0.319062 0.384660
C13   C     C_R   0.210492 0.509610 0.154121 0.008179
C14   C     C_R   0.317204 0.522601 0.299748 -0.244977
C15   C     C_R   0.754708 0.440186 0.958771 -0.083074
C16   C     C_3   0.104537 0.759633 0.200873 -0.352967
C17   C     C_R   0.648601 0.403927 0.005765 -0.073988
C18   C     C_R   0.700047 0.417130 0.076780 -0.069828
C19   C     C_R   0.859708 0.461317 0.098616 -0.085388
C20   C     C_R   0.981983 0.477181 0.049853 0.018050
C21   C     C_R   0.926713 0.469140 0.976304 0.034851
C22   C     C_R   0.152562 0.504621 0.074470 -0.017184
C23   C     C_3   0.458076 0.317478 0.316032 0.313814
C24   C     C_R   0.265705 0.527554 0.021841 0.034862
C25   C     C_R   0.210471 0.520839 0.948401 0.018217
C26   C     C_R   0.039737 0.492550 0.923790 -0.017389
C27   C     C_R   0.437651 0.555222 0.039462 -0.081991
C28   C     C_3   0.247983 0.744827 0.623695 0.317968
C29   C     C_R   0.544509 0.592237 0.993190 -0.074060
C30   C     C_R   0.493131 0.581967 0.922643 -0.069521
C31   C     C_R   0.332981 0.539376 0.900171 -0.081046
C32   C     C_R   0.759448 0.236331 0.526261 -0.286290
C33   C     C_R   0.850852 0.178522 0.553400 0.004403
C34   C     C_3   0.440853 0.291716 0.235091 -0.393006
C35   C     C_R   0.788963 0.084202 0.544194 -0.131051
C36   C     C_R   0.635721 0.045945 0.505124 0.014285
C37   C     C_R   0.552742 0.106305 0.474224 -0.121643
C38   C     C_R   0.613926 0.199802 0.484851 0.029269
C39   C     C_R   0.409041 0.908682 0.457184 -0.136222
C40   C     C_3   0.274759 0.849325 0.641196 -0.393328
C41   C     C_R   0.344719 0.815252 0.446533 0.002607
C42   C     C_R   0.582467 0.788798 0.511538 0.056601
C43   C     C_R   0.649100 0.882285 0.521803 -0.127437
C44   C     C_R   0.565407 0.944654 0.493795 0.004767
C45   C     C_3   0.057155 0.264132 0.727472 0.366515
C46   C     C_R   0.433894 0.755047 0.471630 -0.288048
C47   C     C_3   0.947725 0.255058 0.377018 0.315716
C48   C     C_3   0.916979 0.150774 0.358343 -0.392352
C49   C     C_3   0.727521 0.666770 0.680383 0.320138
C50   C     C_3   0.743622 0.693425 0.761112 -0.400151
C51   C     C_3   0.095336 0.239995 0.799629 -0.348086
C52   C     C_3   0.524545 0.209976 0.674261 0.386588
C53   C     C_3   0.462582 0.112527 0.686374 -0.337975
C54   C     C_R   0.054085 0.550291 0.801166 -0.152146
H1    H     H_    0.737004 0.785506 0.371976 0.081071
H2    H     H_    0.843213 0.645792 0.661418 0.003386
H3    H     H_    0.623902 0.608126 0.665799 0.082688
H4    H     H_    0.858496 0.902742 0.307921 0.145775
H5    H     H_    0.850389 0.749991 0.777957 0.124746
H6    H     H_    0.762833 0.633572 0.785168 0.058202
H7    H     H_    0.628835 0.716152 0.780759 0.124333
H8    H     H_    0.540169 0.771460 0.323156 -0.091035
H9    H     H_    0.657922 0.929102 0.331769 0.067589
H10   H     H_    0.340008 0.335897 0.335350 0.010436
H11   H     H_    0.558806 0.377827 0.330481 0.074126
H12   H     H_    0.369613 0.874895 0.685871 0.120055
H13   H     H_    0.337745 0.233098 0.218503 0.125418
H14   H     H_    0.414327 0.350933 0.211695 0.056662
H15   H     H_    0.558014 0.272452 0.214558 0.125337
H16   H     H_    0.685873 0.874927 0.241370 0.115954
H17   H     H_    0.179978 0.726076 0.160270 0.062491
H18   H     H_    0.118022 0.335973 0.727743 0.066934
H19   H     H_    0.922141 0.258092 0.719710 -0.064708
H20   H     H_    0.230272 0.261192 0.815512 0.146461
H21   H     H_    0.024624 0.276759 0.841125 0.062049
H22   H     H_    0.058782 0.164222 0.797053 0.118602
H23   H     H_    0.317469 0.879001 0.594368 0.067442
H24   H     H_    0.477316 0.216315 0.620460 0.069596
H25   H     H_    0.557477 0.068324 0.671228 0.061133
H26   H     H_    0.345971 0.081990 0.653027 0.127350
H27   H     H_    0.088121 0.664362 0.273453 0.060765
H28   H     H_    0.439185 0.112658 0.743721 0.129617
H29   H     H_    0.143282 0.610543 0.823908 0.061501
H30   H     H_    0.794826 0.361765 0.834449 0.065417
H31   H     H_    0.400113 0.633524 0.164284 0.066270
H32   H     H_    0.041402 0.388547 0.175507 0.065074
H33   H     H_    0.832314 0.468438 0.644233 0.066209
H34   H     H_    0.156610 0.872702 0.656375 0.130309
H35   H     H_    0.361249 0.525949 0.354349 0.068221
H36   H     H_    0.694103 0.450391 0.911334 0.082329
H37   H     H_    0.520064 0.377108 0.989097 0.077145
H38   H     H_    0.612445 0.400488 0.115735 0.080317
H39   H     H_    0.280146 0.745931 0.281727 -0.057123
H40   H     H_    0.885144 0.484971 0.154178 0.131613
H41   H     H_    0.497407 0.543760 0.086771 0.079862
H42   H     H_    0.673182 0.618073 0.010081 0.077519
H43   H     H_    0.581079 0.600188 0.884363 0.078704
H44   H     H_    0.309323 0.519964 0.844306 0.131491
H45   H     H_    0.831800 0.278562 0.392639 0.002874
H46   H     H_    0.329964 0.951080 0.438728 0.074193
H47   H     H_    0.865297 0.042906 0.566146 0.070789
H48   H     H_    0.764017 0.904203 0.553382 0.078475
H49   H     H_    0.442790 0.083203 0.439532 0.067787
H50   H     H_    0.381676 0.682868 0.464909 0.072598
H51   H     H_    0.971706 0.734199 0.184148 0.147436
H52   H     H_    0.807749 0.309038 0.532708 0.067461
H53   H     H_    0.132740 0.835254 0.202961 0.120403
H54   H     H_    0.367474 0.722471 0.611684 0.004828
H55   H     H_    0.159248 0.721702 0.576479 0.069365
H56   H     H_    0.042156 0.277050 0.422153 0.075501
H57   H     H_    0.661436 0.221325 0.676403 -0.091745
H58   H     H_    0.817087 0.126443 0.315387 0.124512
H59   H     H_    0.879853 0.120616 0.405501 0.070133
H60   H     H_    0.031653 0.126648 0.340119 0.127244
O1    O     O_2   0.872980 0.435970 0.325550 -0.462555
O2    O     O_2   0.184209 0.183997 0.541819 -0.481341
O3    O     O_3   0.115386 0.203025 0.673995 -0.585300
O4    O     O_3   0.121550 0.444190 0.414290 -0.495316
O5    O     O_3   0.581680 0.612000 0.537440 -0.496194
O6    O     O_2   0.334450 0.276040 0.463130 -0.455613
O7    O     O_3   0.494614 0.242553 0.344723 -0.640508
O8    O     O_2   0.456765 0.449270 0.758221 -0.507433
O9    O     O_3   0.469108 0.273622 0.726983 -0.587933
O10   O     O_3   0.664480 0.604250 0.370890 -0.472631
O11   O     O_2   0.733573 0.539976 0.244874 -0.501348
O12   O     O_3   0.698854 0.742551 0.651304 -0.634229
O13   O     O_3   0.001195 0.289996 0.316931 -0.635868
O14   O     O_3   0.725527 0.717203 0.267232 -0.592082
O15   O     O_2   0.855250 0.723990 0.536920 -0.458335
O16   O     O_3   0.087370 0.653760 0.407230 -0.484980
O17   O     O_2   0.012852 0.816970 0.459391 -0.484355
O18   O     O_3   0.081657 0.796599 0.326495 -0.591085
O19   O     O_2   0.316730 0.564060 0.674500 -0.474619
O20   O     O_3   0.068160 0.555880 0.585710 -0.495140
O21   O     O_3   0.525240 0.395830 0.629120 -0.468375
O22   O     O_3   0.186148 0.710096 0.682916 -0.633588
O23   O     O_3   0.608030 0.388080 0.462570 -0.484269
O24   O     O_3   0.102340 0.346310 0.592780 -0.484386
P1    P     P_3+3 0.039940 0.410170 0.336360 0.976757
P2    P     P_3+3 0.679300 0.712470 0.558210 0.976612
P3    P     P_3+3 0.132635 0.771789 0.409843 0.948044
P4    P     P_3+3 0.149780 0.589910 0.663640 0.974235
P5    P     P_3+3 0.061668 0.227465 0.590801 0.952045
P6    P     P_3+3 0.632201 0.609438 0.282131 0.938781
P7    P     P_3+3 0.513582 0.273667 0.437709 0.944208
P8    P     P_3+3 0.560228 0.383945 0.716524 0.936247

loop_
_geom_bond_atom_site_label_1
_geom_bond_atom_site_label_2
_ccdc_geom_bond_type
C28   O22   S    
O14   P6    S    
Ba2   P4    S    
O21   P8    S    
C41   P3    S    
C17   C18   A    
C23   H11   S    
C16   H53   S    
Ba1   O16   S    
O10   P6    S    
C43   C44   A    
C25   C31   A    
O8    P8    D    
C8    H32   S    
C24   C25   A    
C15   C21   A    
C28   H54   S    
C32   C38   A    
C49   O12   S    
C33   C35   A    
C7    C14   A    
C22   C24   A    
C32   C33   A    
C50   H5    S    
C47   H45   S    
C36   C37   A    
O20   P4    S    
O13   P1    S    
C52   H57   S    
C7    P6    S    
O15   P2    D    
C39   H46   S    
Ba1   Ba2   S    
C33   P5    S    
C29   H42   S    
C2    C11   A    
C16   H51   S    
Ba1   P2    S    
O18   P3    S    
C46   H50   S    
C6    C7    A    
C39   C44   A    
C53   H25   S    
Ba1   O20   S    
C41   C46   A    
C17   H37   S    
C34   H15   S    
C45   C51   S    
C1    H4    S    
O16   P3    S    
C45   O3    S    
C12   H8    S    
C40   H23   S    
C19   C20   A    
C2    C54   A    
C40   H12   S    
C39   C41   A    
C1    H9    S    
C15   H36   S    
O3    P5    S    
C34   H14   S    
C52   H24   S    
Ba2   O6    S    
C4    C16   S    
C52   O9    S    
O17   P3    D    
O4    P1    S    
C49   C50   S    
Ba1   O10   S    
C3    C10   A    
C37   C38   A    
C3    C5    A    
Ba2   O4    S    
C23   C34   S    
C21   C26   A    
C47   O13   S    
C50   H7    S    
Ba2   O20   S    
C40   H34   S    
Ba1   O4    S    
O1    P1    D    
C35   C36   A    
C43   H48   S    
C9    P1    S    
C9    C14   A    
C29   C30   A    
C5    C11   A    
O23   P7    S    
C49   H2    S    
Ba1   O1    S    
O6    P7    D    
C53   H26   S    
C23   O7    S    
C10   C54   A    
C1    C12   S    
C24   C27   A    
C47   H56   S    
C3    H30   S    
O19   P4    D    
O7    P7    S    
C4    H39   S    
C6    C13   A    
C51   H21   S    
C20   C22   A    
C51   H20   S    
C49   H3    S    
Ba2   O23   S    
C42   C43   A    
C35   H47   S    
C5    P8    S    
C12   O14   S    
Ba2   O5    S    
C37   H49   S    
C12   H1    S    
C18   H38   S    
C52   C53   S    
C13   C22   S    
C4    H27   S    
C38   P7    S    
C11   H33   S    
Ba2   O21   S    
O5    P2    S    
O2    P5    D    
C23   H10   S    
C45   H18   S    
Ba1   O15   S    
O9    P8    S    
Ba1   O23   S    
O24   P5    S    
C2    P4    S    
C19   H40   S    
C16   H17   S    
Ba2   O19   S    
C30   H43   S    
C27   H41   S    
C28   H55   S    
C8    C13   A    
C6    H31   S    
C32   H52   S    
C30   C31   A    
C31   H44   S    
C1    H16   S    
Ba2   O24   S    
C27   C29   A    
C50   H6    S    
C48   H59   S    
C54   H29   S    
C15   C17   A    
C51   H22   S    
C48   H60   S    
C34   H13   S    
Ba1   O5    S    
C36   C44   S    
Ba1   P1    S    
C8    C9    A    
O11   P6    D    
C45   H19   S    
C4    O18   S    
C18   C19   A    
C10   C26   S    
C14   H35   S    
C42   P2    S    
C47   C48   S    
C25   C26   A    
C20   C21   A    
C28   C40   S    
O22   P4    S    
C48   H58   S    
C53   H28   S    
O12   P2    S    
C42   C46   A    
