data_mof_unit_58986.cif
_audit_creation_date              2012-12-11T14:10:44-0500
_audit_creation_method            fapswitch 2.2
_symmetry_space_group_name_H-M    P1
_symmetry_Int_Tables_number       1
_space_group_crystal_system       triclinic
_cell_length_a                    20.163634
_cell_length_b                    17.242905
_cell_length_c                    15.51044
_cell_angle_alpha                 89.985214
_cell_angle_beta                  51.707472
_cell_angle_gamma                 90.038071
_cell_volume                      4232.46861433

loop_
_atom_site_label
_atom_site_type_symbol
_atom_type_description
_atom_site_fract_x
_atom_site_fract_y
_atom_site_fract_z
_atom_type_partial_charge
C1    C     C_R   0.360671 0.190974 0.014261 0.332539
C2    C     C_R   0.624998 0.803405 0.004332 0.315471
C3    C     C_R   0.640341 0.190575 0.984530 0.334328
C4    C     C_R   0.376729 0.802614 0.993689 0.309138
C5    C     C_R   0.860681 0.690982 0.014242 0.332527
C6    C     C_R   0.125025 0.303414 0.004300 0.315540
C7    C     C_R   0.140345 0.690574 0.984527 0.334318
C8    C     C_R   0.876727 0.302614 0.993687 0.309198
C9    C     C_3   0.333599 0.278315 0.536705 -0.162470
C10   C     C_3   0.757089 0.775734 0.443610 -0.157003
C11   C     C_3   0.666196 0.277600 0.462517 -0.162575
C12   C     C_3   0.241837 0.777593 0.556796 -0.158593
C13   C     C_3   0.833541 0.778231 0.536783 -0.162496
C14   C     C_3   0.257051 0.275653 0.443666 -0.156953
C15   C     C_3   0.166226 0.777559 0.462479 -0.162588
C16   C     C_3   0.741858 0.277555 0.556765 -0.158578
C17   C     C_2   0.239855 0.719290 0.022951 -0.212587
C18   C     C_2   0.793030 0.262978 0.934483 -0.175057
C19   C     C_2   0.763641 0.721319 0.973011 -0.185466
C20   C     C_2   0.209231 0.263615 0.062293 -0.174512
C21   C     C_2   0.739849 0.219295 0.022955 -0.212597
C22   C     C_2   0.293036 0.762974 0.934480 -0.175061
C23   C     C_2   0.263626 0.221298 0.973033 -0.185299
C24   C     C_2   0.709221 0.763601 0.062300 -0.174394
C25   C     C_R   0.346338 0.832273 0.222128 -0.149432
C26   C     C_R   0.609286 0.196786 0.784717 -0.134185
C27   C     C_R   0.652629 0.831059 0.777597 -0.158421
C28   C     C_R   0.390715 0.196707 0.215212 -0.135100
C29   C     C_R   0.846336 0.332275 0.222130 -0.149413
C30   C     C_R   0.109289 0.696786 0.784715 -0.134181
C31   C     C_R   0.152622 0.331051 0.777591 -0.158346
C32   C     C_R   0.890703 0.696704 0.215218 -0.135087
C33   C     C_R   0.362296 0.891651 0.902419 -0.219368
C34   C     C_R   0.652194 0.100450 0.077885 -0.217898
C35   C     C_R   0.639010 0.892078 0.095995 -0.220233
C36   C     C_R   0.348881 0.101153 0.920551 -0.214440
C37   C     C_R   0.862293 0.391653 0.902420 -0.219377
C38   C     C_R   0.152196 0.600448 0.077882 -0.217903
C39   C     C_R   0.139025 0.392087 0.095977 -0.220239
C40   C     C_R   0.848899 0.601167 0.920523 -0.214448
C41   C     C_R   0.397249 0.104643 0.310731 -0.137380
C42   C     C_R   0.642902 0.921329 0.682234 -0.119889
C43   C     C_R   0.602895 0.104697 0.689158 -0.137928
C44   C     C_R   0.356676 0.921767 0.317564 -0.121396
C45   C     C_R   0.897236 0.604640 0.310738 -0.137402
C46   C     C_R   0.142895 0.421325 0.682231 -0.119864
C47   C     C_R   0.102899 0.604696 0.689156 -0.137934
C48   C     C_R   0.856679 0.421766 0.317565 -0.121372
C49   C     C_R   0.319429 0.171484 0.972640 0.101943
C50   C     C_R   0.659122 0.817607 0.056319 0.106908
C51   C     C_R   0.682329 0.170553 0.025084 0.110921
C52   C     C_R   0.343728 0.816711 0.940131 0.116738
C53   C     C_R   0.819451 0.671503 0.972602 0.101992
C54   C     C_R   0.159154 0.317624 0.056280 0.106934
C55   C     C_R   0.182334 0.670550 0.025079 0.110919
C56   C     C_R   0.843723 0.316713 0.940133 0.116749
C57   C     C_R   0.305374 0.865336 0.324539 0.021282
C58   C     C_R   0.625759 0.179633 0.686799 0.028945
C59   C     C_R   0.693527 0.864186 0.675212 0.024164
C60   C     C_R   0.374413 0.179499 0.312988 0.029240
C61   C     C_R   0.805375 0.365336 0.324542 0.021273
C62   C     C_R   0.125766 0.679632 0.686795 0.028948
C63   C     C_R   0.193515 0.364175 0.675206 0.024119
C64   C     C_R   0.874389 0.679493 0.313001 0.029244
C65   C     C_3   0.297541 0.205030 0.521610 -0.165397
C66   C     C_3   0.793345 0.848859 0.457971 -0.164502
C67   C     C_3   0.703157 0.205304 0.478013 -0.164513
C68   C     C_3   0.204713 0.849784 0.542043 -0.163938
C69   C     C_3   0.797436 0.705005 0.521642 -0.165368
C70   C     C_3   0.293261 0.348835 0.457979 -0.164502
C71   C     C_3   0.203206 0.705291 0.478000 -0.164503
C72   C     C_3   0.704753 0.349774 0.542040 -0.163939
C73   C     C_3   0.717075 0.749224 0.560878 -0.132928
C74   C     C_3   0.374686 0.304172 0.417090 -0.143117
C75   C     C_3   0.282718 0.750955 0.439352 -0.131260
C76   C     C_3   0.624188 0.303596 0.582332 -0.143173
C77   C     C_3   0.217119 0.249164 0.560915 -0.132970
C78   C     C_3   0.874710 0.804110 0.417150 -0.143090
C79   C     C_3   0.782698 0.250929 0.439329 -0.131271
C80   C     C_3   0.124177 0.803566 0.582302 -0.143161
C81   C     C_3   0.753493 0.821908 0.574963 0.186385
C82   C     C_3   0.337147 0.231812 0.404716 0.185953
C83   C     C_3   0.245447 0.822716 0.424848 0.186697
C84   C     C_3   0.662628 0.232213 0.595115 0.185412
C85   C     C_3   0.253490 0.321906 0.574953 0.186397
C86   C     C_3   0.837125 0.731808 0.404729 0.185950
C87   C     C_3   0.745446 0.322717 0.424852 0.186699
C88   C     C_3   0.162636 0.732212 0.595112 0.185413
H1    H     H_    0.352990 0.919344 0.848057 0.116100
H2    H     H_    0.665394 0.071153 0.127435 0.118095
H3    H     H_    0.648310 0.919612 0.150442 0.116792
H4    H     H_    0.336251 0.072292 0.870156 0.117870
H5    H     H_    0.852987 0.419347 0.848060 0.116104
H6    H     H_    0.165396 0.571151 0.127432 0.118092
H7    H     H_    0.148317 0.419620 0.150431 0.116791
H8    H     H_    0.836273 0.572308 0.870122 0.117862
H9    H     H_    0.402498 0.076829 0.368751 0.086238
H10   H     H_    0.653592 0.954672 0.615718 0.091353
H11   H     H_    0.597629 0.076897 0.631156 0.086388
H12   H     H_    0.346034 0.954950 0.384129 0.092271
H13   H     H_    0.902484 0.576828 0.368760 0.086248
H14   H     H_    0.153583 0.454670 0.615718 0.091337
H15   H     H_    0.097634 0.576897 0.631153 0.086391
H16   H     H_    0.846039 0.454948 0.384129 0.092257
H17   H     H_    0.651422 0.727353 0.621300 0.115520
H18   H     H_    0.440595 0.324763 0.355126 0.113001
H19   H     H_    0.348727 0.729961 0.379292 0.115668
H20   H     H_    0.557914 0.323270 0.643938 0.112692
H21   H     H_    0.151494 0.227241 0.621375 0.115524
H22   H     H_    0.940647 0.824650 0.355226 0.112994
H23   H     H_    0.848694 0.229911 0.379248 0.115684
H24   H     H_    0.057891 0.823218 0.643885 0.112689
H25   H     H_    0.299324 0.145307 0.546831 0.104023
H26   H     H_    0.791147 0.908803 0.433733 0.107091
H27   H     H_    0.702525 0.145310 0.452595 0.104302
H28   H     H_    0.205848 0.909991 0.566423 0.107552
H29   H     H_    0.799139 0.645261 0.546878 0.104030
H30   H     H_    0.290989 0.408758 0.433751 0.107071
H31   H     H_    0.202611 0.645288 0.452577 0.104302
H32   H     H_    0.705922 0.409972 0.566416 0.107541
H33   H     H_    0.363556 0.281116 0.577207 0.109278
H34   H     H_    0.726320 0.773501 0.404090 0.110559
H35   H     H_    0.636513 0.279296 0.421619 0.109630
H36   H     H_    0.272314 0.776417 0.596727 0.110473
H37   H     H_    0.863459 0.780962 0.577339 0.109270
H38   H     H_    0.226243 0.273350 0.404201 0.110572
H39   H     H_    0.136565 0.779223 0.421551 0.109624
H40   H     H_    0.772358 0.276347 0.596666 0.110481
N1    N     N_R   0.408680 0.130810 0.995780 -0.059652
N2    N     N_R   0.591320 0.869190 0.004220 -0.056667
N3    N     N_R   0.591320 0.130810 0.004220 -0.060149
N4    N     N_R   0.408680 0.869190 0.995780 -0.056297
N5    N     N_R   0.908680 0.630810 0.995780 -0.059657
N6    N     N_R   0.091320 0.369190 0.004220 -0.056673
N7    N     N_R   0.091320 0.630810 0.004220 -0.060151
N8    N     N_R   0.908680 0.369190 0.995780 -0.056308
N9    N     N_R   0.421410 0.867210 0.153620 -0.034826
N10   N     N_R   0.578590 0.132790 0.846380 -0.036994
N11   N     N_R   0.578590 0.867210 0.846380 -0.035757
N12   N     N_R   0.421410 0.132790 0.153620 -0.036942
N13   N     N_R   0.921410 0.367210 0.153620 -0.034831
N14   N     N_R   0.078590 0.632790 0.846380 -0.036996
N15   N     N_R   0.078590 0.367210 0.846380 -0.035745
N16   N     N_R   0.921410 0.632790 0.153620 -0.036942
N17   N     N_R   0.403840 0.921910 0.935760 -0.051930
N18   N     N_R   0.596160 0.078090 0.064240 -0.052686
N19   N     N_R   0.596160 0.921910 0.064240 -0.051969
N20   N     N_R   0.403840 0.078090 0.935760 -0.052917
N21   N     N_R   0.903840 0.421910 0.935760 -0.051934
N22   N     N_R   0.096160 0.578090 0.064240 -0.052686
N23   N     N_R   0.096160 0.421910 0.064240 -0.051974
N24   N     N_R   0.903840 0.578090 0.935760 -0.052917
N25   N     N_R   0.426250 0.076100 0.213650 -0.036274
N26   N     N_R   0.573750 0.923900 0.786350 -0.038338
N27   N     N_R   0.573750 0.076100 0.786350 -0.036293
N28   N     N_R   0.426250 0.923900 0.213650 -0.039049
N29   N     N_R   0.926250 0.576100 0.213650 -0.036272
N30   N     N_R   0.073750 0.423900 0.786350 -0.038342
N31   N     N_R   0.073750 0.576100 0.786350 -0.036294
N32   N     N_R   0.926250 0.423900 0.213650 -0.039048
Ni1   Ni    Ni4+2 0.500000 0.131570 0.000000 0.204255
Ni2   Ni    Ni4+2 0.500000 0.868430 0.000000 0.203447
Ni3   Ni    Ni4+2 0.000000 0.631570 0.000000 0.204253
Ni4   Ni    Ni4+2 0.000000 0.368430 0.000000 0.203467
Ni5   Ni    Ni4+2 0.488900 0.000000 0.862310 0.202556
Ni6   Ni    Ni4+2 0.511100 0.000000 0.137690 0.202726
Ni7   Ni    Ni4+2 0.988900 0.500000 0.862310 0.202555
Ni8   Ni    Ni4+2 0.011100 0.500000 0.137690 0.202726
C89   C     C_3   0.378095 0.272346 0.029428 -1.076875
H41   H     H_    0.380285 0.312258 0.971504 0.263771
H42   H     H_    0.327893 0.292211 0.114506 0.241546
H43   H     H_    0.440477 0.275511 0.010835 0.246376
C90   C     C_3   0.597998 0.725112 0.993484 -1.072215
H44   H     H_    0.652502 0.688419 0.931485 0.244100
H45   H     H_    0.559956 0.694908 0.074096 0.263143
H46   H     H_    0.559057 0.732046 0.966649 0.260796
C91   C     C_3   0.623499 0.272124 0.969228 -1.076995
H47   H     H_    0.622787 0.311995 0.026011 0.264672
H48   H     H_    0.673119 0.291601 0.883692 0.240831
H49   H     H_    0.560641 0.275873 0.989282 0.246294
C92   C     C_3   0.412649 0.725342 0.991303 -1.072411
H50   H     H_    0.371736 0.676058 0.005655 0.259325
H51   H     H_    0.474622 0.717258 0.909095 0.256447
H52   H     H_    0.421862 0.722198 0.054300 0.250397
C93   C     C_3   0.878098 0.772351 0.029426 -1.076828
H53   H     H_    0.880294 0.812269 0.971501 0.263765
H54   H     H_    0.827887 0.792210 0.114505 0.241544
H55   H     H_    0.940477 0.775516 0.010845 0.246367
C94   C     C_3   0.098053 0.225113 0.993432 -1.072534
H56   H     H_    0.152554 0.188517 0.931227 0.244043
H57   H     H_    0.060219 0.194811 0.073948 0.263243
H58   H     H_    0.058935 0.232043 0.966878 0.260899
C95   C     C_3   0.123506 0.772124 0.969224 -1.076970
H59   H     H_    0.122793 0.811994 0.026009 0.264672
H60   H     H_    0.173128 0.791600 0.883688 0.240826
H61   H     H_    0.060648 0.775874 0.989277 0.246291
C96   C     C_3   0.912630 0.225336 0.991320 -1.072600
H62   H     H_    0.871724 0.176063 0.005650 0.259362
H63   H     H_    0.974611 0.217244 0.909136 0.256492
H64   H     H_    0.921808 0.222182 0.054341 0.250372
H65   H     H_    0.323041 0.784443 0.203070 0.116458
H66   H     H_    0.608989 0.254149 0.812089 0.118127
H67   H     H_    0.674364 0.781736 0.796339 0.126237
H68   H     H_    0.390668 0.254038 0.188020 0.118193
H69   H     H_    0.823032 0.284451 0.203074 0.116455
H70   H     H_    0.108992 0.754148 0.812087 0.118125
H71   H     H_    0.174352 0.281723 0.796327 0.126251
H72   H     H_    0.890656 0.754036 0.188029 0.118187
H73   H     H_    0.237003 0.720553 0.095285 0.138421
H74   H     H_    0.794867 0.262759 0.863042 0.140441
H75   H     H_    0.770272 0.725841 0.898198 0.130846
H76   H     H_    0.205194 0.261317 0.135400 0.137484
H77   H     H_    0.736994 0.220562 0.095291 0.138436
H78   H     H_    0.294874 0.762755 0.863038 0.140438
H79   H     H_    0.270252 0.225793 0.898221 0.130876
H80   H     H_    0.705173 0.761275 0.135413 0.137462

loop_
_geom_bond_atom_site_label_1
_geom_bond_atom_site_label_2
_ccdc_geom_bond_type
N10   N27   A    
C68   C80   S    
C78   C86   S    
C75   H19   S    
C39   N23   A    
N25   Ni6   S    
C8    N8    A    
C18   C21   D    
C44   H12   S    
C89   H41   S    
C28   N12   A    
C5    C93   S    
N14   N31   A    
C72   C76   S    
C75   C83   S    
C16   C72   S    
C76   C84   S    
C47   C62   A    
C79   C87   S    
N8    N21   A    
C65   C82   S    
C4    N4    A    
C47   N31   A    
C92   H50   S    
C33   C52   A    
C5    N5    A    
C12   C68   S    
C34   C51   A    
C10   C66   S    
C4    C52   A    
C27   H67   S    
N4    N17   A    
C5    C53   A    
C18   H74   S    
C40   H8    S    
C1    N1    A    
C11   C76   S    
C42   H10   S    
C2    C90   S    
N9    Ni2   S    
C10   C73   S    
C93   H54   S    
C39   C54   A    
N3    Ni1   S    
N23   Ni8   S    
C46   N30   A    
C13   C81   S    
C16   C84   S    
C29   H69   S    
C36   H4    S    
C40   N24   A    
N3    N18   A    
C94   H57   S    
C14   C77   S    
C73   C81   S    
C96   H63   S    
C67   H27   S    
N1    N20   A    
C69   H29   S    
C61   C87   S    
C43   C58   A    
C9    C85   S    
C37   C56   A    
C60   C82   S    
C36   N20   A    
C38   C55   A    
C94   H58   S    
C11   C87   S    
C95   H60   S    
N21   Ni7   S    
C70   C74   S    
C9    H33   S    
C57   C83   S    
N26   Ni5   S    
C69   C73   S    
C7    C55   A    
C4    C92   S    
C7    C95   S    
C2    C50   A    
C17   C55   S    
C18   C56   S    
N12   N25   A    
C13   H37   S    
C19   C53   S    
C90   H45   S    
N18   Ni6   S    
N22   Ni8   S    
C67   C84   S    
C76   H20   S    
C15   H39   S    
C63   C85   S    
C8    C56   A    
N20   Ni5   S    
C14   C70   S    
C48   H16   S    
C80   H24   S    
C8    C96   S    
C92   H52   S    
N5    N24   A    
C25   C57   A    
C6    C54   A    
C43   N27   A    
N5    Ni3   S    
N29   Ni8   S    
C64   C86   S    
C11   C67   S    
N30   Ni7   S    
C41   N25   A    
C92   H51   S    
C24   C50   S    
C66   C78   S    
C29   C61   A    
C19   H75   S    
C47   H15   S    
C12   C88   S    
C37   H5    S    
C28   H68   S    
C31   C63   A    
C65   C77   S    
C32   C64   A    
C20   C54   S    
N14   Ni3   S    
C3    C51   A    
C93   H55   S    
C15   C83   S    
N11   N26   A    
C26   N10   A    
N12   Ni1   S    
C90   H44   S    
C62   C88   S    
C96   H62   S    
C27   N11   A    
C3    N3    A    
N9    N28   A    
C44   N28   A    
C96   H64   S    
C25   N9    A    
C34   H2    S    
C31   H71   S    
N19   Ni6   S    
C33   H1    S    
C74   H18   S    
C26   C58   A    
N32   Ni8   S    
N13   N32   A    
C73   H17   S    
C15   C80   S    
C12   H36   S    
C20   C23   D    
N28   Ni6   S    
C44   C57   A    
C23   H79   S    
C95   H61   S    
C29   N13   A    
C38   H6    S    
C35   C50   A    
N1    Ni1   S    
C78   H22   S    
C35   N19   A    
C77   H21   S    
C58   C84   S    
C16   H40   S    
C39   H7    S    
C28   C60   A    
C45   H13   S    
C68   H28   S    
N17   Ni5   S    
C91   H47   S    
C72   H32   S    
C22   H78   S    
N16   Ni3   S    
C89   H43   S    
C21   H77   S    
C45   N29   A    
C32   H72   S    
C9    C74   S    
C14   C82   S    
N15   Ni4   S    
C21   C51   S    
C72   C87   S    
N15   N30   A    
C22   C52   S    
N8    Ni4   S    
C90   H46   S    
C13   C78   S    
C10   C86   S    
C66   H26   S    
C42   N26   A    
N2    N19   A    
C68   C83   S    
N7    Ni3   S    
C65   H25   S    
N11   Ni2   S    
C11   H35   S    
C59   C81   S    
C41   C60   A    
C37   N21   A    
C91   H49   S    
C10   H34   S    
C30   N14   A    
C42   C59   A    
C40   C53   A    
C79   H23   S    
N7    N22   A    
C15   C71   S    
C45   C64   A    
C17   H73   S    
C17   C22   D    
C14   H38   S    
C71   H31   S    
C46   C63   A    
C34   N18   A    
C16   C79   S    
C48   N32   A    
C30   C62   A    
C19   C24   D    
C3    C91   S    
C6    N6    A    
C27   C59   A    
C43   H11   S    
C66   C81   S    
C71   C75   S    
C24   H80   S    
N4    Ni2   S    
N2    Ni2   S    
C93   H53   S    
C25   H65   S    
C13   C69   S    
C91   H48   S    
N27   Ni5   S    
N6    N23   A    
C6    C94   S    
C1    C89   S    
C2    N2    A    
N31   Ni7   S    
N10   Ni1   S    
C41   H9    S    
C20   H76   S    
C31   N15   A    
C94   H56   S    
C9    C65   S    
C32   N16   A    
C23   C49   S    
C7    N7    A    
C69   C86   S    
C77   C85   S    
C71   C88   S    
N6    Ni4   S    
C70   H30   S    
N24   Ni7   S    
C26   H66   S    
N13   Ni4   S    
C80   C88   S    
C95   H59   S    
C12   C75   S    
C48   C61   A    
N16   N29   A    
C70   C85   S    
C1    C49   A    
C38   N22   A    
C67   C79   S    
C74   C82   S    
C36   C49   A    
C33   N17   A    
C35   H3    S    
C46   H14   S    
C89   H42   S    
C30   H70   S    
