data_mof_unit_47651.cif
_audit_creation_date              2012-12-10T17:17:32-0500
_audit_creation_method            fapswitch 2.2
_symmetry_space_group_name_H-M    P1
_symmetry_Int_Tables_number       1
_space_group_crystal_system       triclinic
_cell_length_a                    10.230761
_cell_length_b                    10.609016
_cell_length_c                    12.4097
_cell_angle_alpha                 91.20525
_cell_angle_beta                  110.089703
_cell_angle_gamma                 95.712917
_cell_volume                      1256.49245647

loop_
_atom_site_label
_atom_site_type_symbol
_atom_type_description
_atom_site_fract_x
_atom_site_fract_y
_atom_site_fract_z
_atom_type_partial_charge
C1    C     C_R   0.047514 0.732815 0.486653 0.947526
C2    C     C_R   0.216231 0.567715 0.833306 -0.156600
C3    C     C_2   0.063575 0.865195 0.462338 -0.506024
C4    C     C_R   0.137788 0.527513 0.712238 0.865630
C5    C     C_2   0.949124 0.925332 0.416790 0.636145
C6    C     C_2   0.900445 0.129701 0.478396 0.360028
C7    C     C_2   0.967466 0.062611 0.424729 -0.397900
C8    C     C_2   0.433183 0.513083 0.507819 -0.130789
C9    C     C_2   0.566857 0.487507 0.489832 -0.145575
C10   C     C_R   0.944742 0.265795 0.500862 0.807172
C11   C     C_R   0.863477 0.483179 0.286266 0.879964
C12   C     C_R   0.430798 0.551378 0.990092 0.082975
C13   C     C_R   0.772224 0.487265 0.965879 0.533862
C14   C     C_R   0.785344 0.475447 0.163338 -0.143997
C15   C     C_R   0.145250 0.579957 0.910552 -0.158327
C16   C     C_R   0.216213 0.577453 0.027986 -0.146630
C17   C     C_R   0.356512 0.555969 0.067709 -0.196440
C18   C     C_3   0.767610 0.840030 0.261174 -0.308108
C19   C     C_3   0.667486 0.087504 0.447818 -0.238769
C20   C     C_3   0.778266 0.356832 0.821350 -0.301336
C21   C     C_3   0.407917 0.737418 0.736612 -0.417731
C22   C     C_3   0.411826 0.856164 0.809915 -0.873740
C23   C     C_R   0.362913 0.580202 0.875877 0.082440
C24   C     C_R   0.569801 0.521642 0.020527 0.003651
C25   C     C_R   0.638611 0.528525 0.938792 0.017001
C26   C     C_R   0.578357 0.587111 0.836460 -0.261020
C27   C     C_R   0.444934 0.625077 0.810387 0.159106
C28   C     C_R   0.642639 0.486006 0.129751 -0.265583
C29   C     C_R   0.849148 0.468533 0.080460 -0.299866
H1    H     H_    0.957624 0.450966 0.104379 0.170119
H2    H     H_    0.404179 0.548300 0.159042 0.132101
H3    H     H_    0.161106 0.586224 0.087733 0.148559
H4    H     H_    0.048675 0.108155 0.395942 0.121983
H5    H     H_    0.760151 0.931034 0.217539 0.141820
H6    H     H_    0.661112 0.787229 0.232460 0.197655
H7    H     H_    0.836283 0.780607 0.234434 0.150844
H8    H     H_    0.651293 0.063179 0.355997 0.159409
H9    H     H_    0.643862 0.185941 0.458291 0.144483
H10   H     H_    0.590889 0.023038 0.471668 0.184819
H11   H     H_    0.663772 0.352695 0.773252 0.166022
H12   H     H_    0.168348 0.915638 0.486987 0.117258
H13   H     H_    0.800723 0.276753 0.879155 0.161558
H14   H     H_    0.830351 0.344884 0.757354 0.225191
H15   H     H_    0.331426 0.842575 0.851448 0.263890
H16   H     H_    0.516968 0.878186 0.877290 0.263662
H17   H     H_    0.389620 0.938013 0.754637 0.249883
H18   H     H_    0.483638 0.759562 0.691578 0.195579
H19   H     H_    0.302908 0.718590 0.671069 0.224368
H20   H     H_    0.563354 0.411782 0.428430 0.143522
H21   H     H_    0.436804 0.589970 0.567068 0.156911
H22   H     H_    0.685165 0.625425 0.601716 0.172632
H23   H     H_    0.314367 0.373669 0.398886 0.153931
H24   H     H_    0.639530 0.613008 0.782704 0.170072
H25   H     H_    0.592183 0.473596 0.192506 0.166752
H26   H     H_    0.035553 0.590893 0.879549 0.227814
N1    N     N_2   0.313640 0.446500 0.454900 -0.189392
N2    N     N_2   0.686360 0.553430 0.545150 -0.171243
O1    O     O_R   0.936910 0.692950 0.509080 -0.530030
O2    O     O_3   0.803497 0.070190 0.521538 -0.570958
O3    O     O_3   0.832290 0.474755 0.882984 -0.654118
O4    O     O_R   0.138320 0.658600 0.480130 -0.632477
O5    O     O_R   0.002900 0.525670 0.675280 -0.595549
O6    O     O_R   0.204310 0.491320 0.646330 -0.600159
O7    O     O_R   0.861680 0.341400 0.519870 -0.605666
O8    O     O_R   0.063090 0.307050 0.490920 -0.618886
O9    O     O_R   0.795690 0.508680 0.353670 -0.606372
O10   O     O_R   0.997100 0.474330 0.324720 -0.613994
O11   O     O_3   0.814892 0.861635 0.381539 -0.539385
Zn1   Zn    Zn3+2 0.865520 0.522940 0.519330 0.970146
Zn2   Zn    Zn3+2 0.134480 0.477060 0.480670 0.920176

loop_
_geom_bond_atom_site_label_1
_geom_bond_atom_site_label_2
_ccdc_geom_bond_type
C12   C17   A    
C6    C10   S    
C2    C4    S    
O6    Zn2   S    
O1    Zn1   S    
C6    C7    D    
H22   N2    S    
C19   H9    S    
C23   C27   A    
C16   H3    S    
C18   H5    S    
C18   H6    S    
C12   C24   A    
C20   H13   S    
C12   C23   A    
C11   O9    A    
C3    C5    D    
O10   Zn2   S    
C19   O2    S    
C10   O7    A    
C8    N1    D    
C21   C27   S    
C1    O1    A    
O4    Zn2   S    
O7    Zn1   S    
C2    C15   A    
C7    H4    S    
C4    O6    A    
C13   C25   A    
C26   C27   A    
C29   H1    S    
C19   H10   S    
C5    O11   S    
C20   H11   S    
C16   C17   A    
C13   C29   A    
C22   H17   S    
C11   O10   A    
C8    H21   S    
N1    Zn2   S    
N2    Zn1   S    
C17   H2    S    
C11   C14   S    
C21   H18   S    
C20   H14   S    
O9    Zn1   S    
C20   O3    S    
C15   C16   A    
C14   C29   A    
C18   O11   S    
O8    Zn2   S    
C21   H19   S    
C4    O5    A    
C26   H24   S    
C9    H20   S    
C24   C25   A    
C9    N2    D    
C5    C7    S    
C22   H16   S    
C10   O8    A    
C2    C23   A    
C13   O3    S    
C28   H25   S    
C3    H12   S    
C19   H8    S    
C14   C28   A    
C25   C26   A    
C21   C22   S    
H23   N1    S    
C18   H7    S    
C6    O2    S    
C22   H15   S    
C24   C28   A    
O5    Zn1   S    
C1    O4    A    
C8    C9    S    
C1    C3    S    
C15   H26   S    
