data_mof_unit_51112.cif
_audit_creation_date              2012-12-10T17:31:27-0500
_audit_creation_method            fapswitch 2.2
_symmetry_space_group_name_H-M    P1
_symmetry_Int_Tables_number       1
_space_group_crystal_system       triclinic
_cell_length_a                    18.93644
_cell_length_b                    18.491861
_cell_length_c                    12.370465
_cell_angle_alpha                 89.99971
_cell_angle_beta                  129.19058
_cell_angle_gamma                 89.999473
_cell_volume                      3357.32821088

loop_
_atom_site_label
_atom_site_type_symbol
_atom_type_description
_atom_site_fract_x
_atom_site_fract_y
_atom_site_fract_z
_atom_type_partial_charge
C1    C     C_R   0.613043 0.898694 0.653599 0.773613
C2    C     C_R   0.612990 0.101349 0.653529 0.773658
C3    C     C_R   0.113039 0.398691 0.653593 0.773588
C4    C     C_R   0.113025 0.601319 0.653577 0.773604
C5    C     C_R   0.241070 0.779792 0.030516 0.080490
C6    C     C_R   0.241102 0.220228 0.030545 0.080474
C7    C     C_R   0.741001 0.279831 0.030453 0.080463
C8    C     C_R   0.741090 0.720217 0.030531 0.080485
C9    C     C_R   0.657367 0.279727 0.007024 0.089961
C10   C     C_R   0.657277 0.719996 0.006565 0.089945
C11   C     C_R   0.157316 0.779906 0.006730 0.089952
C12   C     C_R   0.157317 0.220063 0.006667 0.089909
C13   C     C_R   0.580447 0.247546 0.887988 -0.208824
C14   C     C_R   0.580368 0.752087 0.887360 -0.208749
C15   C     C_R   0.080403 0.747790 0.887579 -0.208783
C16   C     C_R   0.080406 0.252158 0.887480 -0.208680
C17   C     C_R   0.586391 0.211593 0.796049 -0.185627
C18   C     C_R   0.586451 0.788231 0.795730 -0.185622
C19   C     C_R   0.086437 0.711711 0.795844 -0.185645
C20   C     C_R   0.086462 0.288260 0.795789 -0.185608
C21   C     C_R   0.315692 0.815272 0.149552 -0.309347
C22   C     C_R   0.315721 0.184759 0.149610 -0.309292
C23   C     C_R   0.815626 0.315367 0.149383 -0.309363
C24   C     C_R   0.815715 0.684773 0.149634 -0.309282
C25   C     C_R   0.224561 0.849954 0.216665 0.389458
C26   C     C_R   0.224526 0.149987 0.216563 0.389368
C27   C     C_R   0.724740 0.349654 0.217133 0.389638
C28   C     C_R   0.724451 0.649871 0.216396 0.389173
C29   C     C_R   0.680094 0.158133 0.742097 -0.102306
C30   C     C_R   0.680302 0.842048 0.742390 -0.102178
C31   C     C_R   0.180236 0.658005 0.742302 -0.102192
C32   C     C_R   0.180285 0.342033 0.742361 -0.102170
C33   C     C_R   0.685292 0.000010 0.286606 -0.286668
C34   C     C_R   0.185292 0.500013 0.286606 -0.286679
C35   C     C_R   0.343372 0.999997 0.628218 0.161967
C36   C     C_R   0.843371 0.499976 0.628215 0.162176
C37   C     C_R   0.308723 0.999996 0.699514 -0.208453
C38   C     C_R   0.808722 0.499967 0.699511 -0.208365
C39   C     C_R   0.382732 0.098038 0.340927 0.838418
C40   C     C_R   0.382734 0.901960 0.340930 0.838421
C41   C     C_R   0.882721 0.598027 0.340912 0.838355
C42   C     C_R   0.882748 0.401940 0.340956 0.838403
C43   C     C_R   0.367593 0.999999 0.844817 -0.214936
C44   C     C_R   0.867591 0.499978 0.844814 -0.215006
C45   C     C_R   0.462639 0.000002 0.921382 -0.004857
C46   C     C_R   0.962638 0.499996 0.921381 -0.004872
C47   C     C_R   0.495029 0.000003 0.843023 0.271334
C48   C     C_R   0.995029 0.500004 0.843022 0.271353
C49   C     C_R   0.526557 0.000003 0.072145 -0.032550
C50   C     C_R   0.026557 0.500001 0.072144 -0.032539
C51   C     C_R   0.621029 0.000008 0.140459 0.168600
C52   C     C_R   0.121028 0.500009 0.140458 0.168609
C53   C     C_R   0.651171 0.000010 0.062888 -0.265428
C54   C     C_R   0.151170 0.500012 0.062888 -0.265447
C55   C     C_R   0.589845 0.000005 0.918085 -0.164653
C56   C     C_R   0.089845 0.500009 0.918085 -0.164640
C57   C     C_R   0.501568 1.000000 0.159429 0.021388
C58   C     C_R   0.001568 0.499996 0.159428 0.021346
C59   C     C_R   0.656397 0.000006 0.365763 0.077761
C60   C     C_R   0.156396 0.500008 0.365763 0.077795
C61   C     C_R   0.650666 0.313030 0.101589 -0.221085
C62   C     C_R   0.650383 0.686438 0.100736 -0.221094
C63   C     C_R   0.150490 0.813373 0.101040 -0.221113
C64   C     C_R   0.150457 0.186559 0.100914 -0.221073
C65   C     C_R   0.307468 0.853093 0.238996 -0.138352
C66   C     C_R   0.307465 0.146900 0.238985 -0.138316
C67   C     C_R   0.807514 0.353031 0.239083 -0.138387
C68   C     C_R   0.807434 0.646865 0.238938 -0.138270
C69   C     C_R   0.759739 0.160963 0.756667 -0.169467
C70   C     C_R   0.760127 0.839514 0.757440 -0.169689
C71   C     C_R   0.260005 0.660626 0.757205 -0.169661
C72   C     C_R   0.260089 0.339472 0.757357 -0.169613
C73   C     C_R   0.331599 0.705232 0.856467 -0.126760
C74   C     C_R   0.331712 0.294906 0.856687 -0.126839
C75   C     C_R   0.831236 0.205708 0.855697 -0.126594
C76   C     C_R   0.831759 0.794960 0.856798 -0.126828
C77   C     C_R   0.326535 0.745379 0.946402 -0.172138
C78   C     C_R   0.326636 0.254735 0.946589 -0.172179
C79   C     C_R   0.826227 0.245775 0.945765 -0.172187
C80   C     C_R   0.826667 0.754776 0.946672 -0.172141
C81   C     C_R   0.747082 0.243833 0.934929 0.097892
C82   C     C_R   0.747318 0.756399 0.935308 0.097871
C83   C     C_R   0.247249 0.743665 0.935198 0.097867
C84   C     C_R   0.247309 0.256385 0.935281 0.097914
C85   C     C_R   0.670583 0.204110 0.823633 0.074782
C86   C     C_R   0.670754 0.795966 0.823757 0.074772
C87   C     C_R   0.170703 0.704053 0.823726 0.074792
C88   C     C_R   0.170748 0.295964 0.823755 0.074746
Cu1   Cu    Cu3+1 0.526340 0.000000 0.421010 0.941566
Cu2   Cu    Cu3+1 0.026340 0.500000 0.421010 0.941547
Cu3   Cu    Cu3+1 0.473640 0.000000 0.578990 0.970640
Cu4   Cu    Cu3+1 0.973640 0.500000 0.578990 0.970682
H1    H     H_    0.723499 0.000012 0.114928 0.159616
H2    H     H_    0.223499 0.500017 0.114927 0.159611
H3    H     H_    0.757709 0.000014 0.339492 0.142820
H4    H     H_    0.257708 0.500019 0.339491 0.142813
H5    H     H_    0.431200 0.999996 0.116076 0.126905
H6    H     H_    0.931200 0.499991 0.116076 0.126890
H7    H     H_    0.297228 0.999993 0.516288 0.231557
H8    H     H_    0.797227 0.499950 0.516281 0.231463
H9    H     H_    0.336986 0.999998 0.894441 0.145137
H10   H     H_    0.836985 0.499968 0.894438 0.145130
H11   H     H_    0.235749 0.999993 0.641675 0.176673
H12   H     H_    0.735748 0.499946 0.641671 0.176663
H13   H     H_    0.620155 0.000002 0.869098 0.206065
H14   H     H_    0.120155 0.500005 0.869097 0.206046
H15   H     H_    0.515236 0.249984 0.865773 0.139841
H16   H     H_    0.515049 0.749416 0.864760 0.139827
H17   H     H_    0.015120 0.750387 0.865109 0.139843
H18   H     H_    0.015106 0.249525 0.864942 0.139776
H19   H     H_    0.586765 0.312011 0.083833 0.165545
H20   H     H_    0.586333 0.687175 0.082535 0.165541
H21   H     H_    0.086493 0.812538 0.082995 0.165516
H22   H     H_    0.086434 0.187353 0.082793 0.165658
H23   H     H_    0.381488 0.815256 0.174825 0.169684
H24   H     H_    0.381536 0.184806 0.174949 0.169677
H25   H     H_    0.881344 0.315492 0.174391 0.169785
H26   H     H_    0.881558 0.684876 0.175059 0.169638
H27   H     H_    0.767973 0.126846 0.694105 0.150889
H28   H     H_    0.768394 0.873737 0.695030 0.150750
H29   H     H_    0.268261 0.626436 0.694747 0.150778
H30   H     H_    0.268348 0.373684 0.694926 0.150768
H31   H     H_    0.385377 0.777883 0.021769 0.132322
H32   H     H_    0.385503 0.222267 0.022018 0.132294
H33   H     H_    0.884991 0.278405 0.020928 0.132263
H34   H     H_    0.885537 0.722314 0.022116 0.132336
H35   H     H_    0.392820 0.706829 0.867034 0.132286
H36   H     H_    0.392965 0.293361 0.867336 0.132361
H37   H     H_    0.892353 0.207478 0.865985 0.132286
H38   H     H_    0.893028 0.793434 0.867488 0.132317
H39   H     H_    0.523581 0.190704 0.702124 0.175775
H40   H     H_    0.523673 0.809068 0.701676 0.175572
H41   H     H_    0.023651 0.690860 0.701832 0.175609
H42   H     H_    0.023678 0.309095 0.701745 0.175662
H43   H     H_    0.705992 0.000007 0.478444 0.117092
H44   H     H_    0.205992 0.500011 0.478443 0.117064
N1    N     N_R   0.566260 0.000000 0.302220 -0.179529
N2    N     N_R   0.066260 0.500000 0.302220 -0.179518
N3    N     N_R   0.434410 0.000000 0.697680 -0.226651
N4    N     N_R   0.934410 0.500000 0.697680 -0.226636
O1    O     O_R   0.608610 0.924520 0.551740 -0.578911
O2    O     O_R   0.608610 0.075480 0.551740 -0.578955
O3    O     O_R   0.108610 0.424520 0.551740 -0.578921
O4    O     O_R   0.108610 0.575480 0.551740 -0.578939
O5    O     O_R   0.564110 0.924510 0.685150 -0.605251
O6    O     O_R   0.564110 0.075490 0.685150 -0.605386
O7    O     O_R   0.064110 0.424510 0.685150 -0.605269
O8    O     O_R   0.064110 0.575490 0.685150 -0.605324
O9    O     O_R   0.435880 0.075470 0.314850 -0.593670
O10   O     O_R   0.435880 0.924530 0.314850 -0.593677
O11   O     O_R   0.935880 0.575470 0.314850 -0.593628
O12   O     O_R   0.935880 0.424530 0.314850 -0.593724
O13   O     O_R   0.391380 0.075460 0.448260 -0.540194
O14   O     O_R   0.391380 0.924540 0.448260 -0.540111
O15   O     O_R   0.891380 0.575460 0.448260 -0.540254
O16   O     O_R   0.891380 0.424540 0.448260 -0.540001
Cl1   Cl    Cl    0.206643 0.893041 0.324055 -0.626340
Cl2   Cl    Cl    0.206563 0.106830 0.323846 -0.626323
Cl3   Cl    Cl    0.707002 0.392431 0.324974 -0.626477
Cl4   Cl    Cl    0.706427 0.606592 0.323509 -0.626684

loop_
_geom_bond_atom_site_label_1
_geom_bond_atom_site_label_2
_ccdc_geom_bond_type
C83   C87   A    
C3    O7    A    
C17   H39   S    
C14   C18   A    
C18   H40   S    
C58   H6    S    
C13   H15   S    
C16   H18   S    
C32   C72   A    
C15   C19   A    
C4    O4    A    
C18   C86   A    
C55   H13   S    
C2    C29   S    
C9    C61   A    
C1    C30   S    
C28   C68   A    
C34   H4    S    
C5    C11   A    
C19   C87   A    
C6    C12   A    
C12   C64   A    
Cu1   O1    S    
Cu4   O8    S    
C59   N1    A    
C27   Cl3   S    
Cu1   O2    S    
C6    C22   A    
C28   Cl4   S    
C49   C57   A    
C48   C56   A    
C25   C63   A    
C45   C47   A    
C23   C67   A    
C29   C69   A    
C9    C13   A    
C22   C66   A    
C38   H12   S    
C27   C61   A    
C30   C70   A    
C11   C15   A    
C3    O3    A    
C74   H36   S    
C12   C16   A    
C52   C54   A    
C49   C51   A    
C50   C52   A    
C69   C75   A    
C30   C86   A    
C78   H32   S    
C60   H44   S    
C29   C85   A    
Cu2   O3    S    
C21   H23   S    
C35   N3    A    
C58   N2    A    
C62   H20   S    
C22   H24   S    
C79   H33   S    
C33   C59   A    
Cu4   O7    S    
C34   C60   A    
C40   O14   A    
C10   C62   A    
C76   H38   S    
C35   H7    S    
C33   H3    S    
C21   C65   A    
Cu2   N2    S    
C44   C46   A    
C41   C68   S    
C46   C48   A    
C53   C55   A    
C54   C56   A    
Cu1   O9    S    
C31   C87   A    
C28   C62   A    
C48   N4    A    
C57   N1    A    
C53   H1    S    
C26   C66   A    
C76   C80   A    
C6    C84   A    
Cu3   O14   S    
C72   C74   A    
C10   C14   A    
C70   H28   S    
C71   C73   A    
C44   H10   S    
C82   C86   A    
C69   H27   S    
C51   C53   A    
C4    O8    A    
C50   C58   A    
C37   C43   A    
C42   O16   A    
C43   H9    S    
C38   C44   A    
C77   H31   S    
C43   C45   A    
Cu2   Cu4   S    
C45   C49   A    
C16   C20   A    
C57   H5    S    
C40   O10   A    
C36   H8    S    
C36   N4    A    
C56   H14   S    
Cu3   N3    S    
C19   H41   S    
Cu2   O12   S    
Cu1   O10   S    
C7    C81   A    
C39   O13   A    
Cu1   N1    S    
C40   C65   S    
C25   Cl1   S    
C42   C67   S    
C2    O2    A    
C39   C66   S    
C17   C85   A    
C33   C51   A    
C1    O5    A    
Cu4   O16   S    
Cu4   N4    S    
Cu3   O5    S    
C42   O12   A    
C35   C37   A    
C47   C55   A    
C7    C9    A    
C46   C50   A    
C73   C77   A    
C72   H30   S    
C34   C52   A    
C71   H29   S    
C84   C88   A    
Cu2   O11   S    
C23   H25   S    
C37   H11   S    
C5    C83   A    
Cu3   O13   S    
C41   O11   A    
C26   C64   A    
C2    O6    A    
C39   O9    A    
C79   C81   A    
C13   C17   A    
C36   C38   A    
C73   H35   S    
C70   C76   A    
C14   H16   S    
C15   H17   S    
C1    O1    A    
C80   H34   S    
C61   H19   S    
C7    C23   A    
C20   C88   A    
C59   H43   S    
C24   H26   S    
C8    C24   A    
C80   C82   A    
C26   Cl2   S    
Cu4   O15   S    
C3    C32   S    
C81   C85   A    
C54   H2    S    
C4    C31   S    
C27   C67   A    
C24   C68   A    
C63   H21   S    
C78   C84   A    
C8    C82   A    
C5    C21   A    
C64   H22   S    
C8    C10   A    
Cu1   Cu3   S    
C74   C78   A    
C47   N3    A    
C25   C65   A    
C77   C83   A    
C20   H42   S    
C11   C63   A    
C75   C79   A    
Cu3   O6    S    
Cu2   O4    S    
C75   H37   S    
C60   N2    A    
C31   C71   A    
C41   O15   A    
C32   C88   A    
