data_mof_unit_26741.cif
_audit_creation_date              2012-12-11T17:23:13-0500
_audit_creation_method            fapswitch 2.2
_symmetry_space_group_name_H-M    P1
_symmetry_Int_Tables_number       1
_space_group_crystal_system       triclinic
_cell_length_a                    22.38073
_cell_length_b                    7.096218
_cell_length_c                    19.406074
_cell_angle_alpha                 90.004432
_cell_angle_beta                  99.652843
_cell_angle_gamma                 90.007006
_cell_volume                      3038.40811375

loop_
_atom_site_label
_atom_site_type_symbol
_atom_type_description
_atom_site_fract_x
_atom_site_fract_y
_atom_site_fract_z
_atom_type_partial_charge
O1    O     O_R   0.443980 0.494320 0.557430 -0.528302
O2    O     O_R   0.556020 0.994320 0.442570 -0.528384
O3    O     O_R   0.441210 0.822520 0.414610 -0.533216
O4    O     O_R   0.558790 0.322520 0.585390 -0.533073
C1    C     C_R   0.426715 0.655640 0.388658 0.806085
C2    C     C_R   0.573285 0.155676 0.611347 0.806013
O5    O     O_R   0.436920 0.823940 0.555180 -0.539255
O6    O     O_R   0.563080 0.323940 0.444820 -0.539185
O7    O     O_R   0.551700 0.995760 0.584140 -0.537177
O8    O     O_R   0.448300 0.495760 0.415860 -0.537150
C3    C     C_R   0.421585 0.655398 0.574828 0.721860
C4    C     C_R   0.578414 0.155407 0.425169 0.721707
O9    O     O_3   0.537660 0.661290 0.509340 -0.378397
O10   O     O_3   0.462340 0.161290 0.490660 -0.378435
V1    V     V_3+5 0.493010 0.935560 0.498270 1.501595
V2    V     V_3+5 0.506990 0.435560 0.501730 1.501977
H1    H     H_    0.684768 0.837616 0.263711 0.147110
H2    H     H_    0.315228 0.337644 0.736304 0.147072
C5    C     C_R   0.756327 0.946717 0.213601 -0.182715
C6    C     C_R   0.243673 0.446747 0.786411 -0.182720
H3    H     H_    0.760159 0.817132 0.185167 0.139748
H4    H     H_    0.239845 0.317188 0.814858 0.139714
C7    C     C_R   0.794089 0.100402 0.205471 0.123309
C8    C     C_R   0.205915 0.600414 0.794537 0.123310
C9    C     C_R   0.788014 0.268493 0.243052 0.168811
C10   C     C_R   0.211979 0.768456 0.756931 0.168850
C11   C     C_R   0.744340 0.278833 0.287753 -0.128621
C12   C     C_R   0.255640 0.778770 0.712212 -0.128687
H5    H     H_    0.739475 0.407419 0.316460 0.122250
H6    H     H_    0.260500 0.907327 0.683488 0.122231
C13   C     C_R   0.706886 0.124404 0.295688 0.090393
C14   C     C_R   0.293099 0.624370 0.704294 0.090386
C15   C     C_R   0.713243 0.958404 0.258346 -0.121923
C16   C     C_R   0.286751 0.458414 0.741657 -0.121902
C17   C     C_1   0.838747 0.083481 0.158795 -0.024774
C18   C     C_1   0.161259 0.583510 0.841216 -0.024803
C19   C     C_1   0.661848 0.136575 0.341815 -0.008939
C20   C     C_1   0.338142 0.636538 0.658169 -0.008986
C21   C     C_1   0.624036 0.146018 0.380038 -0.133368
C22   C     C_1   0.375958 0.645988 0.619953 -0.133372
C23   C     C_1   0.876319 0.071971 0.120350 -0.171257
C24   C     C_1   0.123687 0.571998 0.879659 -0.171284
C25   C     C_R   0.634553 0.217595 0.802881 0.571494
C26   C     C_R   0.365585 0.715379 0.196992 0.571535
H7    H     H_    0.718199 0.214129 0.917983 0.188410
H8    H     H_    0.281988 0.710785 0.081849 0.188436
C27   C     C_R   0.615435 0.152073 0.678691 -0.266043
C28   C     C_R   0.384570 0.651843 0.321316 -0.266085
C29   C     C_R   0.910104 0.040451 0.760658 -0.280849
C30   C     C_R   0.089823 0.541997 0.239371 -0.280915
C31   C     C_R   0.875834 0.068693 0.694904 0.681677
C32   C     C_R   0.124087 0.570977 0.305085 0.681702
C33   C     C_R   0.814712 0.123559 0.687247 0.017296
C34   C     C_R   0.185255 0.625344 0.312673 0.017223
C35   C     C_R   0.784887 0.124372 0.747092 0.045983
C36   C     C_R   0.215118 0.624805 0.252858 0.045966
C37   C     C_R   0.822413 0.112968 0.814714 0.032640
C38   C     C_R   0.177619 0.612596 0.185242 0.032611
C39   C     C_R   0.720201 0.142182 0.743427 0.059718
C40   C     C_R   0.279822 0.642034 0.256534 0.059775
C41   C     C_R   0.696851 0.183033 0.805601 -0.098957
C42   C     C_R   0.303248 0.681502 0.194299 -0.099054
C43   C     C_R   0.735567 0.185922 0.870141 -0.090512
C44   C     C_R   0.264566 0.683647 0.129730 -0.090541
C45   C     C_R   0.796746 0.145170 0.874902 -0.166809
C46   C     C_R   0.203349 0.643475 0.125013 -0.166720
C47   C     C_R   0.677355 0.112318 0.681354 -0.337886
C48   C     C_R   0.322606 0.612820 0.318697 -0.337979
C49   C     C_R   0.594655 0.207669 0.739586 0.559249
C50   C     C_R   0.405445 0.706081 0.260328 0.559146
C51   C     C_R   0.885259 0.071941 0.820840 -0.179307
C52   C     C_R   0.114734 0.572168 0.179154 -0.179260
H9    H     H_    0.690760 0.056590 0.634641 0.163675
H10   H     H_    0.309120 0.558040 0.365505 0.163570
H11   H     H_    0.957666 0.004813 0.764705 0.153018
H12   H     H_    0.042220 0.506888 0.235359 0.152993
H13   H     H_    0.824100 0.141807 0.926503 0.103073
H14   H     H_    0.176016 0.639481 0.073405 0.102878
O11   O     O_R   0.051730 0.724670 0.084120 -0.533322
O12   O     O_R   0.948270 0.224670 0.915880 -0.533343
O13   O     O_R   0.063080 0.393540 0.944820 -0.535857
O14   O     O_R   0.936920 0.893540 0.055180 -0.535849
C53   C     C_R   0.078199 0.562134 0.924916 0.714876
C54   C     C_R   0.921803 0.062127 0.075088 0.714897
O15   O     O_R   0.058800 0.395030 0.085390 -0.535840
O16   O     O_R   0.941200 0.895030 0.914610 -0.535839
O17   O     O_R   0.943980 0.223310 0.057440 -0.535252
O18   O     O_R   0.056020 0.723310 0.942560 -0.535214
C55   C     C_R   0.073048 0.563562 0.111275 0.727935
C56   C     C_R   0.926946 0.063527 0.888726 0.727905
O19   O     O_3   0.962360 0.556290 0.990650 -0.371001
O20   O     O_3   0.037640 0.056290 0.009350 -0.370968
V3    V     V_3+5 0.006980 0.281990 0.001730 1.443860
V4    V     V_3+5 0.993020 0.781990 0.998270 1.443933
C57   C     C_3   0.788029 0.210457 0.617724 -0.691221
H15   H     H_    0.771616 0.098646 0.579152 0.208968
H16   H     H_    0.751621 0.312944 0.622805 0.193938
H17   H     H_    0.822956 0.293893 0.596707 0.251197
C58   C     C_3   0.211966 0.713195 0.382022 -0.691278
H18   H     H_    0.228257 0.601892 0.420844 0.209021
H19   H     H_    0.248472 0.815187 0.376757 0.194011
H20   H     H_    0.177088 0.797393 0.402814 0.251127
F1    F     F_    0.903769 0.054240 0.638145 -0.659297
F2    F     F_    0.096102 0.557825 0.361844 -0.659274
C59   C     C_3   0.827624 0.436587 0.235966 -0.760250
H21   H     H_    0.875984 0.397708 0.252283 0.225500
H22   H     H_    0.820413 0.484343 0.180702 0.208092
H23   H     H_    0.817344 0.556173 0.269018 0.209723
C60   C     C_3   0.172381 0.936545 0.764018 -0.760236
H24   H     H_    0.124009 0.897514 0.747890 0.225479
H25   H     H_    0.179722 0.984687 0.819240 0.208054
H26   H     H_    0.182556 0.055916 0.730816 0.209771
F3    F     F_    0.535169 0.248927 0.737886 -0.634281
F4    F     F_    0.464985 0.746534 0.261979 -0.634272
F5    F     F_    0.612242 0.263242 0.861656 -0.616704
F6    F     F_    0.387977 0.759654 0.138139 -0.616635

loop_
_geom_bond_atom_site_label_1
_geom_bond_atom_site_label_2
_ccdc_geom_bond_type
C43   C45   A    
O14   V4    S    
C35   C39   A    
C33   C57   S    
C18   C24   T    
C57   H15   S    
O1    C3    A    
C54   O17   A    
O2    C4    A    
C2    O7    A    
C57   H17   S    
C9    C59   S    
C50   F4    S    
O5    C3    A    
C59   H22   S    
C49   F3    S    
C8    C18   S    
O20   V3    S    
C5    H3    S    
C8    C10   A    
C60   H25   S    
C1    C28   S    
C11   H5    S    
C31   F1    S    
C40   C42   A    
C41   C43   A    
C30   C52   A    
C27   C49   A    
C42   C44   A    
O16   V4    S    
C39   C47   A    
O15   V3    S    
C38   C46   A    
C6    C8    A    
C29   C31   A    
C30   C32   A    
C29   H11   S    
C26   C50   A    
C47   H9    S    
C14   C20   S    
C6    C16   A    
O5    V1    S    
C53   O18   A    
C25   C49   A    
H1    C15   S    
C25   F5    S    
C27   C47   A    
O13   C53   A    
C32   C34   A    
O18   V4    S    
C33   C35   A    
C46   H14   S    
C59   H23   S    
C34   C36   A    
C39   C41   A    
C45   H13   S    
C13   C15   A    
C11   C13   A    
C12   C14   A    
O11   V4    S    
O4    C2    A    
O16   C56   A    
C60   H26   S    
C37   C45   A    
O15   C55   A    
C26   C42   A    
C23   C54   S    
H7    C43   S    
C28   C48   A    
C36   C40   A    
H8    C44   S    
C31   C33   A    
C14   C16   A    
O4    V2    S    
C5    C7    A    
C30   H12   S    
O19   V3    S    
O13   V3    S    
C58   H18   S    
O6    C4    A    
O20   V4    S    
O1    V2    S    
C37   C51   A    
O2    V1    S    
H2    C16   S    
C10   C60   S    
C26   F6    S    
C58   H19   S    
C6    H4    S    
O14   C54   A    
C35   C37   A    
C5    C15   A    
C34   C58   S    
O3    V1    S    
C25   C41   A    
C32   F2    S    
C10   C12   A    
C24   C53   S    
C28   C50   A    
O3    C1    A    
C57   H16   S    
C9    C11   A    
C59   H21   S    
C7    C17   S    
C4    C21   S    
C12   H6    S    
O7    V1    S    
C1    O8    A    
C19   C21   T    
O8    V2    S    
C60   H24   S    
O19   V4    S    
C20   C22   T    
C52   C55   S    
C38   C52   A    
C51   C56   S    
O17   V3    S    
C2    C27   S    
C36   C38   A    
C7    C9    A    
O12   C56   A    
C3    C22   S    
C17   C23   T    
O11   C55   A    
C13   C19   S    
C58   H20   S    
C40   C48   A    
O6    V2    S    
C29   C51   A    
O9    V2    S    
O10   V1    S    
O12   V3    S    
C48   H10   S    
C44   C46   A    
