data_mof_unit_6503.cif
_audit_creation_date              2013-03-05T16:49:18-0500
_audit_creation_method            fapswitch 2.2
_symmetry_space_group_name_H-M    P1
_symmetry_Int_Tables_number       1
_space_group_crystal_system       triclinic
_cell_length_a                    8.227945
_cell_length_b                    8.917672
_cell_length_c                    16.717178
_cell_angle_alpha                 89.529065
_cell_angle_beta                  91.630206
_cell_angle_gamma                 90.013861
_cell_volume                      1226.07025787

loop_
_atom_site_label
_atom_site_type_symbol
_atom_site_description
_atom_site_fract_x
_atom_site_fract_y
_atom_site_fract_z
_atom_type_partial_charge
O1    O     O_R   0.636850 0.285340 0.500000 -0.601070
O2    O     O_R   0.363150 0.714660 0.500000 -0.601098
O3    O     O_R   0.363100 0.285350 0.500000 -0.609122
O4    O     O_R   0.636900 0.714650 0.500000 -0.609124
C1    C     C_R   0.499965 0.218519 0.500013 0.913550
C2    C     C_R   0.500035 0.781481 0.499988 0.913578
O5    O     O_R   0.652140 0.498630 0.616140 -0.563155
O6    O     O_R   0.347860 0.501370 0.383860 -0.563177
O7    O     O_R   0.378390 0.498650 0.616130 -0.574681
O8    O     O_R   0.621610 0.501350 0.383870 -0.574669
C3    C     C_R   0.516193 0.492667 0.654585 0.946422
C4    C     C_R   0.483806 0.507302 0.345413 0.946407
Zn1   Zn    Zn3+2 0.682780 0.499990 0.500010 1.140182
Zn2   Zn    Zn3+2 0.317220 0.500010 0.499990 1.140162
N1    N     N_1   0.073640 0.500030 0.499990 0.053228
N2    N     N_1   0.926360 0.499970 0.500010 0.053234
C5    C     C_R   0.512645 0.465875 0.742728 -0.344671
C6    C     C_R   0.487345 0.533953 0.257260 -0.344675
C7    C     C_R   0.364859 0.480410 0.783495 0.174296
C8    C     C_R   0.635115 0.519303 0.216492 0.174274
C9    C     C_R   0.360140 0.457359 0.866007 0.166604
C10   C     C_R   0.639811 0.542171 0.133964 0.166631
C11   C     C_R   0.502736 0.413535 0.907793 0.078004
C12   C     C_R   0.497221 0.585981 0.092168 0.077966
C13   C     C_R   0.643115 0.373655 0.867273 0.175756
C14   C     C_R   0.356870 0.625958 0.132677 0.175779
C15   C     C_R   0.650664 0.410573 0.785358 0.162229
C16   C     C_R   0.349326 0.589190 0.214608 0.162227
N3    N     N_2   0.514218 0.433431 0.990903 -0.045464
N4    N     N_2   0.485725 0.566064 0.009060 -0.045535
C17   C     C_1   0.499971 0.065338 0.500007 -0.106286
C18   C     C_1   0.500029 0.934662 0.499993 -0.106303
N5    N     N_R   0.783811 0.491443 0.259323 0.282363
O9    O     O_R   0.853438 0.603340 0.296085 -0.280410
O10   O     O_R   0.821765 0.354458 0.279869 -0.285266
N6    N     N_R   0.216174 0.508376 0.740672 0.282358
O11   O     O_R   0.146519 0.396560 0.703852 -0.280442
O12   O     O_R   0.178254 0.645404 0.720198 -0.285222
N7    N     N_R   0.788514 0.520959 0.091664 0.272025
O13   O     O_R   0.818518 0.602111 0.028695 -0.250582
O14   O     O_R   0.891156 0.416246 0.113283 -0.215132
N8    N     N_R   0.211417 0.478441 0.908309 0.271936
O15   O     O_R   0.181410 0.397134 0.971222 -0.250556
O16   O     O_R   0.108771 0.583195 0.886759 -0.215166
N9    N     N_R   0.776711 0.300025 0.910160 0.277643
O17   O     O_R   0.751837 0.231808 0.977862 -0.260503
O18   O     O_R   0.916281 0.279961 0.877265 -0.231737
N10   N     N_R   0.223298 0.699547 0.089761 0.277588
O19   O     O_R   0.248280 0.768004 0.022140 -0.260582
O20   O     O_R   0.083545 0.719198 0.122536 -0.231637
N11   N     N_R   0.801644 0.404564 0.746877 0.280011
O21   O     O_R   0.839973 0.284874 0.707581 -0.299864
O22   O     O_R   0.874585 0.530862 0.732844 -0.254219
N12   N     N_R   0.198354 0.595309 0.253093 0.279986
O23   O     O_R   0.160006 0.715115 0.292283 -0.299860
O24   O     O_R   0.125398 0.469054 0.267212 -0.254231

loop_
_geom_bond_atom_site_label_1
_geom_bond_atom_site_label_2
_geom_bond_distance
_ccdc_geom_bond_type
C2    C18   1.366020 S    
O7    Zn2   1.991739 S    
N3    N4    1.247457 D    
C13   N9    1.449550 S    
C13   C15   1.408861 A    
N12   O23   1.301414 A    
C14   C16   1.408821 A    
C17   C18   1.165332 T    
C14   N10   1.449473 S    
O6    C4    1.306659 A    
N6    O12   1.301899 A    
N5    O9    1.300527 A    
N11   O21   1.301425 A    
N7    O14   1.301263 A    
N9    O17   1.301806 A    
O5    C3    1.306668 A    
C15   N11   1.416328 S    
O7    C3    1.288296 A    
O2    C2    1.274080 A    
O3    Zn2   1.951222 S    
N8    O16   1.301259 A    
O1    C1    1.274081 A    
C10   N7    1.443726 S    
O8    C4    1.288302 A    
N10   O20   1.300248 A    
N10   O19   1.301781 A    
N5    O10   1.301899 A    
C12   C14   1.402824 A    
N12   O24   1.298873 A    
C7    N6    1.420800 S    
N9    O18   1.300315 A    
C9    C11   1.402271 A    
O2    Zn2   1.951038 S    
C10   C12   1.402276 A    
C12   N4    1.402599 S    
O1    Zn1   1.951036 S    
N8    O15   1.301908 A    
C8    N5    1.420796 S    
N11   O22   1.298876 A    
N1    N2    1.211821 T    
C5    C15   1.410365 A    
C11   N3    1.402606 S    
O5    Zn1   1.964706 S    
C11   C13   1.402882 A    
C6    C16   1.410346 A    
C6    C8    1.417222 A    
N6    O11   1.300523 A    
O4    C2    1.274217 A    
Zn1   N2    2.004163 S    
C4    C6    1.491894 S    
N7    O13   1.301908 A    
C16   N12   1.416325 S    
Zn2   N1    2.004163 S    
C5    C7    1.417224 A    
O6    Zn2   1.964706 S    
C1    C17   1.366020 S    
C7    C9    1.394567 A    
C3    C5    1.491914 S    
C9    N8    1.443732 S    
O4    Zn1   1.951221 S    
C8    C10   1.394585 A    
O3    C1    1.274217 A    
O8    Zn1   1.991739 S    
