data_mof_unit_6655.cif
_audit_creation_date              2012-12-11T17:36:16-0500
_audit_creation_method            fapswitch 2.2
_symmetry_space_group_name_H-M    P1
_symmetry_Int_Tables_number       1
_space_group_crystal_system       triclinic
_cell_length_a                    25.681606
_cell_length_b                    6.89958
_cell_length_c                    21.64639
_cell_angle_alpha                 89.99892
_cell_angle_beta                  96.615216
_cell_angle_gamma                 89.999844
_cell_volume                      3810.03706919

loop_
_atom_site_label
_atom_site_type_symbol
_atom_type_description
_atom_site_fract_x
_atom_site_fract_y
_atom_site_fract_z
_atom_type_partial_charge
O1    O     O_R   0.208650 0.594520 0.175450 -0.534475
O2    O     O_R   0.791350 0.405480 0.824550 -0.529936
O3    O     O_R   0.291350 0.094520 0.324550 -0.534473
O4    O     O_R   0.708650 0.905480 0.675450 -0.529933
O5    O     O_R   0.192980 0.260780 0.300160 -0.541264
O6    O     O_R   0.807020 0.739220 0.699840 -0.539296
O7    O     O_R   0.307020 0.760780 0.199840 -0.541263
O8    O     O_R   0.692980 0.239220 0.800160 -0.539296
C1    C     C_R   0.178871 0.432803 0.318475 0.754319
C2    C     C_R   0.821146 0.567189 0.681551 0.756622
C3    C     C_R   0.321129 0.932804 0.181525 0.754323
C4    C     C_R   0.678854 0.067188 0.818449 0.756622
O9    O     O_R   0.202550 0.264660 0.174420 -0.536902
O10   O     O_R   0.797450 0.735340 0.825580 -0.541669
O11   O     O_R   0.297450 0.764660 0.325580 -0.536904
O12   O     O_R   0.702550 0.235340 0.674420 -0.541672
O13   O     O_R   0.300990 0.096480 0.197920 -0.537594
O14   O     O_R   0.699010 0.903520 0.802080 -0.538445
O15   O     O_R   0.199010 0.596480 0.302080 -0.537593
O16   O     O_R   0.800990 0.403520 0.697920 -0.538445
C5    C     C_R   0.190710 0.433364 0.150951 0.707340
C6    C     C_R   0.809754 0.565940 0.848682 0.704287
C7    C     C_R   0.309290 0.933360 0.349049 0.707342
C8    C     C_R   0.690246 0.065943 0.651319 0.704288
O17   O     O_3   0.282290 0.427760 0.257860 -0.365168
O18   O     O_3   0.717710 0.572240 0.742140 -0.365745
O19   O     O_3   0.217710 0.927760 0.242140 -0.365169
O20   O     O_3   0.782290 0.072240 0.757860 -0.365745
V1    V     V_3+5 0.244010 0.152080 0.248540 1.406061
V2    V     V_3+5 0.755990 0.847920 0.751460 1.397157
V3    V     V_3+5 0.255990 0.652080 0.251460 1.406062
V4    V     V_3+5 0.744010 0.347920 0.748540 1.397152
C9    C     C_R   0.657009 0.051772 0.591022 -0.077249
C10   C     C_R   0.342190 0.936735 0.409720 -0.075746
C11   C     C_R   0.842989 0.551756 0.908979 -0.077246
C12   C     C_R   0.157808 0.436751 0.090281 -0.075745
C13   C     C_R   0.651631 0.994844 0.479690 0.098864
C14   C     C_R   0.350081 0.868269 0.520578 0.100149
C15   C     C_R   0.848365 0.494741 0.020307 0.098865
C16   C     C_R   0.149920 0.368365 0.979418 0.100150
C17   C     C_R   0.681083 0.032535 0.537030 -0.186842
C18   C     C_R   0.319503 0.888258 0.462968 -0.189264
C19   C     C_R   0.818914 0.532460 0.962968 -0.186842
C20   C     C_R   0.180498 0.388335 0.037029 -0.189268
C21   C     C_R   0.602370 0.033606 0.587872 -0.228260
C22   C     C_R   0.396543 0.964217 0.413803 -0.217136
C23   C     C_R   0.897629 0.533619 0.912131 -0.228249
C24   C     C_R   0.103455 0.464195 0.086201 -0.217140
C25   C     C_R   0.571803 0.969188 0.532878 0.051769
C26   C     C_R   0.429758 0.917852 0.468811 0.049849
C27   C     C_R   0.928195 0.469171 0.967123 0.051767
C28   C     C_R   0.070241 0.417855 0.031189 0.049846
C29   C     C_R   0.596643 0.959457 0.477570 0.084852
C30   C     C_R   0.405835 0.881181 0.523581 0.083677
C31   C     C_R   0.903354 0.459385 0.022429 0.084850
C32   C     C_R   0.094165 0.381236 0.976417 0.083681
C33   C     C_R   0.517143 0.919448 0.530696 0.013826
C34   C     C_R   0.485916 0.910254 0.471227 0.013381
C35   C     C_R   0.982856 0.419450 0.969304 0.013826
C36   C     C_R   0.014083 0.410232 0.028773 0.013381
C37   C     C_R   0.512638 0.873068 0.417889 0.079495
C38   C     C_R   0.492805 0.859563 0.583990 0.080313
C39   C     C_R   0.987361 0.373000 0.082109 0.079498
C40   C     C_R   0.007196 0.359602 0.916009 0.080310
C41   C     C_R   0.566800 0.904865 0.421993 -0.248863
C42   C     C_R   0.437966 0.847782 0.579368 -0.245561
C43   C     C_R   0.933197 0.404771 0.078003 -0.248864
C44   C     C_R   0.062035 0.347846 0.920630 -0.245564
H1    H     H_    0.585810 0.881777 0.380673 0.132305
H2    H     H_    0.420465 0.807019 0.620453 0.132173
H3    H     H_    0.914187 0.381648 0.119321 0.132308
H4    H     H_    0.079537 0.307107 0.879543 0.132172
H5    H     H_    0.411999 0.024869 0.374104 0.105427
H6    H     H_    0.584464 0.075357 0.628183 0.109655
H7    H     H_    0.087997 0.524803 0.125904 0.105429
H8    H     H_    0.915536 0.575410 0.871825 0.109650
H9    H     H_    0.277379 0.868217 0.459454 0.110538
H10   H     H_    0.723289 0.048843 0.539801 0.111132
H11   H     H_    0.222623 0.368326 0.040541 0.110538
H12   H     H_    0.776707 0.548741 0.960196 0.111132
C45   C     C_R   0.435664 0.802286 0.091023 0.648026
C46   C     C_R   0.564397 0.197896 0.909051 0.647332
C47   C     C_R   0.064335 0.302285 0.408978 0.648030
C48   C     C_R   0.935603 0.697897 0.590948 0.647336
C49   C     C_R   0.396093 0.787021 0.130611 -0.255319
C50   C     C_R   0.603987 0.213175 0.869487 -0.257190
C51   C     C_R   0.103906 0.287021 0.369390 -0.255315
C52   C     C_R   0.896014 0.713176 0.630512 -0.257186
H13   H     H_    0.391620 0.651778 0.154857 0.168836
H14   H     H_    0.608569 0.348606 0.845385 0.170171
H15   H     H_    0.108379 0.151779 0.345145 0.168837
H16   H     H_    0.891432 0.848606 0.654614 0.170172
C53   C     C_R   0.363174 0.945600 0.139354 -0.232746
C54   C     C_R   0.636783 0.054370 0.860580 -0.233389
C55   C     C_R   0.136826 0.445597 0.360646 -0.232746
C56   C     C_R   0.863217 0.554373 0.639420 -0.233387
C57   C     C_R   0.370703 0.119053 0.107085 -0.263641
C58   C     C_R   0.629110 0.880679 0.892657 -0.264553
C59   C     C_R   0.129297 0.619048 0.392915 -0.263644
C60   C     C_R   0.870889 0.380683 0.607343 -0.264553
H17   H     H_    0.345987 0.243859 0.112250 0.164743
H18   H     H_    0.653713 0.755657 0.887347 0.165115
H19   H     H_    0.154014 0.743853 0.387750 0.164743
H20   H     H_    0.846286 0.255663 0.612654 0.165116
C61   C     C_R   0.409683 0.133536 0.067009 0.623955
C62   C     C_R   0.590141 0.866232 0.932746 0.625104
C63   C     C_R   0.090318 0.633531 0.432991 0.623949
C64   C     C_R   0.909858 0.366237 0.567255 0.625099
C65   C     C_R   0.442571 0.975620 0.058785 -0.201736
C66   C     C_R   0.557373 0.024365 0.941131 -0.201633
C67   C     C_R   0.057429 0.475618 0.441216 -0.201735
C68   C     C_R   0.942627 0.524367 0.558869 -0.201632
C69   C     C_1   0.483114 0.992365 0.017313 0.206653
C70   C     C_1   0.516831 0.007636 0.982604 0.206520
C71   C     C_1   0.016886 0.492364 0.482687 0.206654
C72   C     C_1   0.983169 0.507637 0.517396 0.206520
C73   C     C_3   0.680732 0.990958 0.422454 -0.370191
C74   C     C_3   0.668910 0.173391 0.382686 -0.307198
C75   C     C_3   0.697141 0.168061 0.324427 -0.738895
H21   H     H_    0.740218 0.159502 0.337312 0.235704
H22   H     H_    0.683940 0.040960 0.295226 0.231365
H23   H     H_    0.688115 0.302043 0.296833 0.220724
H24   H     H_    0.626154 0.187538 0.368361 0.198530
H25   H     H_    0.682021 0.303684 0.410479 0.200317
H26   H     H_    0.723795 0.984899 0.436278 0.185238
H27   H     H_    0.671251 0.856939 0.395061 0.168803
C76   C     C_3   0.321545 0.828615 0.576957 -0.372266
C77   C     C_3   0.320424 0.009971 0.617862 -0.303273
C78   C     C_3   0.293008 0.969141 0.675403 -0.738673
H28   H     H_    0.251932 0.922191 0.661638 0.236701
H29   H     H_    0.314190 0.854144 0.704128 0.230401
H30   H     H_    0.292488 0.102943 0.703838 0.220827
H31   H     H_    0.360817 0.061636 0.633068 0.197285
H32   H     H_    0.299117 0.127970 0.590575 0.202580
H33   H     H_    0.280311 0.784691 0.562099 0.183199
H34   H     H_    0.339436 0.703464 0.603800 0.168797
C79   C     C_3   0.819261 0.490787 0.077541 -0.370192
C80   C     C_3   0.831073 0.673194 0.117321 -0.307199
C81   C     C_3   0.802847 0.667778 0.175584 -0.738899
H35   H     H_    0.759770 0.659178 0.162702 0.235708
H36   H     H_    0.816060 0.540668 0.204774 0.231363
H37   H     H_    0.811864 0.801746 0.203185 0.220727
H38   H     H_    0.873828 0.687376 0.131644 0.198532
H39   H     H_    0.817950 0.803499 0.089539 0.200319
H40   H     H_    0.776199 0.484708 0.063714 0.185235
H41   H     H_    0.828748 0.356752 0.104925 0.168805
C82   C     C_3   0.178457 0.328779 0.923037 -0.372266
C83   C     C_3   0.179563 0.510163 0.882139 -0.303285
C84   C     C_3   0.206989 0.469409 0.824601 -0.738687
H42   H     H_    0.248070 0.422533 0.838369 0.236706
H43   H     H_    0.185824 0.354385 0.795873 0.230406
H44   H     H_    0.207492 0.603223 0.796168 0.220828
H45   H     H_    0.139166 0.561778 0.866930 0.197290
H46   H     H_    0.200856 0.628175 0.909432 0.202581
H47   H     H_    0.219694 0.284891 0.937890 0.183208
H48   H     H_    0.160574 0.203628 0.896188 0.168795
C85   C     C_3   0.488480 0.766854 0.359218 -0.342791
C86   C     C_3   0.463455 0.571855 0.373628 -0.305283
C87   C     C_3   0.438300 0.474953 0.314102 -0.733308
H49   H     H_    0.407215 0.569504 0.290214 0.229169
H50   H     H_    0.468271 0.445366 0.282188 0.233142
H51   H     H_    0.420166 0.335648 0.325638 0.207516
H52   H     H_    0.494055 0.474196 0.397041 0.195596
H53   H     H_    0.432762 0.590900 0.405120 0.209686
H54   H     H_    0.461254 0.858212 0.328797 0.161580
H55   H     H_    0.519295 0.732365 0.328763 0.174113
C88   C     C_3   0.521931 0.771087 0.643155 -0.343289
C89   C     C_3   0.556855 0.598902 0.629600 -0.310976
C90   C     C_3   0.582870 0.509645 0.689975 -0.723206
H56   H     H_    0.607209 0.619508 0.717488 0.235309
H57   H     H_    0.552780 0.452754 0.718221 0.220403
H58   H     H_    0.608495 0.388094 0.679150 0.215420
H59   H     H_    0.532659 0.486486 0.603002 0.196854
H60   H     H_    0.588077 0.644590 0.601391 0.210680
H61   H     H_    0.543569 0.879012 0.673596 0.160505
H62   H     H_    0.493376 0.713470 0.673484 0.176182
C91   C     C_3   0.011520 0.266773 0.140777 -0.342790
C92   C     C_3   0.036558 0.071801 0.126364 -0.305284
C93   C     C_3   0.061721 0.974903 0.185889 -0.733300
H63   H     H_    0.092798 0.069478 0.209777 0.229172
H64   H     H_    0.031752 0.945273 0.217802 0.233131
H65   H     H_    0.079866 0.835623 0.174350 0.207521
H66   H     H_    0.005964 0.974122 0.102951 0.195594
H67   H     H_    0.067249 0.090880 0.094871 0.209689
H68   H     H_    0.038740 0.358139 0.171204 0.161582
H69   H     H_    0.980706 0.232243 0.171228 0.174111
C94   C     C_3   0.978071 0.271137 0.856842 -0.343286
C95   C     C_3   0.943154 0.098928 0.870395 -0.310979
C96   C     C_3   0.917133 0.009700 0.810019 -0.723204
H70   H     H_    0.892789 0.119573 0.782515 0.235310
H71   H     H_    0.947221 0.952837 0.781765 0.220411
H72   H     H_    0.891513 0.888134 0.820842 0.215412
H73   H     H_    0.967355 0.986505 0.896984 0.196851
H74   H     H_    0.911935 0.144586 0.898612 0.210679
H75   H     H_    0.956427 0.379064 0.826406 0.160506
H76   H     H_    0.006626 0.213548 0.826510 0.176180
F1    F     F_    0.467339 0.648060 0.084367 -0.599016
F2    F     F_    0.532812 0.352288 0.915833 -0.598431
F3    F     F_    0.032660 0.148061 0.415634 -0.599015
F4    F     F_    0.967188 0.852287 0.584166 -0.598430
F5    F     F_    0.415102 0.301932 0.035974 -0.610043
F6    F     F_    0.584625 0.697675 0.963654 -0.609819
F7    F     F_    0.084899 0.801926 0.464025 -0.610045
F8    F     F_    0.915373 0.197681 0.536347 -0.609821

loop_
_geom_bond_atom_site_label_1
_geom_bond_atom_site_label_2
_ccdc_geom_bond_type
O17   V3    S    
C59   H19   S    
C52   C56   A    
O1    C5    A    
C85   C86   S    
C51   H15   S    
C94   H76   S    
O19   V1    S    
C9    C21   A    
C90   H56   S    
O3    C7    A    
C82   C83   S    
C10   C18   A    
C60   H20   S    
C40   C94   S    
C11   C23   A    
C77   C78   S    
C15   C79   S    
C92   C93   S    
C91   H68   S    
C33   C38   A    
C5    C12   S    
C48   F4    S    
O7    C3    A    
C6    C11   S    
C35   C40   A    
C48   C68   A    
C36   C39   A    
C46   C66   A    
O9    V1    S    
C76   H33   S    
C23   H8    S    
C14   C18   A    
C37   C85   S    
C80   H38   S    
C84   H43   S    
C45   F1    S    
O4    C8    A    
C81   H37   S    
C55   C59   A    
C54   C58   A    
C71   C72   T    
O1    V3    S    
C25   C33   A    
C31   C43   A    
O2    V4    S    
O3    V1    S    
C74   C75   S    
C61   C65   A    
C50   C54   A    
C49   C53   A    
C1    O15   A    
C15   C31   A    
C52   H16   S    
C2    O16   A    
C16   C32   A    
C51   C55   A    
O2    C6    A    
C87   H50   S    
C10   C22   A    
C2    C56   S    
C11   C19   A    
C73   H27   S    
C1    C55   S    
C16   C20   A    
C43   H3    S    
C92   H66   S    
O8    C4    A    
C78   H30   S    
C13   C29   A    
C3    C53   S    
C34   C37   A    
O11   C7    A    
C38   C88   S    
C74   H25   S    
O15   V3    S    
C35   C36   A    
O12   C8    A    
C93   H64   S    
C90   H57   S    
C24   H7    S    
C4    C54   S    
C83   H46   S    
O10   V2    S    
O16   V4    S    
C45   C49   A    
C14   C76   S    
O5    V1    S    
C75   H22   S    
O17   V1    S    
C89   H59   S    
C39   C43   A    
C60   C64   A    
O7    V3    S    
C38   C42   A    
O19   V3    S    
C26   C34   A    
C79   H41   S    
O20   V4    S    
C76   H34   S    
C50   H14   S    
C84   H44   S    
C85   H54   S    
C88   C89   S    
C49   H13   S    
O18   V4    S    
C23   C27   A    
C86   H53   S    
C19   H12   S    
C32   C44   A    
O4    V2    S    
C91   H69   S    
C64   C68   A    
C95   C96   S    
O8    V4    S    
C85   H55   S    
C96   H72   S    
C89   H60   S    
C63   F7    S    
C17   H10   S    
C77   H32   S    
C62   F6    S    
C67   C71   S    
C77   H31   S    
C53   C57   A    
C61   F5    S    
C87   H49   S    
C14   C30   A    
C21   C25   A    
C44   H4    S    
C7    C10   S    
C87   H51   S    
O9    C5    A    
C26   C30   A    
C83   C84   S    
C75   H21   S    
O11   V3    S    
C82   H48   S    
C86   H52   S    
O14   V2    S    
C89   C90   S    
O6    V2    S    
C45   C65   A    
C95   H73   S    
O18   V2    S    
C86   C87   S    
C90   H58   S    
C47   C67   A    
C12   C20   A    
C27   C35   A    
C83   H45   S    
C47   F3    S    
C76   C77   S    
C40   C44   A    
C68   C72   S    
C29   C41   A    
C88   H61   S    
C69   C70   T    
C62   C66   A    
C75   H23   S    
C79   H40   S    
C66   C70   S    
C3    O13   A    
C16   C82   S    
C94   H75   S    
C63   C67   A    
C20   H11   S    
C48   C52   A    
O5    C1    A    
C58   C62   A    
C47   C51   A    
O6    C2    A    
C15   C19   A    
C81   H35   S    
C46   F2    S    
C30   C42   A    
C65   C69   S    
C82   H47   S    
O12   V4    S    
C59   C63   A    
C79   C80   S    
C22   C26   A    
C73   C74   S    
C8    C9    S    
C39   C91   S    
C9    C17   A    
C93   H65   S    
O20   V2    S    
C78   H28   S    
C57   C61   A    
C94   C95   S    
C64   F8    S    
C58   H18   S    
O13   V1    S    
C46   C50   A    
C81   H36   S    
O10   C6    A    
C33   C34   A    
C42   H2    S    
C41   H1    S    
C56   C60   A    
C12   C24   A    
C27   C31   A    
C74   H24   S    
C13   C17   A    
C96   H70   S    
C57   H17   S    
C25   C29   A    
C80   C81   S    
C95   H74   S    
C93   H63   S    
C37   C41   A    
C24   C28   A    
C13   C73   S    
C18   H9    S    
C28   C36   A    
C91   C92   S    
C4    O14   A    
C21   H6    S    
C80   H39   S    
C96   H71   S    
C84   H42   S    
C73   H26   S    
C22   H5    S    
C92   H67   S    
C28   C32   A    
C88   H62   S    
C78   H29   S    
