data_mof_unit_20488.cif
_audit_creation_date              2012-12-10T20:40:01-0500
_audit_creation_method            fapswitch 2.2
_symmetry_space_group_name_H-M    P1
_symmetry_Int_Tables_number       1
_space_group_crystal_system       triclinic
_cell_length_a                    23.387568
_cell_length_b                    10.67741
_cell_length_c                    9.890859
_cell_angle_alpha                 90.863021
_cell_angle_beta                  89.864341
_cell_angle_gamma                 89.260794
_cell_volume                      2469.43815372

loop_
_atom_site_label
_atom_site_type_symbol
_atom_type_description
_atom_site_fract_x
_atom_site_fract_y
_atom_site_fract_z
_atom_type_partial_charge
C1    C     C_R   0.504223 0.259998 0.498860 0.883999
C2    C     C_R   0.120401 0.567294 0.564758 0.530172
C3    C     C_R   0.237416 0.568374 0.414286 0.162807
C4    C     C_R   0.389668 0.498271 0.499796 0.874872
C5    C     C_R   0.296816 0.575200 0.418591 -0.279677
C6    C     C_R   0.328048 0.491260 0.497482 -0.035618
C7    C     C_R   0.300441 0.396958 0.568146 -0.262118
C8    C     C_R   0.241236 0.390622 0.565545 -0.140075
C9    C     C_R   0.209711 0.476914 0.490033 0.327941
C10   C     C_R   0.762034 0.470901 0.620383 -0.100314
C11   C     C_R   0.702790 0.478098 0.620956 -0.210140
C12   C     C_R   0.971532 0.282835 0.364528 -0.156234
C13   C     C_R   0.673014 0.494329 0.499337 -0.042956
C14   C     C_R   0.703248 0.503309 0.377154 -0.226734
C15   C     C_R   0.762584 0.497335 0.377061 -0.096850
C16   C     C_R   0.501992 0.739853 0.500882 0.892194
C17   C     C_R   0.791980 0.481230 0.498661 0.313556
C18   C     C_R   0.507541 0.065799 0.620169 0.111107
C19   C     C_R   0.516067 0.127945 0.498945 -0.142176
C20   C     C_R   0.537441 0.058855 0.384795 0.159279
C21   C     C_R   0.534289 0.928517 0.388179 -0.257935
C22   C     C_R   0.512959 0.870328 0.503326 -0.145593
C23   C     C_R   0.031083 0.282223 0.363143 -0.157741
C24   C     C_R   0.506616 0.938524 0.622713 0.142428
C25   C     C_3   0.460422 0.937042 0.726790 -0.481307
C26   C     C_3   0.461197 0.078814 0.724075 -0.483676
C27   C     C_R   0.466520 0.581608 0.073522 0.159348
C28   C     C_R   0.610682 0.499474 0.499804 0.854830
C29   C     C_R   0.538194 0.427694 0.070691 -0.209939
C30   C     C_R   0.538266 0.427096 0.926506 0.145529
C31   C     C_R   0.464186 0.576780 0.931676 0.139994
C32   C     C_3   0.399183 0.586409 0.936606 0.200938
C33   C     C_3   0.403944 0.601417 0.091325 -0.219478
C34   C     C_R   0.061178 0.377647 0.429945 -0.015820
C35   C     C_R   0.881188 0.572926 0.564846 0.504013
C36   C     C_R   0.881356 0.382538 0.434052 0.503626
C37   C     C_R   0.941101 0.379227 0.432161 -0.014056
C38   C     C_R   0.970932 0.475177 0.499825 -0.020806
C39   C     C_R   0.940840 0.572590 0.567570 -0.014374
C40   C     C_3   0.563298 0.116702 0.260042 -0.407833
C41   C     C_3   0.619926 0.179572 0.293549 -0.808265
C42   C     C_3   0.363110 0.469855 0.898774 -0.353431
C43   C     C_3   0.392029 0.342280 0.919524 -0.892737
C44   C     C_R   0.031006 0.474095 0.499235 -0.021882
C45   C     C_R   0.060760 0.569810 0.567501 -0.018379
C46   C     C_R   0.030384 0.665750 0.635855 -0.158618
C47   C     C_R   0.970901 0.667356 0.635515 -0.155373
C48   C     C_R   0.120900 0.380135 0.428565 0.510198
H1    H     H_    0.949482 0.208061 0.311950 0.193611
H2    H     H_    0.568617 0.370175 0.124076 0.159136
H3    H     H_    0.053394 0.207053 0.309480 0.192544
H4    H     H_    0.382990 0.527168 0.150679 0.193733
H5    H     H_    0.052421 0.740224 0.688980 0.192431
H6    H     H_    0.948617 0.742977 0.688498 0.193832
H7    H     H_    0.318398 0.646790 0.362286 0.130197
H8    H     H_    0.324697 0.328425 0.624780 0.150938
H9    H     H_    0.219707 0.319553 0.622904 0.152714
H10   H     H_    0.784812 0.458144 0.714487 0.145604
H11   H     H_    0.638930 0.218227 0.200334 0.234161
H12   H     H_    0.680451 0.470592 0.716344 0.161774
H13   H     H_    0.613558 0.256737 0.368303 0.258382
H14   H     H_    0.650488 0.110038 0.335840 0.267263
H15   H     H_    0.572527 0.043734 0.181300 0.194174
H16   H     H_    0.532857 0.182147 0.211683 0.222143
H17   H     H_    0.618729 0.369601 0.884730 0.158098
H18   H     H_    0.569711 0.255138 0.881491 0.162443
H19   H     H_    0.335105 0.713866 0.894416 0.190682
H20   H     H_    0.400546 0.777144 0.898511 0.195351
H21   H     H_    0.425770 0.325741 0.842433 0.280871
H22   H     H_    0.410531 0.335436 0.022378 0.257114
H23   H     H_    0.681181 0.515612 0.282026 0.163888
H24   H     H_    0.359927 0.267336 0.906807 0.248717
H25   H     H_    0.323071 0.473178 0.959709 0.193748
H26   H     H_    0.348780 0.476455 0.793424 0.242831
H27   H     H_    0.346668 0.739213 0.143761 0.179359
H28   H     H_    0.404160 0.732442 0.243896 0.221151
H29   H     H_    0.219005 0.644662 0.233961 0.180496
H30   H     H_    0.214216 0.745038 0.367288 0.207350
H31   H     H_    0.785810 0.506057 0.282892 0.146554
H32   H     H_    0.546363 0.872997 0.299731 0.172114
H33   H     H_    0.420006 0.896625 0.687623 0.208268
H34   H     H_    0.476182 0.898593 0.823813 0.203657
H35   H     H_    0.421198 0.121093 0.683340 0.201562
H36   H     H_    0.476872 0.121414 0.820061 0.207053
N1    N     N_R   0.852906 0.478664 0.499194 -0.357898
N2    N     N_R   0.148904 0.474387 0.494649 -0.349112
N3    N     N_R   0.499610 0.499140 0.142800 -0.119628
N4    N     N_R   0.499610 0.499180 0.857150 -0.112337
N5    N     N_3   0.577369 0.347456 0.853483 -0.394288
N6    N     N_3   0.377887 0.698296 0.867241 -0.446441
N7    N     N_3   0.391122 0.727687 0.142982 -0.470934
N8    N     N_3   0.204976 0.654112 0.334095 -0.441898
O1    O     O_R   0.500010 0.316790 0.614690 -0.607173
O2    O     O_R   0.583850 0.500060 0.614640 -0.598789
O3    O     O_R   0.583840 0.500020 0.385300 -0.626316
O4    O     O_2   0.851526 0.667181 0.626105 -0.555924
O5    O     O_2   0.851821 0.290335 0.372204 -0.558367
O6    O     O_2   0.150849 0.290133 0.361008 -0.560885
O7    O     O_2   0.149893 0.656780 0.631370 -0.564476
O8    O     O_R   0.500000 0.316760 0.385350 -0.618698
O9    O     O_R   0.416160 0.499980 0.614700 -0.609788
O10   O     O_R   0.416150 0.499940 0.385360 -0.629040
O11   O     O_R   0.500000 0.683240 0.614650 -0.606108
O12   O     O_R   0.499990 0.683210 0.385310 -0.625157
Zn1   Zn    Zn3+2 0.500000 0.500020 0.653130 0.967376
Zn2   Zn    Zn3+2 0.500000 0.499980 0.346870 0.935240

loop_
_geom_bond_atom_site_label_1
_geom_bond_atom_site_label_2
_ccdc_geom_bond_type
O2    Zn1   S    
C26   H35   S    
C11   C13   A    
C14   H23   S    
C19   C20   A    
C18   C26   S    
C41   H13   S    
O12   Zn2   S    
C12   H1    S    
C7    C8    A    
H29   N8    S    
C35   O4    S    
C27   C33   S    
C33   H4    S    
H17   N5    S    
C12   C23   A    
C37   C38   A    
C40   H15   S    
C28   O3    A    
C17   N1    S    
C7    H8    S    
C22   C24   A    
C36   C37   A    
C10   H10   S    
C33   N7    S    
C38   C39   A    
C9    N2    S    
C10   C17   A    
C46   H5    S    
C28   O2    A    
C18   C19   A    
C12   C37   A    
O1    Zn1   S    
C16   O12   A    
C15   H31   S    
C8    C9    A    
C4    O10   A    
H20   N6    S    
C13   C28   S    
O10   Zn2   S    
C36   O5    S    
H27   N7    S    
C43   H21   S    
C13   C14   A    
C25   H33   S    
C41   H14   S    
C30   N5    S    
C1    O8    A    
H18   N5    S    
C29   H2    S    
C2    C45   A    
O9    Zn1   S    
C32   N6    S    
C1    C19   S    
C42   H26   S    
C27   C31   A    
C34   C44   A    
C24   C25   S    
C41   H11   S    
C4    C6    S    
H30   N8    S    
C25   C26   S    
C45   C46   A    
H19   N6    S    
C3    N8    S    
C35   C39   A    
C38   C44   A    
C29   C30   A    
C3    C9    A    
O3    Zn2   S    
C8    H9    S    
C16   O11   A    
C23   H3    S    
C31   C32   S    
C23   C34   A    
C4    O9    A    
O11   Zn1   S    
C27   N3    A    
C47   H6    S    
C40   C41   S    
C2    O7    S    
C43   H22   S    
C25   H34   S    
C18   C24   A    
C34   C48   A    
C42   C43   S    
C30   N4    A    
C11   H12   S    
C44   C45   A    
C39   C47   A    
C15   C17   A    
C43   H24   S    
C46   C47   A    
C42   H25   S    
C16   C22   S    
C31   N4    A    
C5    H7    S    
C3    C5    A    
C6    C7    A    
C36   N1    A    
C48   O6    S    
O8    Zn2   S    
C40   H16   S    
C32   C33   S    
C26   H36   S    
N4    Zn1   S    
C35   N1    A    
C5    C6    A    
N3    Zn2   S    
C20   C40   S    
C21   H32   S    
C2    N2    A    
C48   N2    A    
C29   N3    A    
C10   C11   A    
H28   N7    S    
C20   C21   A    
C1    O1    A    
C32   C42   S    
C14   C15   A    
C21   C22   A    
