data_mof_unit_50569.cif
_audit_creation_date              2013-03-05T15:44:24-0500
_audit_creation_method            fapswitch 2.2
_symmetry_space_group_name_H-M    P1
_symmetry_Int_Tables_number       1
_space_group_crystal_system       triclinic
_cell_length_a                    18.99685
_cell_length_b                    10.907676
_cell_length_c                    18.856168
_cell_angle_alpha                 90.01258
_cell_angle_beta                  90.425648
_cell_angle_gamma                 89.982411
_cell_volume                      3907.10647499

loop_
_atom_site_label
_atom_site_type_symbol
_atom_site_description
_atom_site_fract_x
_atom_site_fract_y
_atom_site_fract_z
_atom_type_partial_charge
O1    O     O_R   0.784320 0.290430 0.830510 -0.519056
O2    O     O_R   0.215680 0.290430 0.169490 -0.515504
O3    O     O_R   0.284320 0.790430 0.830510 -0.523277
O4    O     O_R   0.715680 0.790430 0.169490 -0.519047
O5    O     O_R   0.762640 0.040960 0.825200 -0.498334
O6    O     O_R   0.237360 0.040960 0.174800 -0.499883
O7    O     O_R   0.262640 0.540960 0.825200 -0.504981
O8    O     O_R   0.737360 0.540960 0.174800 -0.503449
C1    C     C_R   0.727291 0.956244 0.853595 0.558648
C2    C     C_R   0.272771 0.955786 0.146422 0.557825
C3    C     C_R   0.227327 0.455883 0.853524 0.548355
C4    C     C_R   0.774504 0.459517 0.144659 0.546198
O9    O     O_R   0.667400 0.923970 0.829950 -0.496136
O10   O     O_R   0.332600 0.923970 0.170050 -0.501745
O11   O     O_R   0.167400 0.423970 0.829950 -0.502938
O12   O     O_R   0.832600 0.423970 0.170050 -0.512384
O13   O     O_R   0.553960 0.081340 0.821780 -0.481717
O14   O     O_R   0.446040 0.081340 0.178220 -0.481454
O15   O     O_R   0.053960 0.581340 0.821780 -0.481743
O16   O     O_R   0.946040 0.581340 0.178220 -0.484265
C5    C     C_R   0.529981 0.176762 0.851032 0.551116
C6    C     C_R   0.470541 0.176877 0.149357 0.551984
C7    C     C_R   0.030118 0.676762 0.851218 0.551783
C8    C     C_R   0.971353 0.677177 0.149911 0.551800
O17   O     O_R   0.543180 0.283240 0.826740 -0.507255
O18   O     O_R   0.456820 0.283240 0.173260 -0.505899
O19   O     O_R   0.043180 0.783240 0.826740 -0.505367
O20   O     O_R   0.956820 0.783240 0.173260 -0.506093
O21   O     O_R   0.678360 0.375140 0.822710 -0.503718
O22   O     O_R   0.321640 0.375140 0.177290 -0.501347
O23   O     O_R   0.178360 0.875140 0.822710 -0.504498
O24   O     O_R   0.821640 0.875140 0.177290 -0.503551
C9    C     C_R   0.738281 0.364669 0.852590 0.545708
C10   C     C_R   0.262813 0.359161 0.145373 0.548579
C11   C     C_R   0.237470 0.860320 0.854277 0.543776
C12   C     C_R   0.763202 0.857761 0.145004 0.544550
O25   O     O_R   0.785050 0.289380 0.670560 -0.528681
O26   O     O_R   0.214950 0.289380 0.329440 -0.526254
O27   O     O_R   0.285050 0.789380 0.670560 -0.518826
O28   O     O_R   0.714950 0.789380 0.329440 -0.518279
O29   O     O_R   0.763320 0.039990 0.676930 -0.476799
O30   O     O_R   0.236680 0.039990 0.323070 -0.476603
O31   O     O_R   0.263320 0.539990 0.676930 -0.486561
O32   O     O_R   0.736680 0.539990 0.323070 -0.485614
C13   C     C_R   0.709932 0.000668 0.639746 0.557828
C14   C     C_R   0.290063 0.000690 0.360268 0.557633
C15   C     C_R   0.227386 0.456500 0.646888 0.558507
C16   C     C_R   0.772606 0.456495 0.353108 0.560504
O33   O     O_R   0.668130 0.922920 0.670000 -0.505572
O34   O     O_R   0.331870 0.922920 0.330000 -0.504765
O35   O     O_R   0.168130 0.422920 0.670000 -0.523715
O36   O     O_R   0.831870 0.422920 0.330000 -0.521796
O37   O     O_R   0.554640 0.080370 0.673500 -0.533923
O38   O     O_R   0.445360 0.080370 0.326500 -0.533650
O39   O     O_R   0.054640 0.580370 0.673500 -0.513969
O40   O     O_R   0.945360 0.580370 0.326500 -0.512793
C17   C     C_R   0.528089 0.176576 0.645129 0.558280
C18   C     C_R   0.471967 0.176544 0.354821 0.558435
C19   C     C_R   0.028194 0.676374 0.645101 0.568337
C20   C     C_R   0.971811 0.676367 0.354895 0.568628
O41   O     O_R   0.543920 0.282180 0.666790 -0.442808
O42   O     O_R   0.456080 0.282180 0.333210 -0.443288
O43   O     O_R   0.043920 0.782180 0.666790 -0.446323
O44   O     O_R   0.956080 0.782180 0.333210 -0.446649
O45   O     O_R   0.679040 0.374160 0.674430 -0.492269
O46   O     O_R   0.320960 0.374160 0.325570 -0.492110
O47   O     O_R   0.179040 0.874160 0.674430 -0.494704
O48   O     O_R   0.820960 0.874160 0.325570 -0.494256
C21   C     C_R   0.738967 0.360305 0.645424 0.537899
C22   C     C_R   0.261030 0.360310 0.354571 0.539692
C23   C     C_R   0.240025 0.864331 0.646759 0.542395
C24   C     C_R   0.759968 0.864338 0.353237 0.543005
Cr1   Cr    Cr6+3 0.769270 0.163730 0.750710 1.056163
Cr2   Cr    Cr6+3 0.230730 0.163730 0.249290 1.060018
Cr3   Cr    Cr6+3 0.269270 0.663730 0.750710 1.055424
Cr4   Cr    Cr6+3 0.730730 0.663730 0.249290 1.058317
Cr5   Cr    Cr6+3 0.612620 0.009790 0.748780 1.052145
Cr6   Cr    Cr6+3 0.387380 0.009790 0.251220 1.051922
Cr7   Cr    Cr6+3 0.112620 0.509790 0.748780 1.057075
Cr8   Cr    Cr6+3 0.887380 0.509790 0.251220 1.056406
Cr9   Cr    Cr6+3 0.614160 0.322500 0.747710 1.077929
Cr10  Cr    Cr6+3 0.385840 0.322500 0.252290 1.079889
Cr11  Cr    Cr6+3 0.114160 0.822500 0.747710 1.081638
Cr12  Cr    Cr6+3 0.885840 0.822500 0.252290 1.082850
O49   O     O_3   0.665350 0.165340 0.749070 -0.289392
O50   O     O_3   0.334650 0.165340 0.250930 -0.291440
O51   O     O_3   0.165350 0.665340 0.749070 -0.268362
O52   O     O_3   0.834650 0.665340 0.250930 -0.270844
C25   C     C_2   0.499722 0.164070 0.922244 -0.132519
C26   C     C_2   0.502114 0.165065 0.078770 -0.129981
C27   C     C_2   0.001264 0.664540 0.923208 -0.130069
C28   C     C_2   0.004216 0.667623 0.079842 -0.125353
C29   C     C_2   0.497852 0.060251 0.039971 -0.056899
C30   C     C_2   0.507100 0.060172 0.961733 -0.058248
C31   C     C_2   0.005113 0.561971 0.042097 -0.060301
C32   C     C_2   0.009810 0.561118 0.963071 -0.058396
H1    H     H_    0.519230 0.249981 0.054501 0.095494
H2    H     H_    0.480700 0.248065 0.946156 0.097159
H3    H     H_    0.016512 0.754355 0.054881 0.100650
H4    H     H_    0.983549 0.749309 0.947051 0.098562
C33   C     C_R   0.690678 0.451761 0.963971 -0.140982
C34   C     C_R   0.303111 0.466951 0.036536 -0.141021
C35   C     C_R   0.194667 0.962422 0.964097 -0.141660
C36   C     C_R   0.799774 0.972598 0.037561 -0.139776
H5    H     H_    0.639768 0.467903 0.939469 0.139703
H6    H     H_    0.342807 0.516869 0.066271 0.131747
H7    H     H_    0.151925 0.006199 0.935414 0.133149
H8    H     H_    0.835478 0.029006 0.068515 0.135601
C37   C     C_R   0.697435 0.462901 0.037288 -0.146900
C38   C     C_R   0.298586 0.481251 0.963296 -0.133162
C39   C     C_R   0.199249 0.975160 0.037490 -0.136565
C40   C     C_R   0.794966 0.989066 0.964587 -0.131145
H9    H     H_    0.652891 0.493783 0.068061 0.130629
H10   H     H_    0.332985 0.546632 0.937802 0.134191
H11   H     H_    0.161794 0.033615 0.064218 0.133722
H12   H     H_    0.825130 0.062188 0.940592 0.146597
C41   C     C_R   0.761509 0.432841 0.070266 0.028301
C42   C     C_R   0.247182 0.416458 0.924304 0.026037
C43   C     C_R   0.253947 0.916844 0.075231 0.026102
C44   C     C_R   0.747829 0.917211 0.924183 0.022797
C45   C     C_R   0.819222 0.397486 0.029145 -0.132317
C46   C     C_R   0.203791 0.332213 0.958153 -0.131892
C47   C     C_R   0.301254 0.841135 0.039817 -0.134026
C48   C     C_R   0.709453 0.823961 0.956244 -0.128837
H13   H     H_    0.869793 0.376497 0.052681 0.158825
H14   H     H_    0.164804 0.279383 0.929192 0.155888
H15   H     H_    0.343080 0.793191 0.067562 0.157474
H16   H     H_    0.673761 0.766392 0.925976 0.154620
C49   C     C_R   0.813455 0.391355 0.956644 -0.136458
C50   C     C_R   0.206376 0.321620 0.030589 -0.120273
C51   C     C_R   0.298830 0.833259 0.967363 -0.126377
C52   C     C_R   0.713051 0.809480 0.028576 -0.118606
H17   H     H_    0.859034 0.361943 0.926879 0.149888
H18   H     H_    0.170138 0.257809 0.054783 0.150213
H19   H     H_    0.338208 0.776462 0.942235 0.145629
H20   H     H_    0.681503 0.737418 0.051793 0.150180
C53   C     C_R   0.748493 0.412803 0.923673 0.026686
C54   C     C_R   0.255518 0.389447 0.070688 0.030824
C55   C     C_R   0.245541 0.893253 0.928559 0.030843
C56   C     C_R   0.756877 0.885501 0.070042 0.029727
C57   C     C_R   0.493417 0.283796 0.535956 0.198414
C58   C     C_R   0.507191 0.283660 0.463827 0.198352
C59   C     C_R   0.992669 0.782179 0.535982 0.195644
C60   C     C_R   0.007328 0.782172 0.464028 0.195510
C61   C     C_R   0.501420 0.171724 0.426281 -0.014025
C62   C     C_R   0.498849 0.171867 0.573573 -0.014357
C63   C     C_R   0.000933 0.670555 0.426399 -0.015538
C64   C     C_R   0.999087 0.670561 0.573589 -0.015765
C65   C     C_R   0.499941 0.060464 0.463190 -0.202293
C66   C     C_R   0.500140 0.060531 0.536709 -0.202499
C67   C     C_R   0.998788 0.559011 0.463241 -0.181793
C68   C     C_R   0.001269 0.559014 0.536723 -0.182132
H21   H     H_    0.497181 0.973938 0.435167 0.145093
H22   H     H_    0.502700 0.974039 0.564768 0.144859
H23   H     H_    0.994200 0.472481 0.435374 0.159882
H24   H     H_    0.005883 0.472486 0.564571 0.159386
C69   C     C_R   0.799660 0.332651 0.532907 -0.136326
C70   C     C_R   0.200230 0.332954 0.467027 -0.136377
C71   C     C_R   0.321551 0.901219 0.547669 -0.125440
C72   C     C_R   0.678426 0.901319 0.452316 -0.125333
H25   H     H_    0.837399 0.271837 0.557899 0.149392
H26   H     H_    0.162429 0.272322 0.441999 0.149592
H27   H     H_    0.363693 0.856293 0.576676 0.147395
H28   H     H_    0.636281 0.856465 0.423289 0.147666
C73   C     C_R   0.801298 0.341813 0.460394 -0.137167
C74   C     C_R   0.198589 0.342059 0.539539 -0.137221
C75   C     C_R   0.332125 0.927736 0.476808 -0.128901
C76   C     C_R   0.667857 0.927804 0.523189 -0.129016
H29   H     H_    0.841147 0.290361 0.432271 0.150214
H30   H     H_    0.158674 0.290760 0.567618 0.149980
H31   H     H_    0.381852 0.903126 0.453249 0.139238
H32   H     H_    0.618130 0.903244 0.546742 0.139300
C77   C     C_R   0.755602 0.422202 0.425353 0.037997
C78   C     C_R   0.244364 0.422216 0.574631 0.038257
C79   C     C_R   0.278118 0.979823 0.436012 0.022825
C80   C     C_R   0.721871 0.979798 0.564002 0.022944
C81   C     C_R   0.705428 0.488915 0.464089 -0.079040
C82   C     C_R   0.294615 0.488742 0.535945 -0.078997
C83   C     C_R   0.214458 0.012264 0.468582 -0.100632
C84   C     C_R   0.785536 0.012158 0.531448 -0.100718
H33   H     H_    0.671178 0.554969 0.438362 0.182546
H34   H     H_    0.328910 0.554659 0.561709 0.182823
H35   H     H_    0.172390 0.054965 0.438573 0.182105
H36   H     H_    0.827615 0.054759 0.561478 0.182210
C85   C     C_R   0.701133 0.474130 0.537254 -0.113084
C86   C     C_R   0.298949 0.473927 0.462786 -0.113348
C87   C     C_R   0.203233 0.983533 0.539691 -0.124852
C88   C     C_R   0.796756 0.983462 0.460331 -0.124920
H37   H     H_    0.661345 0.523463 0.566534 0.178169
H38   H     H_    0.338860 0.522995 0.433560 0.177901
H39   H     H_    0.152504 0.002703 0.562809 0.184392
H40   H     H_    0.847489 0.002566 0.437225 0.184533
C89   C     C_R   0.748686 0.396234 0.571981 0.018870
C90   C     C_R   0.251303 0.396297 0.428006 0.018613
C91   C     C_R   0.255848 0.923316 0.578878 0.015629
C92   C     C_R   0.744134 0.923342 0.421121 0.015707
C93   C     C_1   0.487995 0.941563 0.073910 0.251249
N1    N     N_1   0.480821 0.846920 0.100654 -0.297496
C94   C     C_1   0.520993 0.941784 0.928900 0.254354
N2    N     N_1   0.531401 0.847162 0.903220 -0.293664
C95   C     C_1   0.006105 0.444286 0.078545 0.231127
N3    N     N_1   0.007305 0.350593 0.107360 -0.296674
C96   C     C_1   0.019750 0.442140 0.929621 0.242061
N4    N     N_1   0.026929 0.347123 0.903301 -0.302582
N5    N     N_R   0.477441 0.397119 0.571625 0.110144
O53   O     O_R   0.520768 0.489325 0.568581 -0.312532
O54   O     O_R   0.425929 0.400707 0.616720 -0.355361
N6    N     N_R   0.523393 0.396754 0.428057 0.109691
O55   O     O_R   0.480368 0.489417 0.431244 -0.311887
O56   O     O_R   0.574602 0.399601 0.382621 -0.354808
N7    N     N_R   0.974056 0.894393 0.571466 0.105191
O57   O     O_R   0.015543 0.989166 0.569299 -0.320249
O58   O     O_R   0.921349 0.895079 0.615148 -0.343617
N8    N     N_R   0.025925 0.894369 0.428568 0.105335
O59   O     O_R   0.984419 0.989162 0.430741 -0.319854
O60   O     O_R   0.078651 0.895030 0.384910 -0.342921

loop_
_geom_bond_atom_site_label_1
_geom_bond_atom_site_label_2
_geom_bond_distance
_ccdc_geom_bond_type
C18   O42   1.258161 A    
Cr11  O51   1.970684 S    
C96   N4    1.157482 T    
O4    C12   1.254700 A    
C86   H38   1.082394 S    
C29   C30   1.487000 S    
O39   C19   1.277373 A    
O20   Cr12  2.061913 S    
C95   N3    1.157672 T    
O15   C7    1.264830 A    
C31   C32   1.493487 S    
C40   H12   1.083283 S    
C43   C47   1.394179 A    
C38   C42   1.408261 A    
O26   C22   1.258384 A    
C18   C61   1.456112 S    
O1    C9    1.264449 A    
O27   Cr3   2.064041 S    
C5    C25   1.471158 S    
N5    O53   1.301350 A    
C22   C90   1.452290 S    
C71   C91   1.404621 A    
O5    C1    1.263895 A    
C70   C90   1.404046 A    
C32   C96   1.455669 S    
C69   C89   1.404101 A    
C65   C66   1.386273 A    
C72   H28   1.083313 S    
C35   C39   1.392914 A    
O25   C21   1.258215 A    
C34   C54   1.398626 A    
C35   H7    1.083131 S    
N8    O60   1.301253 A    
O47   C23   1.278587 A    
C83   C87   1.394995 A    
C81   C85   1.392034 A    
C33   C37   1.392772 A    
C59   C60   1.387094 A    
O21   C9    1.271474 A    
O8    Cr4   1.945184 S    
O23   Cr11  1.947189 S    
C48   C52   1.374246 A    
C39   C43   1.406984 A    
C30   C94   1.456831 S    
O30   C14   1.301327 A    
C25   C30   1.362768 D    
O32   Cr4   1.941227 S    
C81   H33   1.083038 S    
C65   H21   1.082641 S    
O44   Cr12  2.066823 S    
O7    C3    1.265839 A    
C1    O9    1.268773 A    
C2    C43   1.450171 S    
C84   C88   1.394891 A    
C11   C55   1.452955 S    
C27   C32   1.364702 D    
C62   C66   1.399440 A    
O45   Cr9   1.942163 S    
O11   Cr7   2.068378 S    
C68   H24   1.083368 S    
C9    C53   1.451105 S    
N6    O55   1.301323 A    
C67   C68   1.386037 A    
C59   N7    1.440055 S    
C20   C63   1.454959 S    
C67   H23   1.083369 S    
C27   H4    1.082685 S    
O3    Cr3   2.061262 S    
Cr4   O52   1.974249 S    
C26   H1    1.084276 S    
C87   H39   1.080977 S    
O2    Cr2   2.061589 S    
C37   H9    1.083159 S    
C23   C91   1.465890 S    
C48   H16   1.083573 S    
C87   C91   1.401892 A    
C19   C64   1.454975 S    
O2    C10   1.255844 A    
C72   C76   1.383284 A    
O42   Cr10  2.066823 S    
Cr5   O49   1.970572 S    
C94   N2    1.157539 T    
O18   Cr10  2.061913 S    
C17   C62   1.456219 S    
C33   H5    1.083096 S    
C58   C61   1.415123 A    
C50   H18   1.082389 S    
C3    O11   1.267849 A    
C71   C75   1.383316 A    
C60   C63   1.413821 A    
O8    C4    1.270998 A    
O34   Cr6   2.059377 S    
Cr7   O51   1.970572 S    
C20   O44   1.259678 A    
O6    Cr2   1.945184 S    
C83   H35   1.081192 S    
N5    O54   1.301720 A    
C73   H29   1.083891 S    
C59   C64   1.413862 A    
O24   Cr12  1.947153 S    
O9    Cr5   2.068378 S    
O30   Cr2   1.941227 S    
C74   C78   1.396472 A    
O22   C10   1.277323 A    
C37   C41   1.401566 A    
O48   Cr12  1.941769 S    
C4    O12   1.260784 A    
C2    O10   1.266095 A    
C13   C80   1.465526 S    
C69   C73   1.371574 A    
C40   C44   1.409460 A    
O16   Cr8   1.941503 S    
N8    O59   1.300934 A    
C15   O35   1.264454 A    
C73   C77   1.396515 A    
Cr10  O50   1.971194 S    
O29   Cr1   1.940851 S    
C10   C54   1.452186 S    
C28   C31   1.354524 D    
O13   C5    1.264222 A    
O40   C20   1.277375 A    
O43   Cr11  2.066856 S    
O48   C24   1.278745 A    
O12   Cr8   2.068364 S    
Cr9   O49   1.970684 S    
Cr12  O52   1.971194 S    
C46   H14   1.083028 S    
O37   Cr5   1.948726 S    
C42   C46   1.392767 A    
C45   H13   1.079741 S    
C35   C55   1.400444 A    
O46   Cr10  1.941769 S    
O39   Cr7   1.948726 S    
O13   Cr5   1.940984 S    
C80   C84   1.405527 A    
C47   H15   1.082692 S    
N7    O57   1.300934 A    
O3    C11   1.256766 A    
C52   H20   1.083055 S    
C21   C89   1.452439 S    
C13   O33   1.297146 A    
C6    C26   1.469565 S    
C49   C53   1.397390 A    
C85   H37   1.082373 S    
O7    Cr3   1.945660 S    
O47   Cr11  1.942163 S    
Cr2   O50   1.974249 S    
O15   Cr7   1.940984 S    
C12   C56   1.449687 S    
O35   Cr7   2.058779 S    
Cr1   O49   1.974238 S    
C82   H34   1.082980 S    
C6    O18   1.272173 A    
C57   C62   1.415461 A    
C49   H17   1.083797 S    
Cr3   O51   1.974238 S    
O14   Cr6   1.941503 S    
N7    O58   1.301267 A    
O21   Cr9   1.947189 S    
C74   H30   1.083854 S    
C7    O19   1.275006 A    
C79   C83   1.405549 A    
C8    C28   1.469159 S    
C8    O20   1.268800 A    
C71   H27   1.083308 S    
C34   C38   1.391861 A    
C52   C56   1.408027 A    
C50   C54   1.407221 A    
C69   H25   1.082080 S    
C38   H10   1.082497 S    
C36   H8    1.083298 S    
C70   C74   1.371462 A    
C26   C29   1.359296 D    
C36   C40   1.390054 A    
C16   C77   1.451493 S    
O26   Cr2   2.063477 S    
O25   Cr1   2.064041 S    
C76   C80   1.398283 A    
C5    O17   1.274246 A    
C45   C49   1.372280 A    
C33   C53   1.405770 A    
O22   Cr10  1.947153 S    
O28   C24   1.263243 A    
C47   C51   1.369321 A    
O14   C6    1.266129 A    
C19   O43   1.259623 A    
C86   C90   1.399198 A    
C78   C82   1.407465 A    
C64   C68   1.401918 A    
C85   C89   1.399206 A    
O17   Cr9   2.062223 S    
O37   C17   1.279740 A    
C24   C92   1.465762 S    
C75   H31   1.080646 S    
O24   C12   1.276330 A    
C17   O41   1.257899 A    
C41   C45   1.401504 A    
C31   C95   1.456249 S    
C46   C50   1.371288 A    
C14   O34   1.296993 A    
C51   H19   1.082926 S    
O40   Cr8   1.948747 S    
O29   C13   1.301450 A    
C72   C92   1.404632 A    
C25   H2    1.084122 S    
C88   H40   1.080973 S    
C76   H32   1.080651 S    
O1    Cr1   2.061262 S    
O19   Cr11  2.062223 S    
Cr8   O52   1.970044 S    
O32   C16   1.268909 A    
O41   Cr9   2.066856 S    
C57   C58   1.386924 A    
C60   N8    1.440052 S    
Cr6   O50   1.970044 S    
O46   C22   1.275691 A    
O45   C21   1.275581 A    
C63   C67   1.401927 A    
O23   C11   1.277245 A    
O31   Cr3   1.940851 S    
C44   C48   1.392418 A    
O33   Cr5   2.058779 S    
C34   H6    1.083206 S    
C75   C79   1.398314 A    
C7    C27   1.473792 S    
O10   Cr6   2.068364 S    
O5    Cr1   1.945660 S    
C93   N1    1.157551 T    
C57   N5    1.440435 S    
O4    Cr4   2.061589 S    
C15   C78   1.451370 S    
C51   C55   1.406123 A    
O6    C2    1.267581 A    
C70   H26   1.082078 S    
C29   C93   1.457022 S    
C4    C41   1.451919 S    
C82   C86   1.391954 A    
O28   Cr4   2.063477 S    
C16   O36   1.264300 A    
O38   C18   1.279532 A    
C88   C92   1.401847 A    
N6    O56   1.301448 A    
C66   H22   1.082659 S    
C58   N6    1.440508 S    
C1    C44   1.448304 S    
O27   C23   1.263104 A    
C14   C79   1.465658 S    
C39   H11   1.082452 S    
C77   C81   1.407551 A    
O36   Cr8   2.059377 S    
C3    C42   1.449521 S    
O31   C15   1.269108 A    
O16   C8    1.270161 A    
C61   C65   1.399514 A    
C84   H36   1.081175 S    
C28   H3    1.083081 S    
C36   C56   1.396389 A    
O38   Cr6   1.948747 S    
