data_mof_unit_35090.cif
_audit_creation_date              2012-12-10T17:30:16-0500
_audit_creation_method            fapswitch 2.2
_symmetry_space_group_name_H-M    P1
_symmetry_Int_Tables_number       1
_space_group_crystal_system       triclinic
_cell_length_a                    12.132941
_cell_length_b                    12.823125
_cell_length_c                    14.917637
_cell_angle_alpha                 91.33364
_cell_angle_beta                  87.649075
_cell_angle_gamma                 95.681062
_cell_volume                      2307.14473934

loop_
_atom_site_label
_atom_site_type_symbol
_atom_type_description
_atom_site_fract_x
_atom_site_fract_y
_atom_site_fract_z
_atom_type_partial_charge
C1    C     C_R   0.524195 0.700383 0.495956 0.938844
C2    C     C_R   0.362406 0.132028 0.474236 0.470762
C3    C     C_R   0.461500 0.865770 0.452740 0.012646
C4    C     C_R   0.539759 0.133952 0.544109 0.032532
C5    C     C_R   0.455170 0.972357 0.475117 -0.050688
C6    C     C_R   0.546335 0.027796 0.520582 -0.042945
C7    C     C_R   0.946553 0.406578 0.409764 -0.071758
C8    C     C_R   0.052830 0.583738 0.597622 -0.070719
C9    C     C_R   0.832787 0.419858 0.416386 0.624909
C10   C     C_R   0.167648 0.579406 0.584172 0.630401
C11   C     C_R   0.860571 0.531825 0.544736 0.094397
C12   C     C_R   0.475838 0.299608 0.503835 0.945307
C13   C     C_R   0.138783 0.465933 0.457145 0.091870
C14   C     C_R   0.977737 0.528751 0.537094 -0.076018
C15   C     C_R   0.021641 0.466663 0.466910 -0.076819
C16   C     C_R   0.501356 0.500770 0.672167 0.909926
C17   C     C_R   0.498571 0.498944 0.327816 0.914280
C18   C     C_R   0.459874 0.408037 0.186597 -0.012318
C19   C     C_R   0.534050 0.593232 0.813533 0.011667
C20   C     C_R   0.495960 0.500147 0.232654 -0.109431
C21   C     C_R   0.503060 0.499867 0.767360 -0.087184
C22   C     C_R   0.531512 0.593458 0.189420 0.015723
C23   C     C_R   0.561639 0.686359 0.954092 -0.271251
C24   C     C_R   0.465516 0.407003 0.810572 0.026432
C25   C     C_R   0.527551 0.596875 0.095231 -0.022672
C26   C     C_R   0.458332 0.406372 0.905138 -0.020540
C27   C     C_R   0.492077 0.502589 0.047344 -0.059754
C28   C     C_R   0.492939 0.500891 0.953063 -0.060317
C29   C     C_R   0.457826 0.409073 0.093557 0.080467
C30   C     C_R   0.529923 0.593746 0.906772 0.079957
C31   C     C_R   0.557595 0.690142 0.047200 0.503234
C32   C     C_R   0.417940 0.315706 0.953484 0.506820
C33   C     C_3   0.506320 0.852371 0.083604 -0.351869
C34   C     C_R   0.421872 0.317527 0.046372 -0.276374
C35   C     C_3   0.265743 0.202924 0.924705 -0.369941
C36   C     C_3   0.198715 0.183796 0.528419 -0.277202
C37   C     C_3   0.803173 0.813721 0.473426 -0.274892
C38   C     C_3   0.249609 0.739357 0.630014 -0.252092
C39   C     C_3   0.774809 0.399730 0.272180 -0.253283
C40   C     C_R   0.457194 0.186733 0.508701 -0.221495
C41   C     C_R   0.543238 0.813150 0.489773 -0.229764
C42   C     C_R   0.641594 0.975557 0.537627 0.038590
C43   C     C_R   0.360271 0.025032 0.457446 0.033323
C44   C     C_R   0.638569 0.868123 0.523259 0.474552
H1    H     H_    0.590543 0.757605 0.919145 0.192520
H2    H     H_    0.975017 0.704352 0.654691 0.213224
H3    H     H_    0.655006 0.705996 0.222763 0.228230
H4    H     H_    0.522250 0.741823 0.239843 0.231844
H5    H     H_    0.485495 0.255990 0.771679 0.237296
H6    H     H_    0.352576 0.291620 0.764019 0.222072
H7    H     H_    0.527085 0.922508 0.126883 0.200873
H8    H     H_    0.424120 0.814974 0.108121 0.154719
H9    H     H_    0.501398 0.879751 0.013856 0.182882
H10   H     H_    0.222154 0.271368 0.906132 0.162680
H11   H     H_    0.243284 0.180787 0.995181 0.177058
H12   H     H_    0.396236 0.245505 0.081271 0.190059
H13   H     H_    0.235832 0.135847 0.880879 0.196000
H14   H     H_    0.603138 0.143606 0.669572 0.180003
H15   H     H_    0.686204 0.210719 0.587398 0.206687
H16   H     H_    0.315302 0.789819 0.407846 0.190578
H17   H     H_    0.401174 0.854520 0.326357 0.175850
H18   H     H_    0.129886 0.230603 0.513415 0.178580
H19   H     H_    0.161828 0.103156 0.544267 0.165476
H20   H     H_    0.239744 0.220706 0.588322 0.161478
H21   H     H_    0.839768 0.893741 0.455280 0.171577
H22   H     H_    0.764098 0.773638 0.414004 0.165908
H23   H     H_    0.360679 0.323656 0.277428 0.204637
H24   H     H_    0.872140 0.768697 0.491817 0.177325
H25   H     H_    0.742239 0.053205 0.630463 0.187795
H26   H     H_    0.771594 0.088242 0.518980 0.187417
H27   H     H_    0.228167 0.913772 0.471727 0.160096
H28   H     H_    0.264089 0.948523 0.361127 0.188002
H29   H     H_    0.218790 0.471466 0.336146 0.206571
H30   H     H_    0.246828 0.370009 0.402014 0.272363
H31   H     H_    0.752316 0.630123 0.596456 0.273897
H32   H     H_    0.779353 0.530949 0.665180 0.207218
H33   H     H_    0.332484 0.773478 0.650801 0.175931
H34   H     H_    0.494396 0.294802 0.271695 0.193456
H35   H     H_    0.187141 0.776511 0.673005 0.168160
H36   H     H_    0.241902 0.760361 0.558727 0.124948
H37   H     H_    0.843120 0.363333 0.235778 0.162215
H38   H     H_    0.789250 0.486873 0.269322 0.140669
H39   H     H_    0.698651 0.375467 0.235341 0.186774
H40   H     H_    0.637464 0.676900 0.725035 0.201812
H41   H     H_    0.503492 0.704751 0.725429 0.189802
H42   H     H_    0.026986 0.359549 0.295083 0.202500
H43   H     H_    0.024323 0.274397 0.383387 0.222013
H44   H     H_    0.968947 0.592525 0.718643 0.214052
N1    N     N_R   0.207800 0.519350 0.516680 -0.177757
N2    N     N_3   0.396506 0.810777 0.384846 -0.451324
N3    N     N_3   0.745646 0.028202 0.563503 -0.441218
N4    N     N_3   0.257398 0.973489 0.427949 -0.436391
N5    N     N_3   0.185914 0.414530 0.381274 -0.470360
N6    N     N_3   0.812749 0.586096 0.618684 -0.470017
N7    N     N_R   0.792200 0.480650 0.483320 -0.177087
N8    N     N_3   0.428194 0.312436 0.233885 -0.470820
N9    N     N_3   0.567630 0.688281 0.765982 -0.469307
N10   N     N_3   0.980173 0.325961 0.349243 -0.437952
N11   N     N_3   0.017275 0.642217 0.674797 -0.441520
N12   N     N_3   0.573470 0.681536 0.243691 -0.449433
N13   N     N_3   0.437118 0.315416 0.755614 -0.450427
N14   N     N_3   0.605781 0.188312 0.611719 -0.449756
O1    O     O_R   0.421700 0.658830 0.504450 -0.595551
O2    O     O_3   0.381733 0.222319 0.910862 -0.626610
O3    O     O_3   0.272431 0.183576 0.452595 -0.603493
O4    O     O_3   0.727320 0.816484 0.547685 -0.605719
O5    O     O_3   0.241040 0.630027 0.643313 -0.567938
O6    O     O_3   0.759066 0.363016 0.360967 -0.571967
O7    O     O_R   0.578300 0.341170 0.495550 -0.569298
O8    O     O_R   0.609310 0.646410 0.493750 -0.615791
O9    O     O_R   0.390690 0.353590 0.506250 -0.618503
O10   O     O_R   0.406180 0.506230 0.637500 -0.560522
O11   O     O_R   0.593820 0.493770 0.362500 -0.588060
O12   O     O_R   0.593800 0.493820 0.626800 -0.659501
O13   O     O_R   0.406200 0.506180 0.373200 -0.654187
O14   O     O_3   0.590340 0.784420 0.089849 -0.625282
Zn1   Zn    Zn3+2 0.374730 0.508290 0.507150 0.962693
Zn2   Zn    Zn3+2 0.625270 0.491710 0.492850 0.962537

loop_
_geom_bond_atom_site_label_1
_geom_bond_atom_site_label_2
_ccdc_geom_bond_type
C25   C31   A    
H2    N11   S    
C26   C32   A    
C16   C21   S    
C23   H1    S    
C7    N10   S    
C27   C29   A    
C18   N8    S    
H26   N3    S    
H29   N5    S    
O8    Zn2   S    
C19   N9    S    
C17   O11   A    
C33   H8    S    
C34   H12   S    
C17   O13   A    
C3    N2    S    
H40   N9    S    
C19   C21   A    
C8    N11   S    
C24   C26   A    
C42   N3    S    
H5    N13   S    
C5    C6    A    
H28   N4    S    
C11   C14   A    
C38   H35   S    
C37   H24   S    
C17   C20   S    
C24   N13   S    
C38   O5    S    
H32   N6    S    
H27   N4    S    
C4    C40   A    
C10   N1    A    
H34   N8    S    
O13   Zn1   S    
C22   C25   A    
C4    N14   S    
C32   O2    S    
H14   N14   S    
C36   H19   S    
C9    N7    A    
H43   N10   S    
C7    C15   A    
C5    C43   A    
C35   H10   S    
H30   N5    S    
C10   O5    S    
O1    Zn1   S    
C42   C44   A    
C36   H18   S    
C12   O7    A    
O7    Zn2   S    
N7    Zn2   S    
C33   H9    S    
C39   O6    S    
H4    N12   S    
C22   N12   S    
C35   H11   S    
C23   C30   A    
C39   H37   S    
C4    C6    A    
C35   O2    S    
C29   C34   A    
H3    N12   S    
C37   H21   S    
C9    O6    S    
C32   C34   A    
C12   C40   S    
C1    O8    A    
C2    C43   A    
C37   H22   S    
C18   C29   A    
O12   Zn2   S    
C11   N6    S    
C1    C41   S    
N1    Zn1   S    
C44   O4    S    
C13   C15   A    
H23   N8    S    
C41   C44   A    
C33   H7    S    
C31   O14   S    
H17   N2    S    
C16   O10   A    
C11   N7    A    
C7    C9    A    
C1    O1    A    
C3    C41   A    
C33   O14   S    
C8    C14   A    
C13   N1    A    
C36   O3    S    
H15   N14   S    
C39   H38   S    
C20   C22   A    
C3    C5    A    
C16   O12   A    
C38   H33   S    
H16   N2    S    
C25   C27   A    
C2    O3    S    
C26   C28   A    
C43   N4    S    
O9    Zn1   S    
C35   H13   S    
C28   C30   A    
C39   H39   S    
C37   O4    S    
C36   H20   S    
O10   Zn1   S    
C38   H36   S    
C18   C20   A    
H42   N10   S    
H44   N11   S    
H41   N9    S    
O11   Zn2   S    
C2    C40   A    
H6    N13   S    
C8    C10   A    
C6    C42   A    
C21   C24   A    
C13   N5    S    
C27   C28   A    
C14   C15   A    
H25   N3    S    
C19   C30   A    
C12   O9    A    
H31   N6    S    
C23   C31   A    
