data_mof_unit_61911.cif
_audit_creation_date              2012-12-10T16:51:41-0500
_audit_creation_method            fapswitch 2.2
_symmetry_space_group_name_H-M    P1
_symmetry_Int_Tables_number       1
_space_group_crystal_system       triclinic
_cell_length_a                    30.102133
_cell_length_b                    30.106461
_cell_length_c                    21.844112
_cell_angle_alpha                 90.105095
_cell_angle_beta                  134.094869
_cell_angle_gamma                 89.877573
_cell_volume                      14217.683651

loop_
_atom_site_label
_atom_site_type_symbol
_atom_type_description
_atom_site_fract_x
_atom_site_fract_y
_atom_site_fract_z
_atom_type_partial_charge
C1    C     C_R   0.695700 0.809903 0.882518 1.003605
C2    C     C_R   0.312887 0.809971 0.117644 0.993647
C3    C     C_R   0.187171 0.310123 0.882414 0.966238
C4    C     C_R   0.812737 0.309989 0.117626 0.994005
C5    C     C_R   0.441135 0.793891 0.977021 -0.035418
C6    C     C_R   0.530802 0.794003 0.968743 -0.031657
C7    C     C_R   0.940274 0.293271 0.975269 -0.036121
C8    C     C_R   0.030014 0.293219 0.967413 -0.032525
C9    C     C_R   0.483188 0.673416 0.011031 -0.157651
C10   C     C_R   0.527516 0.673489 0.007786 -0.158141
C11   C     C_R   0.983392 0.172948 0.011675 -0.159356
C12   C     C_R   0.027804 0.172967 0.008536 -0.159604
C13   C     C_R   0.493566 0.832322 0.943169 -0.106332
C14   C     C_R   0.449191 0.832394 0.948169 -0.101012
C15   C     C_R   0.992195 0.331339 0.940401 -0.104720
C16   C     C_R   0.947813 0.331535 0.945349 -0.101186
C17   C     C_2   0.628304 0.873874 0.685330 0.274836
C18   C     C_2   0.443519 0.873810 0.315801 0.278332
C19   C     C_2   0.104632 0.416039 0.759363 0.246403
C20   C     C_2   0.943307 0.374226 0.314827 0.275886
C21   C     C_2   0.583912 0.899165 0.669509 0.105305
C22   C     C_2   0.414794 0.898494 0.331926 0.098660
C23   C     C_2   0.099986 0.412219 0.693516 0.113855
C24   C     C_2   0.914974 0.398431 0.332096 0.095176
C25   C     C_2   0.655280 0.836404 0.744408 -0.067402
C26   C     C_2   0.411105 0.836722 0.255433 -0.065449
C27   C     C_2   0.147616 0.387512 0.834094 -0.031772
C28   C     C_2   0.910988 0.337023 0.254818 -0.062086
C29   C     C_2   0.675904 0.844162 0.821509 -0.366758
C30   C     C_2   0.353514 0.844370 0.179161 -0.328509
C31   C     C_2   0.143379 0.343382 0.819889 -0.338953
C32   C     C_2   0.853110 0.344452 0.179006 -0.327231
C33   C     C_R   0.131784 0.752263 0.077134 -0.175287
C34   C     C_R   0.869108 0.745419 0.923788 -0.170528
C35   C     C_R   0.631516 0.249251 0.076962 -0.175865
C36   C     C_R   0.368418 0.248962 0.922890 -0.174435
C37   C     C_R   0.115366 0.750555 0.999773 -0.076164
C38   C     C_R   0.885062 0.750112 0.000576 -0.084127
C39   C     C_R   0.615176 0.250499 0.999621 -0.078843
C40   C     C_R   0.384760 0.250347 0.000234 -0.080011
C41   C     C_R   0.053622 0.748926 0.922301 -0.175800
C42   C     C_R   0.946655 0.754808 0.077640 -0.177654
C43   C     C_R   0.553377 0.251896 0.922099 -0.176443
C44   C     C_R   0.446552 0.251897 0.077738 -0.175712
C45   C     C_R   0.662262 0.750774 0.998206 0.965453
C46   C     C_R   0.337820 0.750880 0.001905 0.982070
C47   C     C_R   0.162352 0.250612 0.998461 0.950334
C48   C     C_R   0.837765 0.250812 0.001793 0.983592
C49   C     C_R   0.006765 0.748065 0.921223 0.032209
C50   C     C_R   0.993674 0.754251 0.078985 0.031021
C51   C     C_R   0.506418 0.251229 0.920848 0.031372
C52   C     C_R   0.493506 0.251291 0.078984 0.032106
C53   C     C_R   0.023308 0.750550 0.999812 0.013640
C54   C     C_R   0.977281 0.750435 0.000643 0.016489
C55   C     C_R   0.522995 0.250657 0.999530 0.013741
C56   C     C_R   0.476930 0.250612 0.000302 0.013701
C57   C     C_R   0.085989 0.753046 0.077716 0.063359
C58   C     C_R   0.914760 0.746384 0.922994 0.053535
C59   C     C_R   0.585744 0.250038 0.077586 0.064042
C60   C     C_R   0.414184 0.249806 0.922252 0.063037
C61   C     C_R   0.944039 0.744587 0.844094 0.387849
C62   C     C_R   0.056452 0.757261 0.156197 0.385746
C63   C     C_R   0.443536 0.250933 0.843416 0.386603
C64   C     C_R   0.556389 0.251185 0.156418 0.387023
C65   C     C_R   0.898608 0.743429 0.845649 -0.213477
C66   C     C_R   0.102087 0.756300 0.154993 -0.216368
C67   C     C_R   0.397972 0.249914 0.844740 -0.216648
C68   C     C_R   0.601957 0.250249 0.155098 -0.218330
C69   C     C_2   0.942253 0.626314 0.317756 -0.170156
C70   C     C_2   0.057636 0.626116 0.682867 -0.164557
C71   C     C_2   0.442254 0.126309 0.317746 -0.169272
C72   C     C_2   0.557567 0.126282 0.682563 -0.169379
C73   C     C_2   0.916204 0.603462 0.338658 0.228789
C74   C     C_2   0.083328 0.603603 0.660964 0.224901
C75   C     C_2   0.416210 0.103464 0.338663 0.227817
C76   C     C_2   0.583385 0.103609 0.660993 0.227449
C77   C     C_2   0.906807 0.661400 0.253346 -0.163366
C78   C     C_2   0.093097 0.661202 0.747290 -0.161484
C79   C     C_2   0.406809 0.161395 0.253335 -0.162452
C80   C     C_2   0.593050 0.161360 0.747026 -0.163402
C81   C     C_2   0.849536 0.653103 0.177020 -0.163548
C82   C     C_2   0.150773 0.653055 0.823044 -0.170372
C83   C     C_2   0.349531 0.153102 0.177020 -0.164964
C84   C     C_2   0.650583 0.153113 0.822975 -0.163157
C85   C     C_R   0.056732 0.562464 0.612774 0.852278
C86   C     C_R   0.943156 0.562436 0.387157 0.839559
C87   C     C_R   0.556725 0.062478 0.612749 0.839936
C88   C     C_R   0.443156 0.062436 0.387157 0.840909
C89   C     C_R   0.811187 0.689417 0.117708 0.863418
C90   C     C_R   0.188893 0.689415 0.882304 0.867367
C91   C     C_R   0.311187 0.189417 0.117708 0.866174
C92   C     C_R   0.688846 0.189425 0.882293 0.866438
C93   C     C_R   0.557805 0.938419 0.615383 0.893622
C94   C     C_R   0.442464 0.938189 0.385102 0.901301
C95   C     C_R   0.060797 0.441392 0.620674 0.924315
C96   C     C_R   0.942457 0.438208 0.385055 0.904481
C97   C     C_R   0.837038 0.750000 0.000237 0.875879
C98   C     C_R   0.163153 0.750187 0.999953 0.874104
C99   C     C_R   0.336901 0.250103 0.000060 0.876689
C100  C     C_R   0.663072 0.250148 0.999872 0.874648
C101  C     C_R   0.403619 0.793400 0.993998 0.358098
C102  C     C_R   0.583068 0.793718 0.979554 0.340888
C103  C     C_R   0.903007 0.293023 0.992606 0.358272
C104  C     C_R   0.082684 0.293139 0.979326 0.334216
C105  C     C_R   0.386416 0.752531 0.003267 -0.138450
C106  C     C_R   0.611560 0.752975 0.992394 -0.146280
C107  C     C_R   0.886195 0.252275 0.002833 -0.139068
C108  C     C_R   0.111654 0.252569 0.992767 -0.146927
C109  C     C_R   0.412157 0.712872 0.007738 -0.278055
C110  C     C_R   0.590786 0.713217 0.996997 -0.271675
C111  C     C_R   0.912107 0.212546 0.007846 -0.279721
C112  C     C_R   0.091032 0.212730 0.997512 -0.270248
C113  C     C_R   0.455310 0.713235 0.002320 0.129111
C114  C     C_R   0.544230 0.713370 0.995635 0.128549
C115  C     C_R   0.955158 0.212752 0.002217 0.129964
C116  C     C_R   0.044255 0.212781 0.995790 0.127561
C117  C     C_R   0.470086 0.753723 0.986898 0.036043
C118  C     C_R   0.514788 0.753806 0.983273 0.037513
C119  C     C_R   0.969545 0.253104 0.985940 0.035793
C120  C     C_R   0.014307 0.253115 0.982477 0.037152
H1    H     H_    0.042952 0.747308 0.863673 0.197064
H2    H     H_    0.957303 0.757932 0.136104 0.203046
H3    H     H_    0.542639 0.252508 0.863386 0.199576
H4    H     H_    0.457298 0.252616 0.136457 0.199763
H5    H     H_    0.850482 0.740458 0.786148 0.202189
H6    H     H_    0.150284 0.758324 0.214638 0.200275
H7    H     H_    0.349717 0.249411 0.784963 0.200037
H8    H     H_    0.650216 0.249887 0.214877 0.198215
H9    H     H_    0.986621 0.616680 0.341090 0.183665
H10   H     H_    0.013734 0.616124 0.660551 0.187967
H11   H     H_    0.486616 0.116667 0.341065 0.184127
H12   H     H_    0.513521 0.116435 0.659933 0.183175
H13   H     H_    0.926592 0.694510 0.270235 0.190644
H14   H     H_    0.072919 0.694197 0.730906 0.190947
H15   H     H_    0.426606 0.194501 0.270212 0.190663
H16   H     H_    0.573048 0.194424 0.730483 0.190671
H17   H     H_    0.398483 0.681704 0.015511 0.185386
H18   H     H_    0.613274 0.682241 0.005988 0.181967
H19   H     H_    0.898708 0.181468 0.016301 0.184518
H20   H     H_    0.113818 0.181830 0.006982 0.182671
H21   H     H_    0.471367 0.642306 0.021665 0.168695
H22   H     H_    0.549554 0.642437 0.016276 0.169875
H23   H     H_    0.971839 0.141916 0.022909 0.167072
H24   H     H_    0.050166 0.141961 0.017701 0.169397
H25   H     H_    0.677375 0.878059 0.840250 0.193194
H26   H     H_    0.334964 0.877986 0.161534 0.187859
H27   H     H_    0.105296 0.330834 0.755721 0.193517
H28   H     H_    0.834193 0.377963 0.161548 0.188022
H29   H     H_    0.180180 0.753833 0.136561 0.165711
H30   H     H_    0.821042 0.741845 0.864558 0.204761
H31   H     H_    0.679917 0.248527 0.136517 0.166115
H32   H     H_    0.320021 0.248125 0.863346 0.167778
O1    O     O_R   0.679230 0.769690 0.858450 -0.591945
O2    O     O_R   0.320770 0.769690 0.141550 -0.606955
O3    O     O_R   0.179230 0.269690 0.858450 -0.609656
O4    O     O_R   0.820770 0.269690 0.141550 -0.606938
O5    O     O_R   0.082500 0.545230 0.590410 -0.573638
O6    O     O_R   0.917500 0.545230 0.409590 -0.570351
O7    O     O_R   0.582500 0.045230 0.590410 -0.568318
O8    O     O_R   0.417500 0.045230 0.409590 -0.570301
O9    O     O_R   0.507930 0.954750 0.590450 -0.563413
O10   O     O_R   0.492070 0.954750 0.409550 -0.570157
O11   O     O_R   0.007930 0.454750 0.590450 -0.583832
O12   O     O_R   0.992070 0.454750 0.409550 -0.573181
O13   O     O_R   0.582530 0.954770 0.590430 -0.571281
O14   O     O_R   0.417470 0.954770 0.409570 -0.564098
O15   O     O_R   0.082530 0.454770 0.590430 -0.562446
O16   O     O_R   0.917470 0.454770 0.409570 -0.565871
O17   O     O_R   0.730270 0.820760 0.960570 -0.598287
O18   O     O_R   0.269730 0.820760 0.039430 -0.598969
O19   O     O_R   0.230270 0.320760 0.960570 -0.585875
O20   O     O_R   0.769730 0.320760 0.039430 -0.598569
O21   O     O_R   0.658400 0.724440 0.948940 -0.615911
O22   O     O_R   0.341600 0.724440 0.051060 -0.606035
O23   O     O_R   0.158400 0.224440 0.948940 -0.623252
O24   O     O_R   0.841600 0.224440 0.051060 -0.606761
O25   O     O_R   0.709450 0.775510 0.051050 -0.564966
O26   O     O_R   0.290550 0.775510 0.948950 -0.578243
O27   O     O_R   0.209450 0.275510 0.051050 -0.556648
O28   O     O_R   0.790550 0.275510 0.948950 -0.577779
O29   O     O_R   0.769710 0.679220 0.039380 -0.605743
O30   O     O_R   0.230290 0.679220 0.960620 -0.604584
O31   O     O_R   0.269710 0.179220 0.039380 -0.603180
O32   O     O_R   0.730290 0.179220 0.960620 -0.605214
O33   O     O_R   0.820750 0.730290 0.141500 -0.606895
O34   O     O_R   0.179250 0.730290 0.858500 -0.605105
O35   O     O_R   0.320750 0.230290 0.141500 -0.606648
O36   O     O_R   0.679250 0.230290 0.858500 -0.605379
O37   O     O_R   0.790530 0.724470 0.948890 -0.601064
O38   O     O_R   0.209470 0.724470 0.051110 -0.616812
O39   O     O_R   0.290530 0.224470 0.948890 -0.617788
O40   O     O_R   0.709470 0.224470 0.051110 -0.619219
O41   O     O_R   0.841580 0.775540 0.051010 -0.629599
O42   O     O_R   0.158420 0.775540 0.948990 -0.617956
O43   O     O_R   0.341580 0.275540 0.051010 -0.618389
O44   O     O_R   0.658420 0.275540 0.948990 -0.618199
O45   O     O_R   0.007900 0.545210 0.590430 -0.616321
O46   O     O_R   0.992100 0.545210 0.409570 -0.629180
O47   O     O_R   0.507900 0.045210 0.590430 -0.631465
O48   O     O_R   0.492100 0.045210 0.409570 -0.628301
Zn1   Zn    Zn3+2 0.715910 0.715890 0.931790 1.078706
Zn2   Zn    Zn3+2 0.284090 0.715890 0.068210 1.061425
Zn3   Zn    Zn3+2 0.215910 0.215890 0.931790 1.055783
Zn4   Zn    Zn3+2 0.784090 0.215890 0.068210 1.056283
Zn5   Zn    Zn3+2 0.784070 0.784090 0.068160 1.084020
Zn6   Zn    Zn3+2 0.215930 0.784090 0.931840 1.087396
Zn7   Zn    Zn3+2 0.284070 0.284090 0.068160 1.090190
Zn8   Zn    Zn3+2 0.715930 0.284090 0.931840 1.087898
Zn9   Zn    Zn3+2 0.450180 0.999980 0.499990 1.129119
Zn10  Zn    Zn3+2 0.549820 0.999980 0.500010 1.151752
Zn11  Zn    Zn3+2 0.950180 0.499980 0.499990 1.134259
Zn12  Zn    Zn3+2 0.049820 0.499980 0.500010 1.144547
Cl1   Cl    Cl    0.386766 0.842649 0.019739 -0.521402
Cl2   Cl    Cl    0.617466 0.843346 0.984647 -0.512434
Cl3   Cl    Cl    0.886106 0.342539 0.017684 -0.518935
Cl4   Cl    Cl    0.117139 0.343013 0.986040 -0.495327
Cl5   Cl    Cl    0.919978 0.741083 0.744017 -0.551383
Cl6   Cl    Cl    0.080420 0.761803 0.256109 -0.551005
Cl7   Cl    Cl    0.419390 0.251350 0.743144 -0.553027
Cl8   Cl    Cl    0.580534 0.251744 0.256690 -0.554852
Cl9   Cl    Cl    0.850118 0.624212 0.314649 -0.531007
Cl10  Cl    Cl    0.148520 0.624886 0.683423 -0.526305
Cl11  Cl    Cl    0.350139 0.124227 0.314680 -0.532142
Cl12  Cl    Cl    0.648852 0.124684 0.683942 -0.529280
C121  C     C_2   0.825584 0.606743 0.146101 0.991757
O49   O     O_2   0.770507 0.599076 0.100476 -0.573550
O50   O     O_R   0.865676 0.572308 0.167700 -0.791866
H33   H     H_    0.843809 0.542659 0.142944 0.357686
C122  C     C_2   0.175497 0.606775 0.853610 0.995907
O51   O     O_2   0.230613 0.599510 0.898584 -0.562677
O52   O     O_R   0.136136 0.571962 0.832501 -0.766620
H34   H     H_    0.158518 0.542433 0.856984 0.385983
C123  C     C_2   0.325562 0.106745 0.146108 0.992010
O53   O     O_2   0.270485 0.099089 0.100501 -0.573855
O54   O     O_R   0.365638 0.072300 0.167694 -0.792225
H35   H     H_    0.343761 0.042654 0.142945 0.357340
C124  C     C_2   0.674963 0.106788 0.853611 0.990974
O55   O     O_2   0.730047 0.099284 0.898749 -0.574796
O56   O     O_R   0.635289 0.072203 0.832352 -0.792943
H36   H     H_    0.657426 0.042598 0.856878 0.357693
C125  C     C_2   0.492750 0.869388 0.897695 1.016058
O57   O     O_2   0.476804 0.862340 0.829558 -0.545034
O58   O     O_R   0.510789 0.911986 0.933130 -0.702146
H37   H     H_    0.508419 0.934263 0.896189 0.369501
C126  C     C_2   0.404707 0.869939 0.909540 1.007332
O59   O     O_2   0.349641 0.863282 0.847811 -0.572422
O60   O     O_R   0.425671 0.912528 0.944370 -0.702894
H38   H     H_    0.390913 0.935135 0.912610 0.364938
C127  C     C_2   0.990785 0.367781 0.893349 1.015838
O61   O     O_2   0.976244 0.359670 0.826447 -0.566612
O62   O     O_R   0.006931 0.410962 0.926074 -0.695842
H39   H     H_    0.004535 0.432657 0.888412 0.378003
C128  C     C_2   0.902820 0.368789 0.905648 1.007587
O63   O     O_2   0.847851 0.361667 0.844125 -0.574280
O64   O     O_R   0.923179 0.411628 0.939343 -0.699794
H40   H     H_    0.888107 0.433993 0.906958 0.365731
Cl13  Cl    Cl    0.657448 0.882910 0.638462 -0.469521
Cl14  Cl    Cl    0.519807 0.883753 0.362455 -0.445744
Cl15  Cl    Cl    0.064611 0.457008 0.763736 -0.509681
Cl16  Cl    Cl    0.018598 0.385184 0.358597 -0.466762
Cl17  Cl    Cl    0.547222 0.882429 0.703504 -0.498407
Cl18  Cl    Cl    0.344672 0.880534 0.299284 -0.552875
Cl19  Cl    Cl    0.151454 0.378609 0.699167 -0.539927
Cl20  Cl    Cl    0.845713 0.379716 0.301199 -0.561765
C129  C     C_2   0.660752 0.793264 0.716803 1.033751
O65   O     O_2   0.706556 0.769910 0.767195 -0.647751
O66   O     O_R   0.614468 0.780675 0.631215 -0.717867
H41   H     H_    0.623588 0.751188 0.619339 0.362825
C130  C     C_2   0.445310 0.794405 0.278506 1.044136
O67   O     O_2   0.480451 0.780790 0.351839 -0.550366
O68   O     O_R   0.439836 0.771406 0.217853 -0.775948
H42   H     H_    0.466098 0.743500 0.241795 0.351574
C131  C     C_2   0.195005 0.409634 0.918203 1.036493
O69   O     O_2   0.223345 0.441473 0.924994 -0.592191
O70   O     O_R   0.204623 0.396237 0.987859 -0.701623
H43   H     H_    0.237332 0.414610 0.040786 0.353856
C132  C     C_2   0.945571 0.294963 0.277488 1.041541
O71   O     O_2   0.981528 0.281485 0.350968 -0.560920
O72   O     O_R   0.939510 0.272072 0.216251 -0.775441
H44   H     H_    0.966121 0.244353 0.239964 0.351714

loop_
_geom_bond_atom_site_label_1
_geom_bond_atom_site_label_2
_ccdc_geom_bond_type
C94   O10   A    
C79   C83   D    
C55   C56   A    
C126  O60   S    
O32   Zn4   S    
C55   C59   A    
C70   C78   S    
C112  H20   S    
C69   C77   S    
C84   C124  S    
C18   C26   S    
C87   O47   A    
C57   C66   A    
C98   O38   A    
C43   C51   A    
C94   O14   A    
C40   C99   S    
C71   C79   S    
C34   H30   S    
C111  H19   S    
C28   C132  S    
C35   H31   S    
C71   C75   D    
C53   C54   A    
C76   Cl12  S    
C12   H24   S    
O8    Zn9   S    
C8    C120  A    
C127  O61   D    
C50   C54   A    
O7    Zn10  S    
C77   H13   S    
C23   C95   S    
C64   C68   A    
C35   C59   A    
O56   H36   S    
C61   Cl5   S    
O15   Zn12  S    
C38   C42   A    
C121  O50   S    
C67   H7    S    
C24   C96   S    
O14   Zn9   S    
O17   Zn5   S    
C128  O63   D    
O12   Zn12  S    
C17   Cl13  S    
C96   O12   A    
O13   Zn10  S    
O23   Zn3   S    
C48   C107  S    
C63   Cl7   S    
O68   H42   S    
C26   C130  S    
C46   C105  S    
C99   O43   A    
C70   H10   S    
C129  O65   D    
C130  O67   D    
C98   O42   A    
C109  H17   S    
C125  O57   D    
C10   H22   S    
C97   O41   A    
C46   O26   A    
C9    C10   A    
C47   O27   A    
C20   Cl16  S    
C122  O52   S    
O33   Zn5   S    
O30   Zn2   S    
C102  Cl2   S    
C13   C125  S    
O70   H43   S    
C60   C67   A    
C101  Cl1   S    
C97   O37   A    
C6    C13   A    
C7    C119  A    
O58   H37   S    
C70   C74   D    
C33   C57   A    
O54   H35   S    
C96   O16   A    
C69   C73   D    
C111  C115  A    
C93   O9    A    
C19   C27   S    
C123  O53   D    
C110  C114  A    
C10   C114  A    
C45   O25   A    
C27   C131  S    
C14   C126  S    
C31   H27   S    
C44   C52   A    
C104  C108  A    
C6    C102  A    
C93   O13   A    
O24   Zn4   S    
C2    O2    A    
C7    C103  A    
C132  O71   D    
C101  C105  A    
C22   C94   S    
O16   Zn11  S    
C100  O40   A    
O39   Zn3   S    
C79   H15   S    
C38   C97   S    
O3    Zn3   S    
C28   C32   D    
C41   C49   A    
C37   C98   S    
O2    Zn2   S    
C30   H26   S    
O1    Zn1   S    
C100  O44   A    
C11   H23   S    
C25   C29   D    
O5    Zn12  S    
O42   Zn6   S    
C39   C100  S    
O27   Zn7   S    
C127  O62   S    
C49   C61   A    
C15   C16   A    
C62   C66   A    
C27   C31   D    
C80   C84   D    
C90   O30   A    
C36   C40   A    
C19   Cl15  S    
C51   C63   A    
C104  Cl4   S    
O62   H39   S    
C52   C64   A    
C129  O66   S    
C130  O68   S    
C64   Cl8   S    
C36   H32   S    
O21   Zn1   S    
C39   C43   A    
C20   C28   S    
O37   Zn1   S    
C6    C118  A    
O9    Zn9   S    
C44   H4    S    
O48   Zn10  S    
C116  C120  A    
C5    C117  A    
C125  O58   S    
C124  O55   D    
C65   H5    S    
O44   Zn8   S    
C19   C23   D    
C63   C67   A    
C122  O51   D    
O45   Zn11  S    
C45   O21   A    
C59   C68   A    
C29   H25   S    
O20   Zn8   S    
C123  O54   S    
C16   C128  S    
C78   C82   D    
C58   C65   A    
O50   H33   S    
C61   C65   A    
O22   Zn2   S    
C23   Cl19  S    
O72   H44   S    
C87   O7    A    
O46   Zn12  S    
C24   Cl20  S    
C54   C58   A    
C131  O69   D    
O40   Zn4   S    
C72   C76   D    
C114  C118  A    
C82   C90   S    
C119  C120  A    
C1    O1    A    
C8    C104  A    
C76   C87   S    
C5    C14   A    
C4    C32   S    
C81   C121  S    
C42   C50   A    
C113  C117  A    
C3    C31   S    
C110  H18   S    
C21   Cl17  S    
C7    C16   A    
C4    O4    A    
C82   C122  S    
C2    O18   A    
O26   Zn6   S    
C8    C15   A    
C115  C119  A    
C124  O56   S    
C92   O32   A    
C68   H8    S    
C50   C62   A    
O35   Zn7   S    
C21   C93   S    
O11   Zn11  S    
C3    O3    A    
C83   C123  S    
C43   H3    S    
O10   Zn10  S    
O64   H40   S    
O4    Zn4   S    
C103  Cl3   S    
C48   O28   A    
C11   C115  A    
C45   C106  S    
C42   H2    S    
C128  O64   S    
C41   H1    S    
C106  C110  A    
C85   O45   A    
O6    Zn11  S    
C91   O35   A    
O36   Zn8   S    
C53   C57   A    
C4    O20   A    
C121  O49   D    
C91   O31   A    
C18   C22   D    
C107  C111  A    
O38   Zn2   S    
C62   Cl6   S    
C126  O59   D    
C17   C25   S    
C36   C60   A    
C95   O15   A    
C25   C129  S    
O60   H38   S    
C86   O6    A    
O18   Zn6   S    
C83   C91   S    
C32   H28   S    
C109  C113  A    
C86   O46   A    
C90   O34   A    
C34   C58   A    
C74   Cl10  S    
C80   H16   S    
C5    C101  A    
C73   Cl9   S    
C95   O11   A    
C2    C30   S    
O66   H41   S    
C89   O33   A    
C88   O48   A    
C132  O72   S    
C66   H6    S    
C81   C89   S    
C72   C80   S    
C33   H29   S    
C117  C118  A    
C72   H12   S    
C99   O39   A    
C3    O19   A    
C1    C29   S    
C105  C109  A    
C22   Cl18  S    
C69   H9    S    
C49   C53   A    
C35   C39   A    
O34   Zn6   S    
C1    O17   A    
C131  O70   S    
O25   Zn5   S    
C102  C106  A    
C51   C55   A    
C88   O8    A    
C74   C85   S    
C37   C41   A    
C77   C81   D    
C33   C37   A    
C73   C86   S    
C18   Cl14  S    
C9    H21   S    
O29   Zn1   S    
C71   H11   S    
C78   H14   S    
C47   O23   A    
C56   C60   A    
C75   C88   S    
C40   C44   A    
O43   Zn7   S    
O28   Zn8   S    
O41   Zn5   S    
C108  C112  A    
C47   C108  S    
C46   O22   A    
O52   H34   S    
C85   O5    A    
C9    C113  A    
C112  C116  A    
C103  C107  A    
O31   Zn3   S    
C84   C92   S    
O47   Zn9   S    
C34   C38   A    
C13   C14   A    
O19   Zn7   S    
C15   C127  S    
C20   C24   D    
C75   Cl11  S    
C92   O36   A    
C52   C56   A    
C11   C12   A    
C89   O29   A    
C48   O24   A    
C12   C116  A    
C26   C30   D    
C17   C21   D    
