data_mof_unit_12069.cif
_audit_creation_date              2012-12-10T17:09:15-0500
_audit_creation_method            fapswitch 2.2
_symmetry_space_group_name_H-M    P1
_symmetry_Int_Tables_number       1
_space_group_crystal_system       triclinic
_cell_length_a                    18.059708
_cell_length_b                    18.650489
_cell_length_c                    11.766957
_cell_angle_alpha                 90.568944
_cell_angle_beta                  76.529829
_cell_angle_gamma                 90.070194
_cell_volume                      3854.15490128

loop_
_atom_site_label
_atom_site_type_symbol
_atom_type_description
_atom_site_fract_x
_atom_site_fract_y
_atom_site_fract_z
_atom_type_partial_charge
C1    C     C_R   0.399844 0.100537 0.521584 0.833977
C2    C     C_R   0.602856 0.901992 0.477876 0.815288
C3    C     C_R   0.599870 0.100555 0.479054 0.836244
C4    C     C_R   0.397367 0.901875 0.521604 0.819263
C5    C     C_R   0.899572 0.600472 0.521908 0.826739
C6    C     C_R   0.099890 0.399209 0.478426 0.795327
C7    C     C_R   0.101660 0.599073 0.478363 0.831777
C8    C     C_R   0.900463 0.399153 0.520586 0.797081
C9    C     C_R   0.536017 0.003894 0.963538 0.045577
C10   C     C_R   0.464112 0.993737 0.036560 0.042684
C11   C     C_R   0.036544 0.499065 0.963055 0.041311
C12   C     C_R   0.963906 0.496308 0.036579 0.046137
C13   C     C_R   0.410672 0.988902 0.863653 0.038476
C14   C     C_R   0.589741 0.008554 0.136184 0.050211
C15   C     C_R   0.910075 0.492560 0.863863 0.047468
C16   C     C_R   0.090377 0.498226 0.135858 0.044026
C17   C     C_R   0.401152 0.985685 0.985257 -0.313548
C18   C     C_R   0.599297 0.010448 0.014529 -0.318471
C19   C     C_R   0.900360 0.492212 0.985764 -0.331260
C20   C     C_R   0.100202 0.499643 0.013931 -0.319363
C21   C     C_R   0.543193 0.008038 0.841177 0.309862
C22   C     C_R   0.456646 0.991416 0.159147 0.309652
C23   C     C_R   0.043867 0.504094 0.840654 0.297640
C24   C     C_R   0.956104 0.500837 0.159205 0.302906
C25   C     C_R   0.654073 0.159374 0.466557 -0.114179
C26   C     C_R   0.336698 0.848780 0.534949 -0.140668
C27   C     C_R   0.343902 0.158250 0.534865 -0.123766
C28   C     C_R   0.664035 0.849225 0.464023 -0.147473
C29   C     C_R   0.160164 0.654311 0.464036 -0.141849
C30   C     C_R   0.849301 0.337965 0.529842 -0.153260
C31   C     C_R   0.843389 0.658329 0.536190 -0.138788
C32   C     C_R   0.152803 0.338933 0.466426 -0.154303
C33   C     C_R   0.227238 0.786810 0.651384 -0.285178
C34   C     C_R   0.706943 0.269851 0.375350 -0.280042
C35   C     C_R   0.769918 0.782368 0.345381 -0.287000
C36   C     C_R   0.275797 0.259061 0.642073 -0.284886
C37   C     C_R   0.796965 0.226845 0.619555 -0.268064
C38   C     C_R   0.268940 0.716898 0.347185 -0.280335
C39   C     C_R   0.220108 0.237440 0.359552 -0.270701
C40   C     C_R   0.741651 0.729813 0.655327 -0.286889
C41   C     C_R   0.282351 0.840403 0.642189 0.472416
C42   C     C_R   0.656197 0.212388 0.381014 0.438755
C43   C     C_R   0.715277 0.836553 0.354846 0.471954
C44   C     C_R   0.328224 0.203094 0.635253 0.440001
C45   C     C_R   0.846217 0.284815 0.615991 0.450948
C46   C     C_R   0.209655 0.667680 0.353650 0.464405
C47   C     C_R   0.168526 0.293765 0.365962 0.450294
C48   C     C_R   0.800554 0.680139 0.648012 0.442039
C49   C     C_R   0.332229 0.806882 0.437800 -0.318766
C50   C     C_R   0.703452 0.162786 0.541679 -0.329598
C51   C     C_R   0.673073 0.813020 0.563302 -0.314863
C52   C     C_R   0.306520 0.169064 0.444742 -0.309888
C53   C     C_R   0.804133 0.331653 0.448553 -0.301634
C54   C     C_R   0.166069 0.694554 0.562168 -0.328281
C55   C     C_R   0.187471 0.325710 0.558813 -0.308052
C56   C     C_R   0.833259 0.693169 0.436045 -0.320688
C57   C     C_R   0.274608 0.756738 0.445684 0.111138
C58   C     C_R   0.752331 0.220615 0.537657 0.105804
C59   C     C_R   0.730650 0.762828 0.554828 0.109553
C60   C     C_R   0.254632 0.224749 0.452088 0.110904
C61   C     C_R   0.754996 0.273905 0.452747 0.116223
C62   C     C_R   0.222299 0.746141 0.553413 0.113085
C63   C     C_R   0.238636 0.269510 0.551913 0.109998
C64   C     C_R   0.778124 0.746010 0.444891 0.114157
Cu1   Cu    Cu3+1 0.507800 0.000000 0.383250 0.950632
Cu2   Cu    Cu3+1 0.492200 0.000000 0.616750 0.952610
Cu3   Cu    Cu3+1 0.007800 0.500000 0.383250 0.936986
Cu4   Cu    Cu3+1 0.992200 0.500000 0.616750 0.946514
H1    H     H_    0.638769 0.014570 0.173257 0.140274
H2    H     H_    0.361767 0.983060 0.826647 0.166016
H3    H     H_    0.139785 0.497548 0.173042 0.182240
H4    H     H_    0.860763 0.488866 0.826690 0.168661
H5    H     H_    0.703907 0.120441 0.603476 0.154210
H6    H     H_    0.373889 0.812997 0.355725 0.170264
H7    H     H_    0.318475 0.134637 0.367820 0.163339
H8    H     H_    0.635434 0.824073 0.647922 0.183075
H9    H     H_    0.126286 0.686339 0.645509 0.162952
H10   H     H_    0.806057 0.372565 0.383204 0.160071
H11   H     H_    0.868899 0.679924 0.350901 0.163861
H12   H     H_    0.175791 0.360088 0.635783 0.168730
H13   H     H_    0.793540 0.186864 0.686865 0.151120
H14   H     H_    0.310873 0.723731 0.265630 0.141520
H15   H     H_    0.233401 0.203878 0.281812 0.151607
H16   H     H_    0.705020 0.743159 0.739667 0.143709
H17   H     H_    0.188090 0.777373 0.734892 0.138519
H18   H     H_    0.706579 0.312877 0.314309 0.142001
H19   H     H_    0.806590 0.769628 0.260818 0.141736
H20   H     H_    0.266285 0.296094 0.715612 0.146760
H21   H     H_    0.344300 0.977189 0.038268 0.173034
H22   H     H_    0.656317 0.017533 0.961230 0.169458
H23   H     H_    0.843032 0.488630 0.039495 0.181800
H24   H     H_    0.157683 0.500646 0.960244 0.181350
N1    N     N_R   0.519530 0.000000 0.207810 -0.192666
N2    N     N_R   0.480470 1.000000 0.792190 -0.195003
N3    N     N_R   0.019530 0.500000 0.207810 -0.206568
N4    N     N_R   0.980470 0.500000 0.792190 -0.199195
O1    O     O_R   0.430030 0.075530 0.417420 -0.600588
O2    O     O_R   0.569970 0.924470 0.582580 -0.609086
O3    O     O_R   0.569970 0.075530 0.582580 -0.597487
O4    O     O_R   0.430030 0.924470 0.417420 -0.609476
O5    O     O_R   0.930030 0.575530 0.417420 -0.614592
O6    O     O_R   0.069970 0.424470 0.582580 -0.614369
O7    O     O_R   0.069970 0.575530 0.582580 -0.610601
O8    O     O_R   0.930030 0.424470 0.417420 -0.614485
O9    O     O_R   0.416860 0.075510 0.614610 -0.565215
O10   O     O_R   0.583140 0.924490 0.385390 -0.532190
O11   O     O_R   0.583140 0.075510 0.385390 -0.576730
O12   O     O_R   0.416860 0.924490 0.614610 -0.540856
O13   O     O_R   0.916860 0.575510 0.614610 -0.536383
O14   O     O_R   0.083140 0.424490 0.385390 -0.545064
O15   O     O_R   0.083140 0.575510 0.385390 -0.552750
O16   O     O_R   0.916860 0.424490 0.614610 -0.548219
N5    N     N_3   0.382190 0.976909 0.229321 -0.628713
H25   H     H_    0.367590 0.011067 0.301100 0.252032
H26   H     H_    0.378455 0.923022 0.252439 0.233232
N6    N     N_3   0.616652 0.026100 0.771999 -0.634742
H27   H     H_    0.631750 0.994165 0.697392 0.257510
H28   H     H_    0.616358 0.080617 0.753667 0.233140
N7    N     N_3   0.880901 0.513823 0.228565 -0.621424
H29   H     H_    0.866158 0.479197 0.298313 0.255678
H30   H     H_    0.875795 0.567404 0.254924 0.234498
N8    N     N_3   0.118305 0.519652 0.771298 -0.620674
H31   H     H_    0.133674 0.485911 0.699148 0.259982
H32   H     H_    0.121118 0.573568 0.748307 0.233057
O17   O     O_3   0.600961 0.213161 0.316514 -0.592474
C65   C     C_3   0.635238 0.206916 0.195968 0.067041
H33   H     H_    0.670893 0.157480 0.177746 0.130730
H34   H     H_    0.671040 0.254547 0.164633 0.135821
C66   C     C_3   0.572534 0.202343 0.128370 -0.296653
H35   H     H_    0.537633 0.153616 0.154978 0.232092
H36   H     H_    0.534541 0.249833 0.150067 0.228181
C67   C     C_3   0.605550 0.199943 0.996539 -0.924001
H37   H     H_    0.634885 0.251175 0.967063 0.264444
H38   H     H_    0.558907 0.191845 0.950667 0.258486
H39   H     H_    0.646884 0.155213 0.972639 0.255314
O18   O     O_3   0.286866 0.880855 0.739775 -0.607987
C68   C     C_3   0.222768 0.926664 0.773654 0.022536
H40   H     H_    0.219500 0.943814 0.865393 0.161114
H41   H     H_    0.167794 0.899485 0.773997 0.132135
C69   C     C_3   0.231859 0.993477 0.696760 -0.375907
H42   H     H_    0.288602 0.017308 0.691733 0.228638
H43   H     H_    0.227731 0.978383 0.606845 0.201232
C70   C     C_3   0.171483 0.049716 0.745970 -0.947834
H44   H     H_    0.113836 0.028418 0.747356 0.264578
H45   H     H_    0.181965 0.097928 0.690048 0.261550
H46   H     H_    0.174394 0.065678 0.836019 0.247441
O19   O     O_3   0.372765 0.199334 0.716359 -0.586806
C71   C     C_3   0.327648 0.179139 0.826275 0.061014
H47   H     H_    0.305679 0.123704 0.821166 0.142453
H48   H     H_    0.278806 0.216367 0.857072 0.132074
C72   C     C_3   0.376928 0.180996 0.915765 -0.291703
H49   H     H_    0.424327 0.141885 0.889771 0.227232
H50   H     H_    0.402062 0.235316 0.917575 0.227382
C73   C     C_3   0.330434 0.163388 0.038046 -0.945026
H51   H     H_    0.286015 0.204955 0.068067 0.264754
H52   H     H_    0.368401 0.162075 0.099927 0.262716
H53   H     H_    0.302533 0.110309 0.038228 0.252614
O20   O     O_3   0.709597 0.875133 0.257099 -0.597700
C74   C     C_3   0.773554 0.920737 0.221615 0.037597
H54   H     H_    0.772662 0.940891 0.133410 0.163034
H55   H     H_    0.828561 0.891710 0.211752 0.130075
C75   C     C_3   0.769897 0.985413 0.304861 -0.379808
H56   H     H_    0.713544 0.011632 0.318021 0.228365
H57   H     H_    0.777308 0.967206 0.391160 0.199880
C76   C     C_3   0.831447 0.040397 0.256501 -0.931830
H58   H     H_    0.888727 0.015579 0.243310 0.258504
H59   H     H_    0.827454 0.085870 0.319342 0.265538
H60   H     H_    0.823808 0.061529 0.172036 0.250375
O21   O     O_3   0.204929 0.626635 0.256366 -0.606390
C77   C     C_3   0.191260 0.670126 0.165036 0.057066
H61   H     H_    0.202866 0.636695 0.084141 0.167959
H62   H     H_    0.230583 0.716655 0.145830 0.129515
C78   C     C_3   0.108093 0.695575 0.189444 -0.341721
H63   H     H_    0.069291 0.648688 0.205028 0.248547
H64   H     H_    0.095220 0.730486 0.268684 0.202591
C79   C     C_3   0.092747 0.737532 0.086607 -0.944737
H65   H     H_    0.131133 0.784703 0.068037 0.258423
H66   H     H_    0.032927 0.756814 0.108167 0.256125
H67   H     H_    0.101583 0.702678 0.007436 0.261207
O22   O     O_3   0.886732 0.290626 0.702242 -0.604473
C80   C     C_3   0.963132 0.268861 0.657762 0.115737
H68   H     H_    0.997399 0.291144 0.716923 0.179763
H69   H     H_    0.987866 0.291317 0.570336 0.096481
C81   C     C_3   0.971197 0.186965 0.654583 -0.409764
H70   H     H_    0.949133 0.165453 0.743807 0.228057
H71   H     H_    0.937917 0.163151 0.595347 0.211972
C82   C     C_3   0.054162 0.164773 0.610115 -0.909552
H72   H     H_    0.076271 0.183974 0.519613 0.256186
H73   H     H_    0.058570 0.105428 0.609481 0.260616
H74   H     H_    0.089323 0.187537 0.667507 0.261922
O23   O     O_3   0.813816 0.650196 0.748959 -0.596741
C83   C     C_3   0.835556 0.704584 0.819585 0.051485
H75   H     H_    0.784753 0.735900 0.865263 0.147012
H76   H     H_    0.878534 0.741582 0.766772 0.127614
C84   C     C_3   0.870832 0.670158 0.911778 -0.284957
H77   H     H_    0.830086 0.630917 0.962385 0.227910
H78   H     H_    0.923830 0.641617 0.867670 0.228285
C85   C     C_3   0.890290 0.725946 0.995965 -0.971630
H79   H     H_    0.933574 0.764039 0.948159 0.255463
H80   H     H_    0.913745 0.698597 0.063364 0.258843
H81   H     H_    0.838460 0.756147 0.040315 0.262248
O24   O     O_3   0.139255 0.307178 0.269360 -0.603241
C86   C     C_3   0.065087 0.278113 0.285677 0.109165
H82   H     H_    0.033711 0.310827 0.233821 0.182506
H83   H     H_    0.031712 0.281629 0.377644 0.100581
C87   C     C_3   0.067794 0.200405 0.241543 -0.398365
H84   H     H_    0.099316 0.197900 0.148411 0.226957
H85   H     H_    0.097914 0.166342 0.293260 0.211246
C88   C     C_3   0.987692 0.170609 0.252787 -0.908640
H86   H     H_    0.955769 0.171376 0.345769 0.257380
H87   H     H_    0.991439 0.114398 0.220067 0.257961
H88   H     H_    0.956261 0.202809 0.200399 0.259552

loop_
_geom_bond_atom_site_label_1
_geom_bond_atom_site_label_2
_ccdc_geom_bond_type
C70   H46   S    
C6    C32   S    
C86   H82   S    
C76   H58   S    
C7    C29   S    
C2    C28   S    
O21   C77   S    
C14   C18   A    
C30   C45   A    
O19   C71   S    
C34   C42   A    
Cu4   O7    S    
C52   H7    S    
C9    C21   A    
C44   O19   S    
C81   H70   S    
C57   C62   A    
C80   H68   S    
C10   C22   A    
C15   C19   A    
C15   H4    S    
C68   H41   S    
C59   C64   A    
Cu4   N4    S    
C56   H11   S    
C5    O13   A    
C60   C63   A    
C32   C47   A    
Cu4   O6    S    
C75   H56   S    
C8    O16   A    
C34   H18   S    
C28   C51   A    
C87   H85   S    
C78   C79   S    
C13   H2    S    
C10   C17   A    
C70   H44   S    
C38   C57   A    
C11   C12   A    
C88   H88   S    
C49   C57   A    
C23   N4    A    
C40   C48   A    
Cu4   O16   S    
C72   C73   S    
C40   H16   S    
C25   C50   A    
C82   H74   S    
C33   H17   S    
C52   C60   A    
C42   O17   S    
C53   C61   A    
C27   C44   A    
C79   H67   S    
C77   H61   S    
N6    H28   S    
C67   H37   S    
C48   O23   S    
C55   C63   A    
C29   C46   A    
C72   H49   S    
C69   C70   S    
C85   H79   S    
C31   C56   A    
C36   C63   A    
C35   C43   A    
C9    C10   A    
C32   C55   A    
C73   H52   S    
C37   C58   A    
C45   O22   S    
Cu2   N2    S    
C66   C67   S    
Cu2   O12   S    
C43   O20   S    
C58   C61   A    
N7    H30   S    
C14   H1    S    
C76   H59   S    
C40   C59   A    
C7    O7    A    
C38   H14   S    
C6    O6    A    
Cu3   N3    S    
C6    O14   A    
C37   H13   S    
C16   H3    S    
C35   H19   S    
C21   N6    S    
C30   C53   A    
Cu3   O8    S    
C23   N8    S    
C75   H57   S    
C78   H64   S    
C68   C69   S    
C5    O5    A    
C11   C20   A    
C82   H73   S    
O24   C86   S    
O23   C83   S    
C18   H22   S    
C83   C84   S    
C67   H39   S    
C86   C87   S    
C3    C25   S    
C71   C72   S    
C17   H21   S    
C69   H42   S    
C73   H53   S    
C24   N3    A    
C1    O1    A    
C15   N4    A    
C87   H84   S    
C33   C62   A    
C54   C62   A    
C65   C66   S    
C3    O11   A    
C78   H63   S    
C2    O10   A    
C34   C61   A    
C36   H20   S    
Cu3   Cu4   S    
C47   O24   S    
N5    H26   S    
C83   H76   S    
Cu2   O3    S    
C75   C76   S    
C86   H83   S    
Cu3   O14   S    
C74   H54   S    
C26   C49   A    
C16   C20   A    
C85   H81   S    
C56   C64   A    
C88   H86   S    
C74   C75   S    
C51   H8    S    
C8    O8    A    
C2    O2    A    
C73   H51   S    
C35   C64   A    
Cu3   O15   S    
C79   H65   S    
C76   H60   S    
C31   C48   A    
C4    O4    A    
O20   C74   S    
C22   N1    A    
C84   H78   S    
C20   H24   S    
C51   C59   A    
Cu2   O9    S    
C37   C45   A    
Cu1   O10   S    
C27   C52   A    
Cu3   O5    S    
C39   C47   A    
N5    H25   S    
C80   C81   S    
C22   N5    S    
C70   H45   S    
C24   N7    S    
C65   H34   S    
C14   N1    A    
C19   H23   S    
Cu1   O4    S    
C71   H48   S    
O18   C68   S    
C25   C42   A    
C4    C26   S    
N7    H29   S    
C46   O21   S    
C29   C54   A    
C69   H43   S    
C68   H40   S    
C12   C24   A    
C28   C43   A    
C81   H71   S    
C81   C82   S    
C13   C17   A    
C13   N2    A    
C8    C30   S    
C83   H75   S    
C54   H9    S    
C74   H55   S    
C66   H35   S    
C33   C41   A    
C82   H72   S    
C55   H12   S    
C16   N3    A    
C87   C88   S    
Cu2   O2    S    
O17   C65   S    
C77   H62   S    
C65   H33   S    
C39   C60   A    
C50   H5    S    
C12   C19   A    
C11   C23   A    
Cu1   N1    S    
C88   H87   S    
C7    O15   A    
N6    H27   S    
C53   H10   S    
Cu4   O13   S    
C72   H50   S    
C38   C46   A    
C36   C44   A    
C39   H15   S    
C84   H77   S    
C84   C85   S    
C3    O3    A    
C9    C18   A    
C80   H69   S    
Cu1   O1    S    
C67   H38   S    
Cu1   Cu2   S    
C21   N2    A    
C1    C27   S    
C49   H6    S    
C85   H80   S    
C4    O12   A    
C66   H36   S    
N8    H31   S    
N8    H32   S    
C71   H47   S    
Cu1   O11   S    
C41   O18   S    
O22   C80   S    
C50   C58   A    
C26   C41   A    
C1    O9    A    
C79   H66   S    
C5    C31   S    
C77   C78   S    
