data_mof_unit_32022.cif
_audit_creation_date              2012-12-10T20:27:51-0500
_audit_creation_method            fapswitch 2.2
_symmetry_space_group_name_H-M    P1
_symmetry_Int_Tables_number       1
_space_group_crystal_system       triclinic
_cell_length_a                    12.844882
_cell_length_b                    10.614797
_cell_length_c                    9.894962
_cell_angle_alpha                 89.682071
_cell_angle_beta                  97.564632
_cell_angle_gamma                 90.303341
_cell_volume                      1337.36034683

loop_
_atom_site_label
_atom_site_type_symbol
_atom_type_description
_atom_site_fract_x
_atom_site_fract_y
_atom_site_fract_z
_atom_type_partial_charge
C1    C     C_R   0.501044 0.260497 0.500310 0.879581
C2    C     C_R   0.028793 0.476339 0.560107 0.177456
C3    C     C_R   0.971412 0.530419 0.442524 0.174587
C4    C     C_R   0.864358 0.542733 0.436098 -0.234491
C5    C     C_R   0.870753 0.449722 0.662629 -0.177816
C6    C     C_R   0.978614 0.437781 0.670518 -0.185723
C7    C     C_R   0.590400 0.063970 0.557307 -0.047268
C8    C     C_R   0.502061 0.128649 0.497880 -0.021829
C9    C     C_R   0.421536 0.065502 0.415557 -0.209009
C10   C     C_R   0.421436 0.935106 0.414390 -0.199106
C11   C     C_R   0.501741 0.871237 0.495821 -0.055565
C12   C     C_R   0.298193 0.500084 0.472995 0.882173
C13   C     C_R   0.589761 0.935477 0.556857 -0.001278
C14   C     C_3   0.650655 0.925713 0.695639 -0.119465
C15   C     C_3   0.653031 0.069249 0.695740 0.435480
C16   C     C_R   0.491163 0.389818 0.069422 0.170559
C17   C     C_R   0.516725 0.607977 0.074140 -0.108754
C18   C     C_R   0.516259 0.608086 0.930441 -0.107912
C19   C     C_R   0.493785 0.389571 0.927946 0.242667
C20   C     C_3   0.409135 0.293128 0.903551 -0.484649
C21   C     C_3   0.403770 0.294220 0.056080 -0.062121
C22   C     C_R   0.500079 0.739469 0.499420 0.891980
C23   C     C_R   0.701778 0.500780 0.527170 0.891458
C24   C     C_R   0.814079 0.499827 0.544226 -0.038025
C25   C     C_R   0.185903 0.504001 0.456973 -0.047601
C26   C     C_R   0.021742 0.570085 0.332684 -0.190588
C27   C     C_R   0.129515 0.557393 0.340233 -0.162298
C28   C     C_R   0.135610 0.462146 0.565601 -0.253735
H1    H     H_    0.819894 0.583650 0.345724 0.162745
H2    H     H_    0.732016 0.112260 0.694977 0.102665
H3    H     H_    0.528855 0.695584 0.129265 0.160282
H4    H     H_    0.527713 0.695835 0.878508 0.155472
H5    H     H_    0.338241 0.330082 0.839296 0.216873
H6    H     H_    0.437461 0.202217 0.868087 0.257056
H7    H     H_    0.428669 0.203464 0.106598 0.164462
H8    H     H_    0.831476 0.416339 0.746496 0.172182
H9    H     H_    0.978153 0.611909 0.242410 0.155359
H10   H     H_    0.022360 0.397035 0.761314 0.164551
H11   H     H_    0.168917 0.592156 0.257120 0.182835
H12   H     H_    0.179855 0.420164 0.655521 0.162519
H13   H     H_    0.357109 0.116467 0.358403 0.166951
H14   H     H_    0.356852 0.884636 0.356698 0.152992
H15   H     H_    0.603979 0.884055 0.771815 0.182913
N1    N     N_R   0.499290 0.499140 0.142710 -0.100096
N2    N     N_R   0.499290 0.499180 0.857070 -0.109957
O1    O     O_R   0.500010 0.316790 0.614690 -0.578519
O2    O     O_R   0.500000 0.316760 0.385350 -0.623461
O3    O     O_R   0.346360 0.499990 0.595720 -0.625096
O4    O     O_R   0.346350 0.499960 0.366370 -0.590219
O5    O     O_R   0.500000 0.683240 0.614650 -0.625351
O6    O     O_R   0.499990 0.683210 0.385310 -0.627487
O7    O     O_R   0.653650 0.500040 0.633630 -0.606240
O8    O     O_R   0.653640 0.500010 0.404280 -0.623011
Zn1   Zn    Zn3+2 0.500010 0.500020 0.653130 0.983088
Zn2   Zn    Zn3+2 0.499990 0.499980 0.346870 0.976150
I1    I     I_    0.801075 0.842080 0.688718 -0.383521
F1    F     F_    0.597174 0.119049 0.792812 -0.677791
I2    I     I_    0.253276 0.359299 0.095895 -0.387056

loop_
_geom_bond_atom_site_label_1
_geom_bond_atom_site_label_2
_ccdc_geom_bond_type
C8    C9    A    
C14   I1    S    
C23   C24   S    
C6    H10   S    
C26   H9    S    
C12   O4    A    
C16   C21   S    
C21   H7    S    
C10   H14   S    
C1    C8    S    
C11   C13   A    
C9    C10   A    
C16   N1    A    
C11   C22   S    
C9    H13   S    
C19   C20   S    
C22   O5    A    
C12   C25   S    
C12   O3    A    
C20   H6    S    
O1    Zn1   S    
C7    C15   S    
C17   C18   A    
C23   O7    A    
C17   N1    A    
C21   I2    S    
C2    C6    A    
C13   C14   S    
C25   C28   A    
O3    Zn1   S    
C15   F1    S    
N1    Zn2   S    
C26   C27   A    
O5    Zn1   S    
C5    C24   A    
C16   C19   A    
C4    C24   A    
C20   H5    S    
O7    Zn1   S    
N2    Zn1   S    
C23   O8    A    
C2    C3    A    
O8    Zn2   S    
C5    C6    A    
C17   H3    S    
C1    O1    A    
C18   H4    S    
C10   C11   A    
C28   H12   S    
C3    C4    A    
C5    H8    S    
C7    C13   A    
C20   C21   S    
C15   H2    S    
O2    Zn2   S    
C18   N2    A    
C7    C8    A    
C14   C15   S    
C22   O6    A    
C2    C28   A    
O6    Zn2   S    
O4    Zn2   S    
C3    C26   A    
C1    O2    A    
C19   N2    A    
C4    H1    S    
C27   H11   S    
C14   H15   S    
C25   C27   A    
