data_mof_unit_62362.cif
_audit_creation_date              2012-12-10T16:48:52-0500
_audit_creation_method            fapswitch 2.2
_symmetry_space_group_name_H-M    P1
_symmetry_Int_Tables_number       1
_space_group_crystal_system       triclinic
_cell_length_a                    18.412974
_cell_length_b                    18.41394
_cell_length_c                    18.408705
_cell_angle_alpha                 119.714068
_cell_angle_beta                  119.610729
_cell_angle_gamma                 90.592224
_cell_volume                      4435.47020817

loop_
_atom_site_label
_atom_site_type_symbol
_atom_type_description
_atom_site_fract_x
_atom_site_fract_y
_atom_site_fract_z
_atom_type_partial_charge
C1    C     C_R   0.138440 0.361416 0.999614 0.844661
C2    C     C_2   0.803155 0.690874 0.998617 -0.287565
C3    C     C_2   0.721607 0.279799 0.444576 -0.096624
C4    C     C_R   0.861137 0.638148 0.999737 0.860534
C5    C     C_2   0.703179 0.192143 0.387021 -0.198152
C6    C     C_2   0.785764 0.331619 0.555630 -0.323558
C7    C     C_2   0.788238 0.306800 0.614341 0.304484
C8    C     C_2   0.337350 0.281192 0.057317 -0.152693
C9    C     C_2   0.304631 0.192288 0.001329 -0.287071
C10   C     C_2   0.281128 0.337356 0.059791 -0.150114
C11   C     C_2   0.192277 0.304510 0.995562 -0.290390
C12   C     C_3   0.712901 0.320376 0.973502 -0.383746
C13   C     C_2   0.218331 0.782668 0.945569 -0.118269
C14   C     C_2   0.304436 0.794300 0.989142 -0.187238
C15   C     C_2   0.165357 0.720587 0.941140 -0.326835
C16   C     C_R   0.138518 0.638851 0.276990 0.856313
C17   C     C_2   0.193368 0.715883 0.020809 0.267047
C18   C     C_2   0.218949 0.778758 0.556307 -0.153813
C19   C     C_2   0.307781 0.803170 0.612241 -0.283028
C20   C     C_2   0.162680 0.719952 0.443919 -0.163328
C21   C     C_2   0.195355 0.696969 0.387715 -0.271727
C22   C     C_R   0.639969 0.138349 0.276901 0.857054
C23   C     C_3   0.800841 0.300444 0.999491 0.099876
C24   C     C_R   0.361652 0.861147 0.722997 0.851476
C25   C     C_R   0.638920 0.861825 0.000406 0.845434
C26   C     C_R   0.361475 0.138404 0.000251 0.857142
C27   C     C_R   0.359435 0.857526 0.998027 0.868635
C28   C     C_R   0.859207 0.361466 0.723045 0.755337
C29   C     C_R   0.641548 0.141314 0.000057 0.776077
C30   C     C_R   0.140497 0.643591 0.003011 0.742909
C31   C     C_R   0.858478 0.358507 0.999738 0.786922
C32   C     C_3   0.777594 0.200644 0.918861 -0.388156
C33   C     C_3   0.718557 0.141414 0.919316 -0.484687
C34   C     C_3   0.699444 0.198998 0.000029 0.071330
C35   C     C_3   0.849269 0.317058 0.105993 -0.433358
C36   C     C_3   0.789842 0.257478 0.106573 0.506655
C37   C     C_3   0.653070 0.260395 0.973151 -0.366031
C38   C     C_2   0.721339 0.777366 0.940036 -0.157096
C39   C     C_2   0.696912 0.809122 0.004518 -0.285866
C40   C     C_2   0.780071 0.723746 0.942651 -0.150943
F1    F     F_    0.776962 0.310448 0.182029 -0.652914
H1    H     H_    0.839412 0.183960 0.935540 0.188899
H2    H     H_    0.834917 0.392496 0.590349 0.160971
H3    H     H_    0.742258 0.186417 0.841255 0.204794
H4    H     H_    0.408482 0.315071 0.104684 0.182757
H5    H     H_    0.234584 0.156121 0.955404 0.153540
H6    H     H_    0.314937 0.408582 0.116201 0.185387
H7    H     H_    0.156154 0.234366 0.936481 0.154307
H8    H     H_    0.185762 0.815184 0.908950 0.182989
H9    H     H_    0.335057 0.756812 0.019144 0.183202
H10   H     H_    0.103864 0.672693 0.866940 0.168500
H11   H     H_    0.185199 0.801551 0.593779 0.180071
H12   H     H_    0.637988 0.302745 0.029140 0.221488
H13   H     H_    0.655162 0.098701 0.841801 0.219690
H14   H     H_    0.343813 0.779905 0.578144 0.156500
H15   H     H_    0.091583 0.695878 0.406697 0.181109
H16   H     H_    0.265351 0.721519 0.421592 0.165148
H17   H     H_    0.752359 0.096672 0.936440 0.185466
H18   H     H_    0.912407 0.302610 0.125807 0.119758
H19   H     H_    0.824348 0.213877 0.125499 0.053130
H20   H     H_    0.727163 0.391311 0.030559 0.196418
H21   H     H_    0.677072 0.308951 0.897257 0.181409
H22   H     H_    0.588751 0.219487 0.896425 0.161175
H23   H     H_    0.866983 0.388221 0.165525 0.220963
H24   H     H_    0.727365 0.218158 0.699617 0.371017
H25   H     H_    0.196863 0.821345 0.205616 0.331916
H26   H     H_    0.698572 0.791819 0.883367 0.180195
H27   H     H_    0.720130 0.798473 0.063897 0.156003
H28   H     H_    0.803995 0.710239 0.895365 0.180359
H29   H     H_    0.778800 0.700557 0.044373 0.153793
H30   H     H_    0.694022 0.314966 0.409951 0.185318
H31   H     H_    0.736170 0.158536 0.421694 0.194570
O1    O     O_3   0.000000 0.500000 0.000000 -0.496450
O2    O     O_R   0.324760 0.053850 0.939900 -0.642311
O3    O     O_R   0.443270 0.883090 0.060070 -0.614360
O4    O     O_R   0.053940 0.324750 0.939940 -0.644051
O5    O     O_R   0.616890 0.176890 0.060090 -0.590324
O6    O     O_R   0.323100 0.883090 0.939900 -0.657127
O7    O     O_R   0.616910 0.056740 0.939940 -0.659454
O8    O     O_R   0.615250 0.885990 0.939940 -0.643900
O9    O     O_R   0.446110 0.175200 0.060060 -0.640038
O10   O     O_R   0.614030 0.053850 0.229160 -0.616341
O11   O     O_R   0.324790 0.884790 0.770830 -0.644929
O12   O     O_R   0.053880 0.613970 0.229150 -0.647793
O13   O     O_R   0.884790 0.613970 0.060060 -0.642434
O14   O     O_R   0.175250 0.615170 0.229170 -0.619881
O15   O     O_R   0.886020 0.446110 0.770840 -0.652428
O16   O     O_R   0.176940 0.616860 0.060100 -0.583762
O17   O     O_R   0.883150 0.323060 0.939910 -0.648638
O18   O     O_R   0.056770 0.616860 0.939930 -0.668638
O19   O     O_R   0.883130 0.443210 0.060060 -0.645883
O20   O     O_2   0.613408 0.206776 0.485855 -0.232391
O21   O     O_2   0.721321 0.135454 0.537681 -0.309186
O22   O     O_3   0.693633 0.248768 0.669823 -0.541090
O23   O     O_R   0.884840 0.324750 0.770840 -0.616526
O24   O     O_2   0.364336 0.780432 0.179193 -0.246941
O25   O     O_2   0.295101 0.890694 0.167272 -0.270648
O26   O     O_3   0.252598 0.807373 0.227569 -0.503671
O27   O     O_R   0.175280 0.446110 0.060100 -0.639756
O28   O     O_R   0.885990 0.615170 0.939900 -0.636369
O29   O     O_3   0.500040 0.999960 0.000000 -0.504372
O30   O     O_R   0.615200 0.175200 0.229160 -0.636828
O31   O     O_R   0.446160 0.885990 0.770850 -0.640787
O32   O     O_R   0.614060 0.884790 0.060100 -0.642078
S1    S     S_3+6 0.701275 0.220745 0.572371 0.057896
S2    S     S_3+6 0.279909 0.801792 0.150635 0.065948
Zn1   Zn    Zn3+2 0.956210 0.542060 0.085830 0.976917
Zn2   Zn    Zn3+2 0.129620 0.543770 0.085850 1.021310
Zn3   Zn    Zn3+2 0.957930 0.543770 0.914160 0.980487
Zn4   Zn    Zn3+2 0.956240 0.370390 0.914160 0.988973
Zn5   Zn    Zn3+2 0.543830 0.957900 0.914170 0.962168
Zn6   Zn    Zn3+2 0.542120 0.956180 0.085840 1.022373
Zn7   Zn    Zn3+2 0.370430 0.956180 0.914150 0.974750
Zn8   Zn    Zn3+2 0.543800 0.129560 0.085840 1.009035

loop_
_geom_bond_atom_site_label_1
_geom_bond_atom_site_label_2
_ccdc_geom_bond_type
O22   S1    S    
C16   C21   S    
O29   Zn8   S    
C34   C37   S    
O29   Zn7   S    
C39   H27   S    
O11   Zn7   S    
C3    H30   S    
C35   C36   S    
C1    C11   S    
C20   H15   S    
C27   O6    A    
C1    O27   A    
C11   H7    S    
C18   H11   S    
O1    Zn4   S    
O29   Zn6   S    
O27   Zn2   S    
C12   C23   S    
O3    Zn6   S    
C33   H17   S    
C28   O23   A    
C22   O10   A    
C35   H18   S    
C24   O11   A    
C5    H31   S    
C38   C39   D    
O16   Zn2   S    
O1    Zn1   S    
C25   O8    A    
C16   O12   A    
O12   Zn1   S    
O31   Zn5   S    
C18   C19   D    
C12   C37   S    
C8    H4    S    
O21   S1    D    
C5    C22   S    
C8    C9    D    
C31   O17   A    
O9    Zn8   S    
C7    S1    S    
C35   H23   S    
C15   H10   S    
C14   C27   S    
C18   C20   S    
C30   O18   A    
C37   H12   S    
C3    C6    S    
C9    H5    S    
C13   C14   D    
C16   O14   A    
C17   C30   S    
C36   F1    S    
C27   O3    A    
C37   H22   S    
C9    C26   S    
C40   H28   S    
O19   Zn1   S    
O32   Zn6   S    
O1    Zn2   S    
C4    O13   A    
C3    C5    D    
O2    Zn7   S    
O17   Zn4   S    
C7    C28   S    
O10   Zn6   S    
C2    C4    S    
C21   H16   S    
O30   Zn8   S    
C12   H21   S    
C29   O7    A    
C28   O15   A    
C33   C34   S    
C32   H3    S    
C38   H26   S    
C13   H8    S    
O25   S2    D    
O4    Zn4   S    
H24   O22   S    
C26   O9    A    
C31   O19   A    
C6    H2    S    
C13   C15   S    
O6    Zn7   S    
C30   O16   A    
O5    Zn8   S    
C19   H14   S    
C33   H13   S    
C15   C17   D    
O24   S2    D    
C1    O4    A    
O14   Zn2   S    
C36   H19   S    
O23   Zn4   S    
O26   S2    S    
C25   O32   A    
O1    Zn3   S    
C6    C7    D    
O15   Zn3   S    
O29   Zn5   S    
C23   C35   S    
C22   O30   A    
O7    Zn5   S    
C24   O31   A    
C32   C33   S    
H25   O26   S    
C4    O28   A    
C19   C24   S    
O13   Zn1   S    
C17   S2    S    
C23   C32   S    
C38   C40   S    
C12   H20   S    
C14   H9    S    
C29   C34   S    
O8    Zn5   S    
C26   O2    A    
C34   C36   S    
C10   C11   D    
C2    C40   D    
O20   S1    D    
O28   Zn3   S    
C29   O5    A    
C20   C21   D    
C8    C10   S    
C10   H6    S    
C32   H1    S    
O18   Zn3   S    
C2    H29   S    
C25   C39   S    
C23   C31   S    
