data_mof_unit_58735.cif
_audit_creation_date              2012-12-11T17:11:29-0500
_audit_creation_method            fapswitch 2.2
_symmetry_space_group_name_H-M    P1
_symmetry_Int_Tables_number       1
_space_group_crystal_system       triclinic
_cell_length_a                    14.98715
_cell_length_b                    6.941631
_cell_length_c                    13.657991
_cell_angle_alpha                 90.118434
_cell_angle_beta                  100.922818
_cell_angle_gamma                 89.876626
_cell_volume                      1395.16527763

loop_
_atom_site_label
_atom_site_type_symbol
_atom_type_description
_atom_site_fract_x
_atom_site_fract_y
_atom_site_fract_z
_atom_type_partial_charge
O1    O     O_R   0.398250 0.605080 0.401520 -0.537353
O2    O     O_R   0.898250 0.394920 0.901520 -0.543480
O3    O     O_R   0.584130 0.932110 0.405450 -0.523093
O4    O     O_R   0.084130 0.067890 0.905450 -0.522806
O5    O     O_R   0.601750 0.105090 0.598480 -0.538395
O6    O     O_R   0.101750 0.894910 0.098480 -0.534350
C1    C     C_R   0.615559 0.761974 0.387741 0.769409
C2    C     C_R   0.109879 0.238203 0.880951 0.763802
O7    O     O_R   0.397870 0.934620 0.389680 -0.539594
O8    O     O_R   0.897870 0.065380 0.889680 -0.542104
O9    O     O_R   0.414160 0.107620 0.582600 -0.550006
O10   O     O_R   0.914160 0.892380 0.082600 -0.544238
C3    C     C_R   0.363999 0.765742 0.362666 0.730224
C4    C     C_R   0.863948 0.234295 0.862714 0.713229
O11   O     O_R   0.585840 0.602550 0.417400 -0.522838
O12   O     O_R   0.085840 0.397450 0.917400 -0.525656
O13   O     O_3   0.505560 0.772440 0.563310 -0.380097
O14   O     O_3   0.005560 0.227560 0.063310 -0.375953
V1    V     V_3+5 0.498970 0.046250 0.488250 1.465317
V2    V     V_3+5 0.998970 0.953750 0.988250 1.455383
O15   O     O_R   0.415870 0.437500 0.594550 -0.540419
O16   O     O_R   0.915870 0.562500 0.094550 -0.551161
C5    C     C_R   0.390416 0.267673 0.618562 0.628876
C6    C     C_R   0.884022 0.731938 0.110765 0.629117
O17   O     O_R   0.602130 0.434980 0.610320 -0.544392
O18   O     O_R   0.102130 0.565020 0.110320 -0.538668
C7    C     C_R   0.635969 0.265902 0.637325 0.718151
C8    C     C_R   0.135971 0.734066 0.137311 0.745676
V3    V     V_3+5 0.501030 0.546580 0.511750 1.444303
V4    V     V_3+5 0.001030 0.453420 0.011750 1.428961
O19   O     O_3   0.494440 0.270520 0.436690 -0.354858
O20   O     O_3   0.994440 0.729480 0.936690 -0.363180
C9    C     C_1   0.716280 0.255208 0.716945 -0.208438
C10   C     C_1   0.216325 0.744774 0.216896 -0.191116
C11   C     C_1   0.783578 0.245035 0.783158 -0.197831
C12   C     C_1   0.283638 0.755030 0.283091 -0.183703
C13   C     C_2   0.260845 0.140418 0.682652 -0.285631
C14   C     C_2   0.813011 0.852766 0.245082 -0.277790
C15   C     C_2   0.336017 0.252393 0.698621 0.291582
C16   C     C_2   0.804257 0.746523 0.160812 0.288201
H1    H     H_    0.245577 0.056541 0.614293 0.087184
H2    H     H_    0.877392 0.923369 0.273423 0.075824
C17   C     C_2   0.199384 0.113039 0.756170 0.484814
C18   C     C_2   0.737370 0.885589 0.300866 0.491335
C19   C     C_2   0.167537 0.263429 0.804181 -0.039613
C20   C     C_2   0.689355 0.736398 0.329620 -0.042058
O21   O     O_3   0.361248 0.346065 0.790091 -0.555800
C21   C     C_3   0.456568 0.356202 0.820412 -0.214029
H3    H     H_    0.485189 0.472128 0.779780 0.143751
H4    H     H_    0.490054 0.215513 0.811475 0.112523
H5    H     H_    0.472314 0.393677 0.900824 0.160333
O22   O     O_3   0.716909 0.687364 0.115484 -0.559209
C22   C     C_3   0.715636 0.570033 0.030787 -0.222937
H6    H     H_    0.753712 0.433774 0.051072 0.145671
H7    H     H_    0.741617 0.648677 0.971101 0.126815
H8    H     H_    0.644149 0.530153 0.000151 0.150060
O23   O     O_3   0.171407 0.927259 0.771263 -0.540676
C23   C     C_3   0.094886 0.884511 0.696805 -0.217905
H9    H     H_    0.115502 0.857197 0.624018 0.114241
H10   H     H_    0.042200 0.999995 0.688940 0.089218
H11   H     H_    0.062524 0.751644 0.718263 0.187359
O24   O     O_3   0.721411 0.071993 0.329692 -0.537157
C24   C     C_3   0.782005 0.113160 0.419733 -0.226731
H12   H     H_    0.851781 0.137897 0.405855 0.116146
H13   H     H_    0.782714 0.998031 0.476660 0.089729
H14   H     H_    0.759307 0.247102 0.452077 0.178351
N1    N     N_3   0.178507 0.459913 0.774254 -0.660714
H15   H     H_    0.189193 0.471405 0.701114 0.235302
H16   H     H_    0.231288 0.524557 0.824360 0.308658
N2    N     N_3   0.717401 0.539859 0.318539 -0.656721
H17   H     H_    0.788210 0.527105 0.334173 0.216795
H18   H     H_    0.690611 0.488537 0.247313 0.304364

loop_
_geom_bond_atom_site_label_1
_geom_bond_atom_site_label_2
_ccdc_geom_bond_type
C19   N1    S    
C14   C16   D    
C24   H13   S    
V3    O19   S    
C14   C18   S    
N2    H17   S    
O5    V1    S    
O17   C7    A    
O13   V3    S    
O10   C6    A    
O18   C8    A    
O21   C21   S    
V2    O20   S    
O2    V4    S    
O4    C2    A    
V1    O19   S    
O3    V1    S    
O10   V2    S    
C23   H11   S    
C1    O11   A    
C24   H14   S    
C8    C10   S    
C2    O12   A    
O5    C7    A    
C22   H6    S    
C7    C9    S    
V4    O20   S    
C17   C19   D    
O9    V1    S    
O23   C23   S    
O24   C24   S    
O15   V3    S    
C3    C12   S    
C13   H1    S    
O14   V4    S    
C21   H4    S    
C21   H3    S    
C9    C11   T    
C18   C20   D    
N2    H18   S    
O11   V3    S    
O3    C1    A    
C10   C12   T    
C22   H7    S    
O15   C5    A    
O17   V3    S    
O2    C4    A    
O16   C6    A    
C13   C17   S    
C20   N2    S    
O1    C3    A    
C14   H2    S    
O1    V3    S    
O12   V4    S    
N1    H15   S    
O4    V2    S    
C1    C20   S    
O6    V2    S    
O22   C22   S    
O14   V2    S    
C13   C15   D    
O7    V1    S    
O8    C4    A    
C22   H8    S    
O9    C5    A    
C4    C11   S    
C17   O23   S    
C2    C19   S    
C6    C16   S    
O7    C3    A    
O16   V4    S    
O13   V1    S    
C23   H9    S    
C16   O22   S    
C15   O21   S    
C23   H10   S    
C5    C15   S    
C21   H5    S    
O6    C8    A    
C24   H12   S    
O8    V2    S    
N1    H16   S    
O18   V4    S    
C18   O24   S    
