data_mof_unit_17492.cif
_audit_creation_date              2012-12-10T17:46:26-0500
_audit_creation_method            fapswitch 2.2
_symmetry_space_group_name_H-M    P1
_symmetry_Int_Tables_number       1
_space_group_crystal_system       triclinic
_cell_length_a                    20.581998
_cell_length_b                    21.19793
_cell_length_c                    14.786918
_cell_angle_alpha                 90.001315
_cell_angle_beta                  127.843298
_cell_angle_gamma                 89.999772
_cell_volume                      5094.67139943

loop_
_atom_site_label
_atom_site_type_symbol
_atom_type_description
_atom_site_fract_x
_atom_site_fract_y
_atom_site_fract_z
_atom_type_partial_charge
C1    C     C_R   0.601455 0.912230 0.629086 0.846873
C2    C     C_R   0.684458 0.212321 0.090756 -0.180226
C3    C     C_R   0.711370 0.768394 0.953676 0.085812
C4    C     C_R   0.211299 0.731639 0.953618 0.085816
C5    C     C_R   0.756872 0.286715 0.015669 0.087233
C6    C     C_R   0.756874 0.713281 0.015667 0.087238
C7    C     C_R   0.211278 0.268307 0.953536 0.085810
C8    C     C_R   0.285741 0.826160 0.969786 -0.198795
C9    C     C_R   0.673265 0.196641 0.991151 -0.199640
C10   C     C_R   0.673258 0.803350 0.991148 -0.199593
C11   C     C_R   0.286032 0.173934 0.969940 -0.198801
C12   C     C_R   0.785882 0.326091 0.969898 -0.198808
C13   C     C_R   0.684446 0.787666 0.090747 -0.180177
C14   C     C_R   0.173195 0.696677 0.991092 -0.199609
C15   C     C_R   0.173021 0.303180 0.990869 -0.199628
C16   C     C_R   0.785885 0.673906 0.969894 -0.198781
C17   C     C_R   0.274602 0.189752 0.870120 -0.180910
C18   C     C_R   0.774388 0.310313 0.870019 -0.180923
C19   C     C_R   0.184387 0.712359 0.090697 -0.180188
C20   C     C_R   0.184173 0.287481 0.090436 -0.180195
C21   C     C_R   0.774398 0.689688 0.870021 -0.180907
C22   C     C_R   0.321529 0.999966 0.668336 -0.312184
C23   C     C_R   0.678406 0.000041 0.331595 -0.305396
C24   C     C_R   0.821528 0.500030 0.668335 -0.312189
C25   C     C_R   0.397686 0.087217 0.369884 0.846489
C26   C     C_R   0.178406 0.499970 0.331595 -0.305342
C27   C     C_R   0.350609 0.999982 0.604651 0.647423
C28   C     C_R   0.649370 0.000017 0.395320 0.643440
C29   C     C_R   0.850609 0.500012 0.604650 0.647402
C30   C     C_R   0.149370 0.499990 0.395320 0.643486
C31   C     C_R   0.488591 0.000012 0.775255 -0.061498
C32   C     C_R   0.511355 0.999994 0.224740 -0.053034
C33   C     C_R   0.988591 0.499993 0.775255 -0.061510
C34   C     C_R   0.011355 0.500005 0.224740 -0.053039
C35   C     C_R   0.462050 0.000004 0.845182 -0.017941
C36   C     C_R   0.397698 0.912774 0.369899 0.846480
C37   C     C_R   0.537841 0.000009 0.154764 -0.020274
C38   C     C_R   0.962050 0.500001 0.845181 -0.017945
C39   C     C_R   0.037841 0.499996 0.154764 -0.020291
C40   C     C_R   0.376336 0.999974 0.787758 0.087360
C41   C     C_R   0.623555 0.000040 0.212169 0.082540
C42   C     C_R   0.876335 0.500027 0.787757 0.087383
C43   C     C_R   0.123554 0.499970 0.212168 0.082515
C44   C     C_R   0.516424 0.000021 0.968690 0.096884
C45   C     C_R   0.483438 0.999997 0.031242 0.104824
C46   C     C_R   0.016423 0.499987 0.968689 0.096843
C47   C     C_R   0.601454 0.087769 0.629085 0.846888
C48   C     C_R   0.983437 0.500008 0.031241 0.104823
C49   C     C_R   0.397316 0.999958 0.968150 -0.242509
C50   C     C_R   0.602536 0.000065 0.031769 -0.245076
C51   C     C_R   0.897315 0.500045 0.968149 -0.242480
C52   C     C_R   0.102536 0.499948 0.031768 -0.245039
C53   C     C_R   0.345207 0.999950 0.849228 -0.184461
C54   C     C_R   0.654655 0.000071 0.150679 -0.165501
C55   C     C_R   0.845206 0.500051 0.849227 -0.184473
C56   C     C_R   0.154654 0.499943 0.150679 -0.165403
C57   C     C_R   0.653280 0.143052 0.693538 -0.130474
C58   C     C_R   0.101456 0.412229 0.629084 0.846858
C59   C     C_R   0.339432 0.861670 0.298256 -0.131570
C60   C     C_R   0.339393 0.138296 0.298191 -0.131635
C61   C     C_R   0.653283 0.856947 0.693542 -0.130489
C62   C     C_R   0.153258 0.643068 0.693520 -0.130469
C63   C     C_R   0.839442 0.361665 0.298268 -0.131580
C64   C     C_R   0.839441 0.638333 0.298266 -0.131576
C65   C     C_R   0.153294 0.356948 0.693537 -0.130555
C66   C     C_R   0.724539 0.239301 0.712613 -0.204450
C67   C     C_R   0.248817 0.775214 0.261190 -0.203610
C68   C     C_R   0.248633 0.224668 0.260964 -0.203621
C69   C     C_R   0.897698 0.587225 0.369899 0.846492
C70   C     C_R   0.724560 0.760705 0.712630 -0.204441
C71   C     C_R   0.224450 0.739348 0.712541 -0.204440
C72   C     C_R   0.748863 0.275187 0.261230 -0.203625
C73   C     C_R   0.748847 0.724801 0.261213 -0.203604
C74   C     C_R   0.224737 0.260782 0.712729 -0.204462
C75   C     C_R   0.682935 0.184624 0.651547 0.400681
C76   C     C_R   0.301367 0.823744 0.332384 0.406759
C77   C     C_R   0.301237 0.176181 0.332227 0.406782
C78   C     C_R   0.682958 0.815381 0.651566 0.400686
C79   C     C_R   0.182888 0.684651 0.651509 0.400654
C80   C     C_R   0.897698 0.412775 0.369900 0.846452
C81   C     C_R   0.801394 0.323729 0.332410 0.406737
C82   C     C_R   0.801379 0.676262 0.332395 0.406744
C83   C     C_R   0.183078 0.315438 0.651636 0.400754
C84   C     C_R   0.667023 0.157203 0.796351 -0.285379
C85   C     C_R   0.323616 0.849743 0.193296 -0.291669
C86   C     C_R   0.323633 0.150234 0.193269 -0.291621
C87   C     C_R   0.667010 0.842788 0.796342 -0.285328
C88   C     C_R   0.166991 0.657227 0.796326 -0.285322
C89   C     C_R   0.823628 0.349740 0.193311 -0.291660
C90   C     C_R   0.823643 0.650265 0.193319 -0.291630
C91   C     C_R   0.101452 0.587772 0.629083 0.846890
C92   C     C_R   0.166946 0.342739 0.796270 -0.285384
C93   C     C_R   0.703840 0.214118 0.854646 0.097456
C94   C     C_R   0.271202 0.800697 0.120869 0.096166
C95   C     C_R   0.271196 0.199258 0.120798 0.096149
C96   C     C_R   0.703837 0.785878 0.854644 0.097453
C97   C     C_R   0.203771 0.714156 0.854589 0.097451
C98   C     C_R   0.771257 0.300669 0.120916 0.096177
C99   C     C_R   0.771260 0.699329 0.120915 0.096169
C100  C     C_R   0.203816 0.285839 0.854578 0.097444
C101  C     C_R   0.734608 0.254563 0.812670 0.080389
C102  C     C_R   0.274243 0.810385 0.869901 -0.180898
C103  C     C_R   0.234404 0.762888 0.157283 0.080407
C104  C     C_R   0.234270 0.237004 0.157097 0.080409
C105  C     C_R   0.734618 0.745438 0.812676 0.080388
C106  C     C_R   0.234509 0.754615 0.812589 0.080392
C107  C     C_R   0.734463 0.262855 0.157333 0.080416
C108  C     C_R   0.734454 0.737135 0.157323 0.080402
C109  C     C_R   0.234734 0.245470 0.812716 0.080384
C110  C     C_R   0.711373 0.231601 0.953680 0.085826
C111  C     C_R   0.256786 0.786759 0.015598 0.087242
C112  C     C_R   0.256869 0.213234 0.015595 0.087239
Cl1   Cl    Cl    0.320392 0.831550 0.465538 -0.544030
Cl2   Cl    Cl    0.276830 0.999977 0.454917 -0.508682
Cl3   Cl    Cl    0.223126 0.500002 0.545046 -0.510368
Cl4   Cl    Cl    0.776831 0.500008 0.454916 -0.508719
Cl5   Cl    Cl    0.667271 0.172835 0.521364 -0.545445
Cl6   Cl    Cl    0.667320 0.827180 0.521408 -0.545402
Cl7   Cl    Cl    0.320197 0.168375 0.465336 -0.543989
Cl8   Cl    Cl    0.820409 0.331542 0.465557 -0.544062
Cl9   Cl    Cl    0.167238 0.672851 0.521341 -0.545435
Cl10  Cl    Cl    0.167532 0.327287 0.521549 -0.545342
Cl11  Cl    Cl    0.820381 0.668447 0.465532 -0.544031
Cl12  Cl    Cl    0.723126 0.000013 0.545046 -0.510463
Cu1   Cu    Cu3+1 0.526640 0.000000 0.436960 1.051835
Cu2   Cu    Cu3+1 0.473360 1.000000 0.563040 1.049282
Cu3   Cu    Cu3+1 0.026640 0.500000 0.436960 1.051826
Cu4   Cu    Cu3+1 0.973360 0.500000 0.563040 1.049288
H1    H     H_    0.297019 0.842115 0.837531 0.158376
H2    H     H_    0.631878 0.000098 0.991520 0.132527
H3    H     H_    0.867970 0.500072 0.008400 0.126155
H4    H     H_    0.131878 0.499917 0.991520 0.132551
H5    H     H_    0.355288 0.878493 0.171665 0.166290
H6    H     H_    0.648439 0.122461 0.829452 0.159947
H7    H     H_    0.648405 0.877523 0.829429 0.159971
H8    H     H_    0.355354 0.121499 0.171698 0.166308
H9    H     H_    0.855261 0.378521 0.171654 0.166248
H10   H     H_    0.148429 0.622480 0.829448 0.159960
H11   H     H_    0.148266 0.377433 0.829319 0.160025
H12   H     H_    0.654739 0.183865 0.116852 0.159244
H13   H     H_    0.855297 0.621499 0.171679 0.166273
H14   H     H_    0.247277 0.770904 0.680039 0.191550
H15   H     H_    0.720687 0.245866 0.288687 0.191150
H16   H     H_    0.720662 0.754117 0.288664 0.191154
H17   H     H_    0.247699 0.229292 0.680326 0.191571
H18   H     H_    0.747389 0.270847 0.680132 0.191551
H19   H     H_    0.220634 0.745898 0.288643 0.191153
H20   H     H_    0.220365 0.253945 0.288337 0.191130
H21   H     H_    0.747422 0.729162 0.680157 0.191551
H22   H     H_    0.315769 0.870695 0.006988 0.138765
H23   H     H_    0.654720 0.816117 0.116840 0.159248
H24   H     H_    0.632552 0.157479 0.944161 0.147767
H25   H     H_    0.632545 0.842512 0.944162 0.147786
H26   H     H_    0.316210 0.129449 0.007216 0.138811
H27   H     H_    0.815962 0.370605 0.007131 0.138793
H28   H     H_    0.132481 0.657516 0.944095 0.147800
H29   H     H_    0.132223 0.342289 0.943798 0.147833
H30   H     H_    0.815961 0.629390 0.007121 0.138774
H31   H     H_    0.279337 0.999922 0.804622 0.153101
H32   H     H_    0.720522 0.000102 0.195276 0.156165
H33   H     H_    0.779336 0.500077 0.804621 0.153089
H34   H     H_    0.297546 0.158099 0.837881 0.158407
H35   H     H_    0.220522 0.499916 0.195276 0.156171
H36   H     H_    0.447165 0.999983 0.187719 0.130768
H37   H     H_    0.552781 0.000023 0.812300 0.133267
H38   H     H_    0.947164 0.500012 0.187719 0.130775
H39   H     H_    0.052781 0.499986 0.812300 0.133280
H40   H     H_    0.255693 0.999947 0.624043 0.179552
H41   H     H_    0.744237 0.000060 0.375856 0.180286
H42   H     H_    0.755693 0.500045 0.624042 0.179546
H43   H     H_    0.244237 0.499956 0.375856 0.180294
H44   H     H_    0.797204 0.342025 0.837682 0.158382
H45   H     H_    0.154664 0.683907 0.116790 0.159246
H46   H     H_    0.154350 0.315877 0.116437 0.159235
H47   H     H_    0.797220 0.657977 0.837685 0.158381
H48   H     H_    0.367971 0.999932 0.008401 0.126158
N1    N     N_R   0.433280 0.000000 0.657760 -0.205417
N2    N     N_R   0.566720 1.000000 0.342240 -0.204409
N3    N     N_R   0.933280 0.500000 0.657760 -0.205404
N4    N     N_R   0.066720 0.500000 0.342240 -0.204425
O1    O     O_R   0.600040 0.935040 0.546740 -0.498557
O2    O     O_R   0.444990 0.064930 0.346780 -0.602737
O3    O     O_R   0.444990 0.935070 0.346780 -0.602734
O4    O     O_R   0.555010 0.064930 0.653220 -0.603223
O5    O     O_R   0.055010 0.435070 0.653220 -0.603207
O6    O     O_R   0.944990 0.564930 0.346780 -0.602727
O7    O     O_R   0.944990 0.435070 0.346780 -0.602760
O8    O     O_R   0.055010 0.564930 0.653220 -0.603188
O9    O     O_R   0.399960 0.064960 0.453260 -0.500188
O10   O     O_R   0.399960 0.935040 0.453260 -0.500181
O11   O     O_R   0.600040 0.064960 0.546740 -0.498556
O12   O     O_R   0.100040 0.435040 0.546740 -0.498571
O13   O     O_R   0.899960 0.564960 0.453260 -0.500186
O14   O     O_R   0.899960 0.435040 0.453260 -0.500175
O15   O     O_R   0.100040 0.564960 0.546740 -0.498549
O16   O     O_R   0.555010 0.935070 0.653220 -0.603188

loop_
_geom_bond_atom_site_label_1
_geom_bond_atom_site_label_2
_ccdc_geom_bond_type
C72   H15   S    
C91   O8    A    
C9    H24   S    
C16   C21   A    
C33   N3    A    
C24   C42   A    
C90   C99   A    
C74   H17   S    
C34   N4    A    
C75   Cl5   S    
C102  H1    S    
C64   C90   A    
C74   C83   A    
C96   C105  A    
C3    C6    A    
C74   C109  A    
C71   C79   A    
C67   C103  A    
C44   C45   A    
C99   C108  A    
C79   Cl9   S    
C56   H35   S    
C84   H6    S    
C50   C54   A    
C31   N1    A    
C36   O10   A    
Cu3   N4    S    
Cu1   O3    S    
C78   Cl6   S    
Cu4   O14   S    
C15   H29   S    
C55   H33   S    
C95   C112  A    
C65   C83   A    
C70   C78   A    
C5    C110  A    
C46   C52   A    
C2    C107  A    
C68   C77   A    
Cu3   O6    S    
C7    C112  A    
Cu2   N1    S    
Cu2   O10   S    
C24   C29   A    
C82   Cl11  S    
C61   C87   A    
C11   H26   S    
C19   C103  A    
C48   C51   A    
C20   H46   S    
C31   H37   S    
C21   H47   S    
C23   H41   S    
Cu3   O7    S    
C3    C96   A    
C25   C60   S    
C69   O6    A    
C6    C16   A    
C50   H2    S    
C72   C81   A    
C68   H20   S    
C93   C110  A    
C30   Cl3   S    
C22   H40   S    
C36   C59   S    
C7    C15   A    
C11   C112  A    
C100  C109  A    
C4    C97   A    
C87   C96   A    
C58   O5    A    
C37   C41   A    
C66   C101  A    
C32   N2    A    
C33   H39   S    
C70   H21   S    
C13   C108  A    
C10   H25   S    
C26   C43   A    
C63   C80   S    
C15   C20   A    
C46   C48   A    
C60   C77   A    
C53   H31   S    
C94   C111  A    
C7    C100  A    
C16   H30   S    
Cu4   O5    S    
C52   H4    S    
C87   H7    S    
C62   C79   A    
C1    O16   A    
Cu4   O13   S    
C13   H23   S    
C5    C12   A    
C86   C95   A    
C8    C111  A    
C93   C101  A    
C36   O3    A    
C60   C86   A    
C73   C108  A    
C39   C43   A    
C23   C28   A    
Cu1   O1    S    
C10   C13   A    
C98   C107  A    
C34   C39   A    
C1    C61   S    
C18   C101  A    
C28   N2    A    
Cu2   O9    S    
C8    H22   S    
C19   H45   S    
C95   C104  A    
Cu3   O15   S    
C42   C55   A    
C47   C57   S    
C91   O15   A    
C85   C94   A    
C58   C65   S    
C81   Cl8   S    
C72   C107  A    
C45   C49   A    
C61   C78   A    
C22   C40   A    
C62   C91   S    
C63   C89   A    
C69   O13   A    
C76   Cl1   S    
C57   C84   A    
Cu1   O11   S    
Cu4   N3    S    
C32   C37   A    
C35   C44   A    
C64   C82   A    
C65   C92   A    
C71   H14   S    
C97   C106  A    
C86   H8    S    
C59   C76   A    
C4    C111  A    
C63   C81   A    
C94   C103  A    
C26   C30   A    
C89   H9    S    
C22   C27   A    
C58   O12   A    
Cu1   Cu2   S    
C31   C35   A    
C12   H27   S    
C37   C45   A    
Cu3   Cu4   S    
C73   C82   A    
C24   H42   S    
C25   O2    A    
C92   C100  A    
C27   N1    A    
C44   C50   A    
C9    C110  A    
C11   C17   A    
C1    O1    A    
C14   H28   S    
Cu1   O2    S    
Cu4   O8    S    
C14   C19   A    
C29   Cl4   S    
C88   C97   A    
C47   O4    A    
C77   Cl7   S    
C70   C105  A    
C17   C109  A    
C26   H43   S    
C28   Cl12  S    
C47   O11   A    
C38   C42   A    
C20   C104  A    
C18   H44   S    
C80   O14   A    
C88   H10   S    
Cu3   O12   S    
C23   C41   A    
C89   C98   A    
C2    H12   S    
C6    C99   A    
C57   C75   A    
C68   C104  A    
C35   C40   A    
C3    C10   A    
C25   O9    A    
C38   C46   A    
C67   H19   S    
C92   H11   S    
Cu2   O4    S    
C62   C88   A    
C49   C53   A    
C66   C75   A    
C32   H36   S    
C80   O7    A    
C102  C106  A    
C51   C55   A    
C84   C93   A    
C83   Cl10  S    
C4    C14   A    
C64   C69   S    
C41   C54   A    
C66   H18   S    
C90   H13   S    
C17   H34   S    
C54   H32   S    
C27   Cl2   S    
Cu2   O16   S    
C43   C56   A    
C5    C98   A    
C51   H3    S    
C40   C53   A    
C29   N3    A    
C71   C106  A    
C12   C18   A    
Cu1   N2    S    
C30   N4    A    
C33   C38   A    
C67   C76   A    
C34   H38   S    
C2    C9    A    
C8    C102  A    
C59   C85   A    
C49   H48   S    
C21   C105  A    
C52   C56   A    
C85   H5    S    
C39   C48   A    
C73   H16   S    
