data_mof_unit_66976.cif
_audit_creation_date              2012-12-11T17:40:58-0500
_audit_creation_method            fapswitch 2.2
_symmetry_space_group_name_H-M    P1
_symmetry_Int_Tables_number       1
_space_group_crystal_system       triclinic
_cell_length_a                    8.241063
_cell_length_b                    12.674191
_cell_length_c                    14.19286
_cell_angle_alpha                 92.70426
_cell_angle_beta                  90.514801
_cell_angle_gamma                 98.346412
_cell_volume                      1464.90478024

loop_
_atom_site_label
_atom_site_type_symbol
_atom_type_description
_atom_site_fract_x
_atom_site_fract_y
_atom_site_fract_z
_atom_type_partial_charge
Ba1   Ba    Ba6+2 0.855630 0.555280 0.454520 1.663825
Ba2   Ba    Ba6+2 0.334200 0.444810 0.545490 1.699113
C1    C     C_3   0.731545 0.966937 0.184331 -0.341955
C2    C     C_R   0.181643 0.498459 0.195719 0.035163
C3    C     C_R   0.336134 0.548498 0.225600 -0.362003
C4    C     C_3   0.110209 0.790975 0.195806 0.340536
C5    C     C_R   0.446452 0.597856 0.162499 0.070008
C6    C     C_R   0.400271 0.606804 0.068521 0.302321
C7    C     C_R   0.244782 0.555236 0.034715 -0.068268
C8    C     C_R   0.135315 0.498346 0.098094 -0.070689
C9    C     C_R   0.049933 0.502545 0.902133 -0.020880
C10   C     C_R   0.939077 0.448455 0.965932 0.020108
C11   C     C_R   0.005224 0.501213 0.804323 0.051090
C12   C     C_3   0.670334 0.858704 0.223936 0.660223
C13   C     C_R   0.849571 0.451274 0.775027 -0.304161
C14   C     C_R   0.737081 0.403552 0.838660 -0.029289
C15   C     C_R   0.782244 0.400712 0.933637 -0.129278
C16   C     C_3   0.110643 0.824462 0.094103 -0.387905
C17   C     C_R   0.200377 0.556484 0.938328 -0.041529
C18   C     C_R   0.751206 0.176831 0.546203 0.169879
C19   C     C_R   0.429573 0.812810 0.462184 -0.259115
C20   C     C_R   0.407479 0.994212 0.427434 -0.057738
C21   C     C_R   0.341668 0.886960 0.424111 0.066562
C22   C     C_R   0.576663 0.845881 0.512066 0.063303
C23   C     C_3   0.476411 0.310726 0.258137 0.287479
C24   C     C_R   0.640559 0.956485 0.521723 -0.051520
C25   C     C_R   0.555377 0.030959 0.477011 -0.125331
C26   C     C_R   0.616062 0.140916 0.486871 0.039436
C27   C     C_R   0.846333 0.104403 0.582104 -0.099058
C28   C     C_3   0.230815 0.764276 0.658679 0.264796
C29   C     C_R   0.787701 0.995142 0.572798 -0.128014
C30   C     C_3   0.212731 0.881174 0.674492 -0.333898
C31   C     C_3   0.928816 0.236533 0.332937 0.255977
C32   C     C_3   0.981932 0.127887 0.344839 -0.374161
C33   C     C_3   0.725588 0.678103 0.738733 0.286130
C34   C     C_3   0.454789 0.288790 0.152104 -0.377698
C35   C     C_3   0.778053 0.712124 0.840092 -0.375249
C36   C     C_3   0.999418 0.134544 0.800863 0.333934
C37   C     C_3   0.060798 0.118560 0.899818 -0.320611
C38   C     C_3   0.599712 0.158508 0.823080 0.360841
C39   C     C_3   0.542084 0.039099 0.824411 -0.319916
C40   C     C_R   0.984310 0.444015 0.061610 -0.014629
H1    H     H_    0.723066 0.857592 0.296244 0.057500
H2    H     H_    0.829842 0.649227 0.702133 0.023902
H3    H     H_    0.619502 0.613175 0.738872 0.057261
H4    H     H_    0.695538 0.031946 0.231211 0.095288
H5    H     H_    0.898121 0.764919 0.841262 0.117060
H6    H     H_    0.789090 0.641414 0.881432 0.103129
H7    H     H_    0.686004 0.756780 0.873819 0.157695
H8    H     H_    0.677940 0.972254 0.112896 0.102559
H9    H     H_    0.362287 0.335845 0.286474 0.032123
H10   H     H_    0.580506 0.376140 0.271029 0.048320
H11   H     H_    0.346739 0.226865 0.136748 0.131670
H12   H     H_    0.254852 0.909813 0.746761 0.130242
H13   H     H_    0.435704 0.362820 0.117517 0.055957
H14   H     H_    0.566022 0.260387 0.122587 0.110899
H15   H     H_    0.866507 0.977236 0.178026 0.101871
H16   H     H_    0.112329 0.753708 0.045232 0.073584
H17   H     H_    0.967340 0.216888 0.799388 -0.030865
H18   H     H_    0.890350 0.073979 0.784903 -0.038364
H19   H     H_    0.168901 0.179204 0.918647 0.147775
H20   H     H_    0.962450 0.127341 0.951361 0.048448
H21   H     H_    0.095887 0.037464 0.903703 0.106791
H22   H     H_    0.674990 0.183518 0.887793 -0.036105
H23   H     H_    0.284497 0.929949 0.622181 0.078856
H24   H     H_    0.675146 0.173269 0.759137 -0.086317
H25   H     H_    0.642529 0.997349 0.849511 0.063475
H26   H     H_    0.506747 0.007868 0.751722 0.100993
H27   H     H_    0.999254 0.733146 0.206581 0.104790
H28   H     H_    0.436452 0.022310 0.872234 0.117897
H29   H     H_    0.373743 0.545750 0.298603 0.080214
H30   H     H_    0.694658 0.362156 0.982200 0.056473
H31   H     H_    0.811914 0.455234 0.702352 0.084518
H32   H     H_    0.899573 0.397954 0.106911 0.092071
H33   H     H_    0.284636 0.598886 0.891045 0.114053
H34   H     H_    0.081938 0.890616 0.668036 0.118869
H35   H     H_    0.337737 0.047975 0.393813 0.098298
H36   H     H_    0.859097 0.942129 0.605226 0.108173
H37   H     H_    0.217401 0.749515 0.207621 0.012911
H38   H     H_    0.378457 0.729096 0.457433 0.060494
H39   H     H_    0.999168 0.860377 0.078344 0.148825
H40   H     H_    0.220283 0.883815 0.081645 0.108171
H41   H     H_    0.361965 0.756794 0.652640 0.010361
H42   H     H_    0.163735 0.734360 0.592260 0.061331
H43   H     H_    0.458169 0.842472 0.162086 0.289760
H44   H     H_    0.448378 0.712708 0.976301 0.276655
H45   H     H_    0.801420 0.223931 0.306286 0.032940
H46   H     H_    0.814581 0.291477 0.635852 0.269226
H47   H     H_    0.936380 0.280483 0.402800 0.078150
H48   H     H_    0.019681 0.094275 0.276441 0.148159
H49   H     H_    0.880734 0.071989 0.373814 0.062339
H50   H     H_    0.088194 0.135604 0.393434 0.155485
O1    O     O_2   0.887370 0.460630 0.272300 -0.481080
O2    O     O_2   0.182738 0.111590 0.558624 -0.481314
O3    O     O_3   0.121676 0.119272 0.735977 -0.560128
O4    O     O_3   0.129410 0.451380 0.388510 -0.472507
O5    O     O_3   0.575400 0.626570 0.547370 -0.488414
O6    O     O_2   0.344320 0.238700 0.455090 -0.459096
O7    O     O_3   0.508114 0.217312 0.299468 -0.658182
O8    O     O_2   0.396976 0.407226 0.833871 -0.471981
O9    O     O_3   0.463440 0.213152 0.821751 -0.561057
O10   O     O_3   0.670210 0.653170 0.329170 -0.491585
O11   O     O_2   0.774302 0.581288 0.164258 -0.489665
O12   O     O_3   0.680153 0.766414 0.695590 -0.645929
O13   O     O_3   0.025749 0.288976 0.264142 -0.641543
O14   O     O_3   0.722907 0.778327 0.164780 -0.599790
O15   O     O_2   0.845380 0.761330 0.544970 -0.474027
O16   O     O_3   0.088930 0.704860 0.376040 -0.501305
O17   O     O_2   0.003105 0.890997 0.430721 -0.499022
O18   O     O_3   0.499034 0.846111 0.228307 -0.792551
O19   O     O_3   0.509965 0.665332 0.011575 -0.730892
O20   O     O_3   0.790483 0.284185 0.567316 -0.704377
O21   O     O_3   0.112307 0.881112 0.257803 -0.606769
O22   O     O_2   0.302330 0.539400 0.727760 -0.467999
O23   O     O_3   0.060300 0.548700 0.611500 -0.479747
O24   O     O_3   0.519500 0.346920 0.670840 -0.428947
O25   O     O_3   0.169011 0.710783 0.737503 -0.649352
O26   O     O_3   0.614310 0.373510 0.452640 -0.425821
O27   O     O_3   0.100780 0.295230 0.623970 -0.432161
P1    P     P_3+3 0.054400 0.427280 0.286870 0.982930
P2    P     P_3+3 0.668300 0.742890 0.573060 0.968999
P3    P     P_3+3 0.135855 0.842691 0.373641 0.957678
P4    P     P_3+3 0.135310 0.572810 0.713130 0.977770
P5    P     P_3+3 0.059055 0.155419 0.625493 0.993764
P6    P     P_3+3 0.652677 0.651865 0.206183 1.016416
P7    P     P_3+3 0.525599 0.241357 0.421909 0.977147
P8    P     P_3+3 0.530871 0.345064 0.793751 0.998798

loop_
_geom_bond_atom_site_label_1
_geom_bond_atom_site_label_2
_ccdc_geom_bond_type
O3    P5    S    
C4    H27   S    
C8    C40   A    
O8    P8    D    
Ba2   O22   S    
O10   P6    S    
Ba1   O16   S    
C23   H9    S    
Ba2   O26   S    
C5    C6    A    
C39   H25   S    
O27   P5    S    
O14   P6    S    
C9    C17   A    
C24   C25   A    
C33   C35   S    
C22   C24   A    
C36   C37   S    
C11   P4    S    
O17   P3    D    
C13   C14   A    
C27   P5    S    
C16   H39   S    
Ba1   Ba2   S    
C28   H41   S    
C32   H49   S    
C10   C40   A    
C34   H11   S    
C16   H40   S    
C38   O9    S    
C18   O20   S    
Ba2   O24   S    
C16   H16   S    
O21   P3    S    
Ba2   O5    S    
C26   P7    S    
C14   C15   A    
C39   H28   S    
O24   P8    S    
C36   O3    S    
O5    P2    S    
O13   P1    S    
O1    P1    D    
O7    P7    S    
C7    C8    A    
O25   P4    S    
C24   C29   A    
C38   H24   S    
C27   C29   A    
C4    C16   S    
C30   H12   S    
C1    H8    S    
C7    C17   A    
C21   P3    S    
C32   H50   S    
C18   C27   A    
C37   H19   S    
C40   H32   S    
O23   P4    S    
C31   O13   S    
H43   O18   S    
C6    O19   S    
Ba1   O5    S    
C3    C5    A    
C6    C7    A    
O12   P2    S    
C18   C26   A    
Ba2   P4    S    
Ba1   P1    S    
C10   C15   A    
C32   H48   S    
C4    O21   S    
C34   H14   S    
C31   H47   S    
C35   H7    S    
Ba2   O23   S    
O6    P7    D    
Ba2   O27   S    
C31   C32   S    
C5    P6    S    
C35   H6    S    
C33   H2    S    
C1    C12   S    
Ba1   O15   S    
C36   H18   S    
O22   P4    D    
C1    H15   S    
C38   C39   S    
C13   H31   S    
C33   O12   S    
C20   C25   A    
C19   C21   A    
C35   H5    S    
O15   P2    D    
C2    C8    A    
C33   H3    S    
C29   H36   S    
C17   H33   S    
C12   O18   S    
C37   H20   S    
C39   H26   S    
O4    P1    S    
C2    P1    S    
C20   H35   S    
O16   P3    S    
C2    C3    A    
C30   H34   S    
C9    C10   A    
C28   O25   S    
O26   P7    S    
C37   H21   S    
C1    H4    S    
C38   H22   S    
C11   C13   A    
H44   O19   S    
C31   H45   S    
C23   H10   S    
C3    H29   S    
C34   H13   S    
C28   C30   S    
C23   O7    S    
C9    C11   A    
C4    H37   S    
Ba1   O4    S    
C19   H38   S    
Ba2   O4    S    
C22   P2    S    
O9    P8    S    
Ba1   O26   S    
C28   H42   S    
O11   P6    D    
C14   P8    S    
Ba1   P2    S    
C23   C34   S    
C36   H17   S    
H46   O20   S    
C12   O14   S    
Ba2   O6    S    
C15   H30   S    
Ba1   O1    S    
C19   C22   A    
C25   C26   A    
C20   C21   A    
C30   H23   S    
Ba1   O23   S    
Ba1   O10   S    
C12   H1    S    
O2    P5    D    
