data_mof_unit_9893.cif
_audit_creation_date              2012-12-10T16:54:33-0500
_audit_creation_method            fapswitch 2.2
_symmetry_space_group_name_H-M    P1
_symmetry_Int_Tables_number       1
_space_group_crystal_system       triclinic
_cell_length_a                    15.037228
_cell_length_b                    10.932133
_cell_length_c                    9.742052
_cell_angle_alpha                 90.415315
_cell_angle_beta                  90.073109
_cell_angle_gamma                 90.643117
_cell_volume                      1601.34152699

loop_
_atom_site_label
_atom_site_type_symbol
_atom_type_description
_atom_site_fract_x
_atom_site_fract_y
_atom_site_fract_z
_atom_type_partial_charge
C1    C     C_R   0.498637 0.265642 0.499424 0.839945
C2    C     C_R   0.906577 0.593657 0.427028 -0.052424
C3    C     C_R   0.954973 0.317143 0.635013 -0.161560
C4    C     C_R   0.047313 0.319469 0.635242 -0.210424
C5    C     C_R   0.093697 0.412818 0.567882 0.156935
C6    C     C_R   0.047276 0.504701 0.496898 -0.016276
C7    C     C_R   0.094468 0.597673 0.425167 -0.095935
C8    C     C_R   0.046573 0.687293 0.352199 0.492179
C9    C     C_R   0.953230 0.682340 0.352064 -0.276159
C10   C     C_R   0.186039 0.414058 0.569144 -0.332778
C11   C     C_R   0.232912 0.504752 0.499597 -0.170050
C12   C     C_R   0.329190 0.500652 0.499895 0.828989
C13   C     C_R   0.188526 0.598574 0.430131 0.458783
C14   C     C_2   0.502845 0.936880 0.387710 0.024208
C15   C     C_2   0.490419 0.866381 0.499414 -0.487505
C16   C     C_2   0.472469 0.063626 0.396142 0.016582
C17   C     C_2   0.506773 0.134206 0.497078 -0.423307
C18   C     C_2   0.440577 0.441416 0.921276 0.169037
C19   C     C_2   0.432607 0.462771 0.075466 0.032896
C20   C     C_R   0.501155 0.734739 0.499906 0.830434
C21   C     C_R   0.670906 0.498926 0.500142 0.911502
C22   C     C_R   0.813276 0.593997 0.431295 0.394513
C23   C     C_R   0.767569 0.500425 0.500790 -0.260198
C24   C     C_R   0.813651 0.409747 0.572399 0.355729
C25   C     C_R   0.907114 0.409612 0.569495 0.030791
C26   C     C_R   0.953596 0.502967 0.498106 -0.051536
Cu1   Cu    Cu3+1 0.500020 0.500020 0.638630 0.989275
Cu2   Cu    Cu3+1 0.499980 0.499980 0.361370 0.999273
H1    H     H_    0.461644 0.905910 0.591821 0.179861
H2    H     H_    0.550366 0.095120 0.574007 0.179511
H3    H     H_    0.395792 0.375901 0.872462 0.069218
H4    H     H_    0.367920 0.448174 0.121846 0.120885
H5    H     H_    0.921567 0.242295 0.686342 0.171913
H6    H     H_    0.082590 0.247654 0.687873 0.140029
H7    H     H_    0.221946 0.343036 0.622434 0.154164
H8    H     H_    0.917005 0.747653 0.291350 0.197276
N1    N     N_2   0.499020 0.498660 0.846910 0.001178
N2    N     N_2   0.499000 0.498630 0.153040 -0.232701
O1    O     O_R   0.500020 0.321960 0.617040 -0.578173
O2    O     O_R   0.499980 0.321920 0.382900 -0.580455
O3    O     O_R   0.370270 0.499990 0.617090 -0.594352
O4    O     O_R   0.370240 0.499950 0.382940 -0.567846
O5    O     O_R   0.500020 0.678080 0.617100 -0.555271
O6    O     O_R   0.499980 0.678040 0.382960 -0.574371
O7    O     O_R   0.629760 0.500050 0.617060 -0.606388
O8    O     O_R   0.629730 0.500010 0.382910 -0.589995
O9    O     O_3   0.766284 0.685173 0.366095 -0.582401
C27   C     C_3   0.753403 0.781851 0.460616 -0.355451
H9    H     H_    0.707983 0.753535 0.544902 0.141550
H10   H     H_    0.722084 0.859024 0.406336 0.187302
H11   H     H_    0.817504 0.816716 0.503875 0.168119
C28   C     C_2   0.402495 0.106099 0.299450 0.456614
H12   H     H_    0.372912 0.195564 0.310916 0.044250
O10   O     O_2   0.374590 0.038932 0.208037 -0.508642
O11   O     O_3   0.522456 0.608853 0.901280 -0.493105
C29   C     C_3   0.612498 0.633417 0.870678 -0.092253
H13   H     H_    0.619679 0.686325 0.775097 0.172914
H14   H     H_    0.653519 0.549661 0.866883 0.115963
H15   H     H_    0.640371 0.692230 0.953822 0.120020
C30   C     C_2   0.585761 0.461706 0.110976 0.656093
H16   H     H_    0.642058 0.522716 0.128342 0.039629
O12   O     O_2   0.598821 0.359382 0.064090 -0.596957
O13   O     O_3   0.766388 0.316248 0.635611 -0.584547
C31   C     C_3   0.760471 0.339379 0.778448 -0.240184
H17   H     H_    0.799463 0.270226 0.834661 0.167595
H18   H     H_    0.690008 0.328324 0.810102 0.226824
H19   H     H_    0.783588 0.432345 0.811970 0.121112
O14   O     O_3   0.237737 0.689227 0.365625 -0.516350
C32   C     C_3   0.258163 0.781933 0.462674 -0.214571
H20   H     H_    0.197146 0.819573 0.510895 0.136257
H21   H     H_    0.292504 0.858118 0.409100 0.207748
H22   H     H_    0.303753 0.748348 0.543608 0.132953
O15   O     O_3   0.091575 0.771757 0.271193 -0.517606
C33   C     C_3   0.064293 0.892214 0.301700 -0.287764
H23   H     H_    0.052855 0.907598 0.413523 0.127686
H24   H     H_    0.003909 0.915250 0.241944 0.160203
H25   H     H_    0.117925 0.956455 0.269882 0.205437
C34   C     C_2   0.552421 0.897680 0.262465 0.485087
H26   H     H_    0.590236 0.814032 0.259994 0.085480
O16   O     O_2   0.554792 0.962413 0.160889 -0.496408

loop_
_geom_bond_atom_site_label_1
_geom_bond_atom_site_label_2
_ccdc_geom_bond_type
O11   C29   S    
O15   C33   S    
C7    C8    A    
Cu2   O8    S    
C33   H24   S    
C18   N1    D    
C5    C6    A    
C34   O16   D    
C3    H5    S    
C29   H13   S    
C30   O12   D    
C18   C19   S    
C32   H21   S    
C12   O4    A    
C1    O2    A    
O14   C32   S    
C27   H11   S    
Cu1   O1    S    
C8    C9    A    
C33   H25   S    
C2    C22   A    
C9    H8    S    
C23   C24   A    
C10   H7    S    
Cu1   O7    S    
C27   H10   S    
C22   O9    S    
C17   H2    S    
C19   H4    S    
C20   O6    A    
C28   O10   D    
C15   H1    S    
C21   O7    A    
C15   C20   S    
C4    H6    S    
C33   H23   S    
C31   H19   S    
C3    C25   A    
C24   C25   A    
C34   H26   S    
C16   C17   D    
C25   C26   A    
Cu2   O6    S    
C30   H16   S    
C31   H18   S    
C32   H22   S    
C12   O3    A    
C19   N2    D    
Cu1   O3    S    
O9    C27   S    
Cu2   N2    S    
C2    C26   A    
N2    C30   S    
C27   H9    S    
C24   O13   S    
C21   C23   S    
C14   C16   S    
C3    C4    A    
C20   O5    A    
C28   H12   S    
C21   O8    A    
C22   C23   A    
C16   C28   S    
C4    C5    A    
C11   C12   S    
C6    C7    A    
C1    C17   S    
C29   H15   S    
C31   H17   S    
C5    C10   A    
C11   C13   A    
C6    C26   A    
Cu1   N1    S    
Cu2   O4    S    
C8    O15   S    
C29   H14   S    
C14   C34   S    
C32   H20   S    
C10   C11   A    
C1    O1    A    
O13   C31   S    
N1    O11   S    
Cu1   O5    S    
C7    C13   A    
Cu1   Cu2   S    
Cu2   O2    S    
C14   C15   D    
C18   H3    S    
C2    C9    A    
C13   O14   S    
