data_mof_unit_56333.cif
_audit_creation_date              2012-10-26T21:11:04-0400
_audit_creation_method            fapswitch 2.2
_symmetry_space_group_name_H-M    P1
_symmetry_Int_Tables_number       1
_space_group_crystal_system       triclinic
_cell_length_a                    10.956601
_cell_length_b                    11.028398
_cell_length_c                    13.369523
_cell_angle_alpha                 91.510495
_cell_angle_beta                  92.461139
_cell_angle_gamma                 89.110301
_cell_volume                      1613.27106558

loop_
_atom_site_label
_atom_site_type_symbol
_atom_type_description
_atom_site_fract_x
_atom_site_fract_y
_atom_site_fract_z
_atom_type_partial_charge
Br1   Br    Br    0.002672 0.280945 0.294987 -0.581371
Br2   Br    Br    0.012963 0.632208 0.774027 -0.404192
Br3   Br    Br    0.847231 0.644185 0.321857 -0.483196
Br4   Br    Br    0.160079 0.348937 0.682673 -0.506314
Br5   Br    Br    0.315058 0.268895 0.006315 -0.635279
Br6   Br    Br    0.281940 0.698046 0.922285 -0.468105
C1    C     C_R   0.507459 0.259610 0.498592 0.558464
C2    C     C_R   0.549452 0.850433 0.757925 -0.130487
C3    C     C_R   0.444125 0.111013 0.314115 -0.019044
C4    C     C_R   0.478888 0.904130 0.681108 -0.021451
C5    C     C_R   0.532221 0.152169 0.251931 -0.070093
C6    C     C_R   0.351679 0.915190 0.687345 -0.105369
C7    C     C_R   0.499671 0.187778 0.154911 0.311882
C8    C     C_R   0.293582 0.868049 0.767557 0.324994
C9    C     C_R   0.374134 0.197443 0.126584 0.167124
C10   C     C_R   0.363077 0.801316 0.837850 0.189184
C11   C     C_R   0.489259 0.930895 0.410222 -0.142381
C12   C     C_R   0.500039 0.740090 0.500864 0.563195
C13   C     C_R   0.553313 0.064554 0.580820 -0.163867
C14   C     C_R   0.507955 0.872349 0.500696 0.015769
C15   C     C_R   0.516535 0.126001 0.494691 -0.001816
C16   C     C_R   0.260564 0.487854 0.498101 0.587808
C17   C     C_R   0.740092 0.505165 0.502605 0.578431
C18   C     C_R   0.531209 0.941742 0.588434 -0.018793
C19   C     C_R   0.483532 0.056788 0.408198 -0.021415
C20   C     C_1   0.501105 0.500822 0.174216 0.188653
C21   C     C_1   0.500710 0.500896 0.825936 0.206808
C22   C     C_1   0.502419 0.501640 0.050854 0.063565
C23   C     C_R   0.873328 0.505222 0.507313 -0.004078
C24   C     C_1   0.502370 0.501332 0.949567 0.016834
C25   C     C_R   0.178853 0.635343 0.174870 0.292261
C26   C     C_R   0.733472 0.313696 0.771886 0.253765
C27   C     C_R   0.152716 0.629754 0.276809 -0.074024
C28   C     C_R   0.801751 0.329456 0.686975 -0.043707
C29   C     C_R   0.102233 0.524943 0.313663 0.056557
C30   C     C_R   0.887365 0.422595 0.684733 0.038792
C31   C     C_R   0.077054 0.424773 0.249009 0.187090
C32   C     C_R   0.914602 0.490601 0.773466 0.219433
C33   C     C_R   0.099335 0.431784 0.147741 -0.115828
C34   C     C_R   0.127149 0.481810 0.496753 0.006540
C35   C     C_R   0.861699 0.461020 0.862605 -0.123533
C36   C     C_R   0.148331 0.536496 0.110850 -0.049338
C37   C     C_R   0.770679 0.374119 0.862237 -0.156104
C38   C     C_R   0.932196 0.548413 0.424259 0.162939
C39   C     C_R   0.069434 0.440163 0.581439 0.183951
C40   C     C_3   0.653468 0.117591 0.055581 -0.043901
C41   C     C_3   0.751619 0.067745 0.129039 -0.378554
C42   C     C_3   0.130073 0.950746 0.848710 0.017757
C43   C     C_3   0.093467 0.074961 0.809798 -0.372553
C44   C     C_3   0.316894 0.792914 0.192517 0.001329
C45   C     C_R   0.942695 0.454197 0.588718 -0.013905
C46   C     C_3   0.401466 0.858989 0.125324 -0.347756
C47   C     C_3   0.567372 0.205054 0.828572 -0.045856
C48   C     C_3   0.433372 0.181023 0.801052 -0.319187
C49   C     C_R   0.056378 0.526061 0.415287 -0.014476
C50   C     C_R   0.285921 0.157875 0.190219 -0.117901
C51   C     C_R   0.490905 0.798264 0.836520 -0.159331
C52   C     C_R   0.320746 0.112915 0.283415 -0.132780
Cu1   Cu    Cu3+1 0.499990 0.499990 0.592680 1.090156
Cu2   Cu    Cu3+1 0.500010 0.500010 0.407320 1.037891
H1    H     H_    0.161200 0.539664 0.031619 0.223478
H2    H     H_    0.884043 0.512326 0.930950 0.156120
H3    H     H_    0.190182 0.161328 0.167017 0.182837
H4    H     H_    0.544285 0.749593 0.892789 0.120316
H5    H     H_    0.252135 0.080032 0.331569 0.156974
H6    H     H_    0.647750 0.842531 0.753744 0.141061
H7    H     H_    0.704796 0.145838 0.990929 0.137783
H8    H     H_    0.590138 0.044629 0.028051 0.124644
H9    H     H_    0.711220 0.005383 0.181929 0.141033
H10   H     H_    0.820424 0.014207 0.087214 0.130922
H11   H     H_    0.798950 0.143195 0.170388 0.217037
H12   H     H_    0.723643 0.364454 0.930689 0.128402
H13   H     H_    0.199753 0.961962 0.911595 0.145822
H14   H     H_    0.048816 0.910202 0.880902 0.199309
H15   H     H_    0.019099 0.066357 0.751034 0.178125
H16   H     H_    0.061263 0.134196 0.872062 0.148393
H17   H     H_    0.173679 0.116812 0.777603 0.194512
H18   H     H_    0.373473 0.724831 0.234595 0.133845
H19   H     H_    0.277318 0.859648 0.246146 0.132163
H20   H     H_    0.348256 0.923250 0.077316 0.181358
H21   H     H_    0.470859 0.910248 0.170991 0.089004
H22   H     H_    0.450688 0.792575 0.077419 0.169802
H23   H     H_    0.626400 0.155251 0.279472 0.143952
H24   H     H_    0.567388 0.255844 0.900664 0.194398
H25   H     H_    0.617470 0.116948 0.834466 0.117686
H26   H     H_    0.417744 0.150118 0.722746 0.163965
H27   H     H_    0.398577 0.111066 0.850302 0.132772
H28   H     H_    0.379739 0.266458 0.808637 0.237879
H29   H     H_    0.297272 0.958401 0.628316 0.138506
H30   H     H_    0.471228 0.878686 0.342125 0.118692
H31   H     H_    0.586944 0.112764 0.645532 0.185344
H32   H     H_    0.166512 0.707880 0.326561 0.112706
H33   H     H_    0.775120 0.281350 0.617904 0.125656
H34   H     H_    0.075801 0.356983 0.096875 0.172544
N1    N     N_1   0.500030 0.500030 0.268070 -0.178761
N2    N     N_1   0.499970 0.499970 0.731930 -0.118976
O1    O     O_R   0.499980 0.319630 0.578260 -0.455234
O2    O     O_3   0.167449 0.874107 0.768570 -0.492504
O3    O     O_3   0.221293 0.739639 0.133074 -0.514357
O4    O     O_3   0.615457 0.273239 0.752737 -0.567139
O5    O     O_R   0.500020 0.680370 0.421740 -0.517184
O6    O     O_R   0.500000 0.319650 0.421740 -0.499120
O7    O     O_R   0.500000 0.680350 0.578260 -0.490279
O8    O     O_R   0.319630 0.500000 0.578260 -0.436257
O9    O     O_R   0.680370 0.500000 0.421740 -0.440470
O10   O     O_R   0.319650 0.500020 0.421740 -0.523754
O11   O     O_R   0.680350 0.499980 0.578260 -0.518642
O12   O     O_3   0.589891 0.221930 0.092433 -0.559552

loop_
_geom_bond_atom_site_label_1
_geom_bond_atom_site_label_2
_ccdc_geom_bond_type
C2    H6    S    
C37   H12   S    
C25   C36   A    
C28   H33   S    
C44   H19   S    
C3    C19   S    
C41   H10   S    
C47   C48   S    
C44   O3    S    
C47   H24   S    
Cu1   O8    S    
C17   C23   S    
C13   C15   A    
C48   H27   S    
C39   C45   A    
C17   O9    A    
C11   C14   A    
C16   O8    A    
C3    C52   A    
C41   H9    S    
C14   C18   A    
C50   C52   A    
C1    O6    A    
C40   O12   S    
C44   C46   S    
C43   H15   S    
C25   O3    S    
C12   C14   S    
Br1   C31   S    
C10   C51   A    
C17   O11   A    
Cu1   Cu2   S    
C21   C24   S    
C35   C37   A    
C21   N2    T    
C35   H2    S    
C7    O12   S    
Cu2   O6    S    
C44   H18   S    
C8    O2    S    
C33   C36   A    
Br4   C39   S    
C47   O4    S    
C34   C39   A    
Br3   C38   S    
C50   H3    S    
C29   C49   S    
C42   H14   S    
C6    H29   S    
C32   C35   A    
C27   H32   S    
C48   H26   S    
C5    H23   S    
C1    C15   S    
Cu1   O11   S    
C26   O4    S    
C12   O5    A    
C26   C28   A    
C33   H34   S    
C40   H8    S    
C2    C51   A    
Br2   C32   S    
C52   H5    S    
C34   C49   A    
C16   C34   S    
C25   C27   A    
C43   H16   S    
C46   H22   S    
C3    C5    A    
C36   H1    S    
C41   H11   S    
C30   C45   S    
C4    C6    A    
C42   C43   S    
C6    C8    A    
C7    C9    A    
C23   C38   A    
Cu1   O1    S    
C8    C10   A    
Cu1   N2    S    
Cu2   O5    S    
Cu2   O10   S    
C51   H4    S    
C23   C45   A    
C20   N1    T    
C15   C19   A    
C40   C41   S    
C1    O1    A    
C29   C31   A    
C42   H13   S    
C11   H30   S    
C42   O2    S    
C20   C22   S    
Cu1   O7    S    
C9    C50   A    
C22   C24   T    
C13   C18   A    
C11   C19   A    
C40   H7    S    
C31   C33   A    
C16   O10   A    
C48   H28   S    
C5    C7    A    
C38   C49   A    
C30   C32   A    
C27   C29   A    
C26   C37   A    
C43   H17   S    
C28   C30   A    
C12   O7    A    
C46   H21   S    
Br5   C9    S    
C13   H31   S    
Br6   C10   S    
Cu2   N1    S    
C2    C4    A    
C4    C18   S    
C47   H25   S    
C46   H20   S    
Cu2   O9    S    
