data_mof_unit_44736.cif
_audit_creation_date              2012-12-10T19:00:17-0500
_audit_creation_method            fapswitch 2.2
_symmetry_space_group_name_H-M    P1
_symmetry_Int_Tables_number       1
_space_group_crystal_system       triclinic
_cell_length_a                    9.548501
_cell_length_b                    10.815763
_cell_length_c                    13.462895
_cell_angle_alpha                 90.366907
_cell_angle_beta                  73.279789
_cell_angle_gamma                 89.826062
_cell_volume                      1331.54338654

loop_
_atom_site_label
_atom_site_type_symbol
_atom_type_description
_atom_site_fract_x
_atom_site_fract_y
_atom_site_fract_z
_atom_type_partial_charge
C1    C     C_R   0.500312 0.737667 0.498829 0.811594
C2    C     C_R   0.447833 0.443401 0.974192 0.081628
C3    C     C_R   0.493237 0.440799 0.864319 0.089007
C4    C     C_R   0.554199 0.463813 0.027780 0.071763
C5    C     C_R   0.704243 0.469245 0.971530 0.177887
C6    C     C_R   0.748119 0.443689 0.865893 -0.270356
C7    C     C_R   0.644385 0.424820 0.813818 -0.194897
C8    C     C_R   0.515898 0.483253 0.135152 -0.269987
C9    C     C_R   0.769763 0.508571 0.129414 -0.198966
C10   C     C_R   0.385354 0.451917 0.809943 -0.091363
C11   C     C_R   0.376361 0.937039 0.494524 0.017905
C12   C     C_R   0.424077 0.484798 0.698641 0.805010
C13   C     C_R   0.503741 0.870761 0.489799 -0.060236
C14   C     C_R   0.636706 0.934922 0.470828 -0.212633
C15   C     C_R   0.637094 0.063836 0.470587 -0.230668
C16   C     C_R   0.504522 0.129293 0.489469 -0.061670
C17   C     C_R   0.376740 0.064032 0.495122 0.085703
C18   C     C_3   0.227711 0.072686 0.570674 0.349435
C19   C     C_3   0.227469 0.931769 0.570591 -0.525661
C20   C     C_R   0.942040 0.400695 0.461797 0.180406
C21   C     C_R   0.905611 0.591079 0.548520 -0.080768
C22   C     C_R   0.054397 0.590971 0.548662 -0.101099
C23   C     C_R   0.500848 0.262404 0.498406 0.834786
C24   C     C_R   0.089508 0.400818 0.461512 0.241751
C25   C     C_3   0.138388 0.351054 0.353423 0.225339
C26   C     C_3   0.978550 0.349226 0.354481 -0.562431
C27   C     C_R   0.577786 0.501742 0.300227 0.794646
C28   C     C_R   0.809453 0.497036 0.021989 -0.207984
C29   C     C_R   0.622606 0.498657 0.186694 -0.042456
C30   C     C_R   0.238051 0.432530 0.864128 -0.183398
C31   C     C_R   0.197426 0.410529 0.970228 -0.164572
C32   C     C_R   0.298793 0.422212 0.025683 -0.184922
Cu1   Cu    Cu3+1 0.359330 0.500020 0.500010 0.960231
Cu2   Cu    Cu3+1 0.640670 0.499980 0.499990 0.935471
H1    H     H_    0.853732 0.525620 0.167309 0.147688
H2    H     H_    0.739747 0.111535 0.460369 0.160006
H3    H     H_    0.147458 0.115805 0.535119 0.116178
H4    H     H_    0.228556 0.890075 0.645703 0.217014
H5    H     H_    0.145394 0.892209 0.535380 0.152802
H6    H     H_    0.834489 0.666021 0.586263 0.146314
H7    H     H_    0.094319 0.665553 0.586754 0.146935
H8    H     H_    0.206398 0.418741 0.298994 0.085577
H9    H     H_    0.954344 0.414789 0.298351 0.179039
H10   H     H_    0.863166 0.437042 0.823400 0.137088
H11   H     H_    0.933807 0.254767 0.352682 0.202762
H12   H     H_    0.922040 0.509970 0.977677 0.133588
H13   H     H_    0.403344 0.488175 0.180003 0.140045
H14   H     H_    0.154426 0.432231 0.824225 0.143203
H15   H     H_    0.258065 0.409413 0.108192 0.101696
H16   H     H_    0.086159 0.386752 0.011038 0.135383
H17   H     H_    0.686425 0.392422 0.734978 0.186185
H18   H     H_    0.739233 0.886225 0.460645 0.159593
N1    N     N_R   0.852320 0.499070 0.499340 -0.182663
N2    N     N_R   0.148230 0.499110 0.499340 -0.215203
O1    O     O_R   0.381190 0.680360 0.500000 -0.578777
O2    O     O_R   0.618780 0.680320 0.499990 -0.591072
O3    O     O_R   0.323230 0.500000 0.650990 -0.578067
O4    O     O_R   0.560820 0.499960 0.650980 -0.593588
O5    O     O_R   0.381220 0.319680 0.500010 -0.550183
O6    O     O_R   0.618810 0.319640 0.500000 -0.598123
O7    O     O_R   0.439180 0.500040 0.349020 -0.590844
O8    O     O_R   0.676770 0.500000 0.349010 -0.583334
O9    O     O_3   0.233673 0.123286 0.666476 -0.552798
C33   C     C_3   0.092414 0.161485 0.724345 -0.315828
H19   H     H_    0.012719 0.084255 0.735118 0.157597
H20   H     H_    0.055044 0.241567 0.686914 0.154179
H21   H     H_    0.096280 0.191964 0.802333 0.190340
O10   O     O_3   0.199061 0.231436 0.351193 -0.606140
C34   C     C_3   0.261641 0.194065 0.247155 0.050173
H22   H     H_    0.355526 0.254675 0.209154 0.145958
H23   H     H_    0.178790 0.197490 0.203357 0.148755
C35   C     C_3   0.318568 0.061613 0.244499 -0.332304
H24   H     H_    0.407147 0.058572 0.282784 0.219597
H25   H     H_    0.228517 0.000245 0.287410 0.220280
C36   C     C_3   0.379152 0.014145 0.133323 -0.903077
H26   H     H_    0.291943 0.013614 0.093669 0.258164
H27   H     H_    0.420830 0.918278 0.134009 0.258416
H28   H     H_    0.470550 0.073549 0.089473 0.258950

loop_
_geom_bond_atom_site_label_1
_geom_bond_atom_site_label_2
_ccdc_geom_bond_type
Cu1   O1    S    
Cu2   O2    S    
C27   C29   S    
C4    C8    A    
C22   N2    A    
C23   O5    A    
C28   H12   S    
C8    C29   A    
C19   H5    S    
C30   H14   S    
C19   H4    S    
C1    O2    A    
C3    C7    A    
C5    C6    A    
C18   O9    S    
C22   H7    S    
C16   C17   A    
C24   N2    A    
C15   C16   A    
Cu2   O8    S    
C2    C32   A    
C18   C19   S    
C34   H23   S    
C27   O7    A    
C26   H11   S    
C14   H18   S    
C20   C24   A    
O10   C34   S    
C9    C29   A    
C35   H24   S    
C12   O4    A    
Cu1   O5    S    
C6    H10   S    
C13   C14   A    
Cu2   O6    S    
C25   O10   S    
C35   C36   S    
C26   H9    S    
Cu1   Cu2   S    
C23   O6    A    
C33   H21   S    
C24   C25   S    
C35   H25   S    
C20   N1    A    
C25   C26   S    
C33   H20   S    
C34   C35   S    
C2    C4    A    
C36   H26   S    
C27   O8    A    
C5    C28   A    
C10   C30   A    
C31   C32   A    
C11   C19   S    
C17   C18   S    
C36   H27   S    
C10   C12   S    
C12   O3    A    
C16   C23   S    
C1    C13   S    
C31   H16   S    
C15   H2    S    
Cu2   O4    S    
Cu1   N2    S    
C11   C17   A    
Cu1   O3    S    
C18   H3    S    
C4    C5    A    
C25   H8    S    
C6    C7    A    
C33   H19   S    
C2    C3    A    
C1    O1    A    
C8    H13   S    
C7    H17   S    
C3    C10   A    
C21   N1    A    
C11   C13   A    
C30   C31   A    
C21   H6    S    
C20   C26   S    
C34   H22   S    
C36   H28   S    
C32   H15   S    
O9    C33   S    
Cu2   N1    S    
Cu1   O7    S    
C9    H1    S    
C14   C15   A    
C21   C22   A    
C9    C28   A    
