data_mof_unit_36933.cif
_audit_creation_date              2012-12-11T16:20:20-0500
_audit_creation_method            fapswitch 2.2
_symmetry_space_group_name_H-M    P1
_symmetry_Int_Tables_number       1
_space_group_crystal_system       triclinic
_cell_length_a                    6.924055
_cell_length_b                    34.361197
_cell_length_c                    38.277789
_cell_angle_alpha                 99.56893
_cell_angle_beta                  89.597191
_cell_angle_gamma                 90.418966
_cell_volume                      8979.89817192

loop_
_atom_site_label
_atom_site_type_symbol
_atom_type_description
_atom_site_fract_x
_atom_site_fract_y
_atom_site_fract_z
_atom_type_partial_charge
O1    O     O_R   0.494320 0.461440 0.460990 -0.537176
O2    O     O_R   0.821450 0.462560 0.532500 -0.549730
O3    O     O_R   0.994330 0.538560 0.539010 -0.541907
C1    C     C_R   0.651870 0.453883 0.543781 0.753402
O4    O     O_R   0.823870 0.456770 0.460860 -0.505493
O5    O     O_R   0.996760 0.532730 0.466860 -0.535448
C2    C     C_R   0.655233 0.446296 0.447747 0.805811
O6    O     O_R   0.491880 0.467270 0.533140 -0.541145
O7    O     O_3   0.661650 0.524930 0.502050 -0.382555
V1    V     V_3+5 0.935500 0.495380 0.499620 1.477397
O8    O     O_R   0.326630 0.537440 0.467500 -0.544870
C3    C     C_R   0.158512 0.546090 0.456091 0.738438
O9    O     O_R   0.324210 0.543230 0.539140 -0.547534
C4    C     C_R   0.155250 0.553885 0.552141 0.720221
V2    V     V_3+5 0.435810 0.504620 0.500380 1.431804
O10   O     O_3   0.159790 0.475070 0.497950 -0.362517
C5    C     C_R   0.011568 0.832752 0.792277 0.588482
N1    N     N_R   0.058226 0.824143 0.824844 -0.551230
C6    C     C_R   0.124081 0.787524 0.828540 0.598342
C7    C     C_R   0.147511 0.757628 0.798537 -0.167829
C8    C     C_R   0.094247 0.765902 0.764983 -0.067194
C9    C     C_R   0.028851 0.803885 0.761709 -0.012785
C10   C     C_R   0.223507 0.719853 0.800788 0.455273
C11   C     C_R   0.222305 0.690051 0.770931 -0.193848
C12   C     C_R   0.166017 0.697920 0.737666 -0.113128
C13   C     C_R   0.107837 0.736267 0.734495 -0.017865
C14   C     C_R   0.063767 0.745062 0.700818 -0.014916
C15   C     C_R   0.003187 0.783312 0.697859 -0.151859
C16   C     C_R   0.983936 0.812231 0.727965 -0.129309
C17   C     C_R   0.168898 0.668386 0.707298 0.627818
N2    N     N_R   0.126397 0.677328 0.674530 -0.541431
C18   C     C_R   0.082216 0.715349 0.670845 0.599218
O11   O     O_2   0.949042 0.869194 0.789468 -0.508198
O12   O     O_2   0.163745 0.780041 0.861210 -0.486177
H1    H     H_    0.272816 0.660986 0.773787 0.200437
O13   O     O_2   0.212712 0.630992 0.710630 -0.500446
O14   O     O_2   0.059081 0.724609 0.638259 -0.540143
H2    H     H_    0.967897 0.790899 0.672311 0.167446
H3    H     H_    0.934654 0.841233 0.724663 0.178055
C19   C     C_R   0.965974 0.637745 0.622093 0.480000
C20   C     C_R   0.973733 0.606674 0.592746 -0.311796
H4    H     H_    0.845361 0.598761 0.577136 0.129286
C21   C     C_R   0.146109 0.585916 0.583484 -0.092832
C22   C     C_R   0.309779 0.595703 0.604669 -0.193922
H5    H     H_    0.444352 0.580110 0.598497 0.149186
C23   C     C_R   0.301347 0.625208 0.634520 -0.160437
H6    H     H_    0.429112 0.631752 0.650618 0.190803
C24   C     C_R   0.130854 0.646516 0.643583 0.292214
C25   C     C_R   0.863143 0.862470 0.872722 -0.160208
H7    H     H_    0.736282 0.845732 0.862720 0.136825
C26   C     C_R   0.847334 0.891888 0.902758 0.595803
C27   C     C_R   0.011229 0.914079 0.916195 -0.199043
C28   C     C_R   0.189927 0.905653 0.898783 -0.222233
H8    H     H_    0.318609 0.922156 0.908023 0.216657
C29   C     C_R   0.205057 0.876091 0.868996 -0.066119
H9    H     H_    0.343891 0.870165 0.856073 0.147483
C30   C     C_R   0.041846 0.854421 0.855711 0.288321
C31   C     C_R   0.991485 0.866360 0.183529 0.652409
O15   O     O_2   0.941791 0.904538 0.192634 -0.529805
N3    N     N_R   0.032887 0.851845 0.148773 -0.519489
C32   C     C_R   0.087131 0.813410 0.138539 0.746478
C33   C     C_R   0.860787 0.876528 0.100498 0.644363
C34   C     C_R   0.851149 0.901332 0.074950 -0.275661
C35   C     C_R   0.167311 0.927811 0.092449 -0.304015
C36   C     C_R   0.173898 0.904288 0.119242 0.424332
C37   C     C_R   0.022671 0.877601 0.122570 0.169338
C38   C     C_R   0.053114 0.801739 0.199323 -0.114742
C39   C     C_R   0.999184 0.841606 0.209642 -0.100352
C40   C     C_R   0.956909 0.855575 0.245674 0.405496
C41   C     C_R   0.099918 0.787806 0.163592 -0.142278
C42   C     C_R   0.004976 0.927049 0.070470 -0.190003
H10   H     H_    0.287401 0.947386 0.089464 0.164687
C43   C     C_R   0.150487 0.573243 0.429563 -0.058579
C44   C     C_R   0.985381 0.761729 0.284154 -0.049642
C45   C     C_R   0.167143 0.713615 0.241722 0.065812
C46   C     C_R   0.083265 0.725200 0.275794 0.004283
C47   C     C_R   0.877067 0.769186 0.316325 0.379484
C48   C     C_R   0.893091 0.744072 0.341455 -0.211968
C49   C     C_R   0.004383 0.709827 0.334695 -0.090369
C50   C     C_R   0.098105 0.700084 0.301732 -0.060973
C51   C     C_R   0.207284 0.665223 0.294770 -0.024269
C52   C     C_R   0.219245 0.640638 0.320746 0.590355
N4    N     N_R   0.125332 0.650420 0.352650 -0.556127
C53   C     C_R   0.019947 0.684487 0.359966 0.595794
C54   C     C_R   0.311643 0.616142 0.393394 -0.080532
C55   C     C_R   0.319802 0.590854 0.418544 -0.193596
C56   C     C_R   0.973119 0.581573 0.414669 -0.178939
C57   C     C_R   0.965383 0.606730 0.389460 -0.079559
C58   C     C_R   0.134383 0.624283 0.378608 0.366643
O16   O     O_2   0.931251 0.694023 0.391709 -0.528144
C59   C     C_R   0.998171 0.788976 0.259892 0.021499
C60   C     C_R   0.061781 0.775815 0.224712 0.001571
C61   C     C_R   0.135653 0.737051 0.214827 -0.084609
C62   C     C_R   0.960489 0.829506 0.270191 -0.238662
H11   H     H_    0.458850 0.585200 0.429395 0.129530
H12   H     H_    0.443404 0.629563 0.385500 0.130822
H13   H     H_    0.813867 0.751364 0.366161 0.185270
H14   H     H_    0.945689 0.842270 0.297781 0.189720
O17   O     O_2   0.129839 0.800037 0.104213 -0.480425
C63   C     C_R   0.155580 0.748460 0.153466 -0.145871
H15   H     H_    0.723922 0.900208 0.058507 0.186439
H16   H     H_    0.185230 0.736674 0.125925 0.210064
C64   C     C_R   0.284329 0.679602 0.236235 -0.101151
C65   C     C_R   0.303077 0.655819 0.262171 -0.150497
O18   O     O_2   0.321564 0.606934 0.313886 -0.513874
C66   C     C_R   0.172911 0.723353 0.178367 0.605238
H17   H     H_    0.370688 0.671622 0.212636 0.207292
H18   H     H_    0.839918 0.568489 0.422323 0.133403
H19   H     H_    0.393789 0.629955 0.256519 0.183672
H20   H     H_    0.827480 0.612469 0.378214 0.130007
C67   C     C_R   0.589060 0.308057 0.634858 0.675787
O19   O     O_2   0.574652 0.293820 0.599953 -0.512169
N5    N     N_R   0.612200 0.347907 0.645643 -0.541293
C68   C     C_R   0.633316 0.363360 0.680775 0.783530
C69   C     C_R   0.790060 0.395578 0.615548 0.621195
C70   C     C_R   0.801042 0.420863 0.590562 -0.282274
C71   C     C_R   0.469157 0.405462 0.574146 -0.320607
C72   C     C_R   0.459022 0.378225 0.598126 0.461664
C73   C     C_R   0.620083 0.374072 0.619589 0.140067
C74   C     C_R   0.609454 0.297483 0.696127 -0.199053
C75   C     C_R   0.582407 0.281955 0.659909 -0.178840
C76   C     C_R   0.553869 0.240831 0.649746 0.358884
C77   C     C_R   0.637637 0.338491 0.706597 -0.158983
C78   C     C_R   0.640606 0.426314 0.569767 -0.178045
H21   H     H_    0.343909 0.410399 0.558776 0.142891
C79   C     C_R   0.513822 0.073311 0.929746 -0.057010
C80   C     C_R   0.528529 0.208207 0.738872 0.005989
C81   C     C_R   0.669986 0.260890 0.782724 -0.023867
C82   C     C_R   0.591061 0.222313 0.773878 0.006310
C83   C     C_R   0.429188 0.171741 0.732255 -0.172546
C84   C     C_R   0.407550 0.148151 0.758339 0.661885
C85   C     C_R   0.484132 0.160299 0.792354 -0.163750
C86   C     C_R   0.575448 0.197558 0.800131 -0.141097
C87   C     C_R   0.651256 0.210058 0.834179 -0.059855
C88   C     C_R   0.635538 0.185227 0.859862 0.599220
N6    N     N_R   0.546924 0.149093 0.851943 -0.571282
C89   C     C_R   0.471299 0.136386 0.818980 0.663247
C90   C     C_R   0.704333 0.108433 0.890916 -0.068987
C91   C     C_R   0.693724 0.083458 0.916263 -0.190917
C92   C     C_R   0.345052 0.089000 0.917315 -0.188357
C93   C     C_R   0.356050 0.113980 0.891962 -0.078104
C94   C     C_R   0.535662 0.123802 0.878508 0.358760
O20   O     O_2   0.386582 0.100488 0.811896 -0.451097
C95   C     C_R   0.560312 0.231669 0.711994 -0.077478
C96   C     C_R   0.607940 0.272076 0.721987 0.002205
C97   C     C_R   0.654763 0.287222 0.757720 -0.015296
C98   C     C_R   0.549314 0.216108 0.675481 0.486702
H22   H     H_    0.826572 0.071927 0.925113 0.128608
H23   H     H_    0.843952 0.115599 0.880668 0.126065
H24   H     H_    0.358504 0.161609 0.707331 0.218535
O21   O     O_2   0.649698 0.402801 0.690638 -0.418729
C99   C     C_R   0.667066 0.353608 0.742628 0.673494
H25   H     H_    0.934593 0.436792 0.587996 0.171833
C100  C     C_R   0.762996 0.271126 0.816086 0.381288
C101  C     C_R   0.746688 0.246475 0.841585 -0.196282
O22   O     O_2   0.707359 0.197243 0.892591 -0.522019
C102  C     C_R   0.676135 0.328418 0.767506 -0.238963
H26   H     H_    0.204158 0.081898 0.927060 0.128436
H27   H     H_    0.815154 0.255716 0.867009 0.189648
H28   H     H_    0.224667 0.125723 0.882734 0.124976
H29   H     H_    0.689349 0.342268 0.794807 0.212737
C103  C     C_R   0.707823 0.180693 0.193776 0.617004
N7    N     N_R   0.545043 0.177980 0.173095 -0.548379
C104  C     C_R   0.396949 0.204410 0.181396 0.583195
C105  C     C_R   0.410123 0.234842 0.210986 -0.028741
C106  C     C_R   0.573206 0.236924 0.233045 -0.016618
C107  C     C_R   0.722765 0.209554 0.224490 -0.088851
C108  C     C_R   0.263756 0.263066 0.219087 -0.140305
C109  C     C_R   0.278783 0.292792 0.248658 -0.072118
C110  C     C_R   0.438860 0.294647 0.271309 -0.006280
C111  C     C_R   0.586764 0.266511 0.263591 -0.088654
C112  C     C_R   0.747460 0.267900 0.286328 -0.155462
C113  C     C_R   0.896341 0.239692 0.277893 0.439740
C114  C     C_R   0.884579 0.211689 0.246595 -0.242879
C115  C     C_R   0.454445 0.324125 0.301476 0.696803
N8    N     N_R   0.608298 0.324811 0.324015 -0.540068
C116  C     C_R   0.752585 0.297280 0.317093 0.646399
O23   O     O_2   0.855984 0.155694 0.184607 -0.516942
O24   O     O_2   0.235967 0.201055 0.161446 -0.507465
H30   H     H_    0.136871 0.262321 0.202594 0.166669
H31   H     H_    0.162674 0.313942 0.254015 0.158008
O25   O     O_2   0.317397 0.352162 0.307969 -0.490140
O26   O     O_2   0.898967 0.298009 0.340257 -0.449577
H32   H     H_    0.003833 0.191609 0.239672 0.180838
C117  C     C_R   0.471516 0.359764 0.380932 0.717728
C118  C     C_R   0.483120 0.389556 0.410710 -0.337892
H33   H     H_    0.366179 0.392568 0.429901 0.195786
C119  C     C_R   0.645355 0.414680 0.416119 -0.280807
C120  C     C_R   0.795562 0.409593 0.390756 0.612965
C121  C     C_R   0.781555 0.380446 0.360555 -0.204213
H34   H     H_    0.896883 0.377603 0.341054 0.218116
C122  C     C_R   0.620056 0.355145 0.355276 0.128891
C123  C     C_R   0.489536 0.155069 0.108725 -0.059846
H35   H     H_    0.469820 0.185291 0.104882 0.153298
C124  C     C_R   0.476126 0.124624 0.079479 -0.272942
H36   H     H_    0.443947 0.131829 0.053653 0.140907
C125  C     C_R   0.508362 0.085285 0.083334 -0.124367
C126  C     C_R   0.553249 0.076620 0.117040 0.351587
C127  C     C_R   0.556185 0.107081 0.146564 -0.167087
H37   H     H_    0.582149 0.099862 0.172609 0.142963
C128  C     C_R   0.529192 0.146628 0.142670 0.312340
O27   O     O_R   0.662230 0.032770 0.966890 -0.543755
O28   O     O_R   0.330090 0.043230 0.039150 -0.543607
O29   O     O_R   0.157350 0.967260 0.033130 -0.537220
C129  C     C_R   0.498676 0.053626 0.052123 0.745057
O30   O     O_R   0.332650 0.037450 0.967510 -0.547853
O31   O     O_R   0.159930 0.961430 0.960980 -0.541460
C130  C     C_R   0.502249 0.046153 0.956188 0.700382
O32   O     O_R   0.659640 0.038600 0.039040 -0.544649
O33   O     O_3   0.492510 0.975090 0.997960 -0.348338
V3    V     V_3+5 0.218600 0.004620 0.000380 1.447018
O34   O     O_R   0.830050 0.956730 0.960830 -0.498942
C131  C     C_R   0.999176 0.945996 0.947808 0.766819
O35   O     O_R   0.827490 0.962520 0.032470 -0.542027
C132  C     C_R   0.995770 0.953809 0.043754 0.764868
V4    V     V_3+5 0.718310 0.995320 0.999580 1.504217
O36   O     O_3   0.994270 0.024900 0.002040 -0.383968
O37   O     O_3   0.296782 0.710983 0.832061 -0.524492
C133  C     C_3   0.489860 0.724986 0.836389 0.180862
H38   H     H_    0.522337 0.729917 0.865161 0.189791
H39   H     H_    0.513814 0.753940 0.827411 0.095249
C134  C     C_3   0.632845 0.694662 0.817762 -0.726744
H40   H     H_    0.618797 0.691736 0.788576 0.210519
H41   H     H_    0.782649 0.704420 0.825036 0.213071
H42   H     H_    0.606330 0.665529 0.825899 0.258152
F1    F     F_    0.672168 0.898166 0.918700 -0.688547
O38   O     O_3   0.330180 0.906098 0.141769 -0.517535
C135  C     C_3   0.337547 0.943809 0.163162 0.100259
H43   H     H_    0.192036 0.954429 0.172910 0.146541
H44   H     H_    0.403565 0.965633 0.148189 0.141648
C136  C     C_3   0.460046 0.941674 0.195457 -0.648360
H45   H     H_    0.607501 0.931835 0.186982 0.261948
H46   H     H_    0.468854 0.971263 0.212244 0.166972
H47   H     H_    0.394504 0.920505 0.211170 0.231700
O39   O     O_3   0.930839 0.895472 0.257730 -0.530308
C137  C     C_3   0.736974 0.902186 0.268643 0.140606
H48   H     H_    0.704784 0.889097 0.292745 0.119963
H49   H     H_    0.635376 0.889716 0.247134 0.122322
C138  C     C_3   0.703634 0.946412 0.277724 -0.670414
H50   H     H_    0.741702 0.960824 0.254681 0.238501
H51   H     H_    0.549446 0.952207 0.284766 0.177204
H52   H     H_    0.794775 0.959243 0.300580 0.221094
O40   O     O_3   0.750457 0.800455 0.323376 -0.562808
C139  C     C_3   0.561195 0.786522 0.315037 0.091939
H53   H     H_    0.514993 0.764995 0.332284 0.130098
H54   H     H_    0.550664 0.772328 0.286708 0.127572
C140  C     C_3   0.423089 0.821215 0.321355 -0.676875
H55   H     H_    0.449740 0.840934 0.301592 0.202143
H56   H     H_    0.272090 0.810344 0.318866 0.185662
H57   H     H_    0.442922 0.838171 0.348442 0.237150
F2    F     F_    0.711430 0.851679 0.104052 -0.620720
F3    F     F_    0.209840 0.684907 0.165579 -0.665601
O41   O     O_3   0.290858 0.357510 0.603379 -0.502243
C141  C     C_3   0.201304 0.341798 0.570921 0.164843
H58   H     H_    0.308736 0.330302 0.549932 0.107856
H59   H     H_    0.110535 0.364617 0.561770 0.105451
C142  C     C_3   0.070027 0.307707 0.576514 -0.605000
H60   H     H_    0.963657 0.317560 0.597871 0.248543
H61   H     H_    0.991584 0.296304 0.551674 0.173143
H62   H     H_    0.157355 0.283642 0.584124 0.218820
O42   O     O_3   0.544046 0.224119 0.614293 -0.507457
C143  C     C_3   0.352460 0.211466 0.606118 0.193352
H63   H     H_    0.245565 0.234672 0.616609 0.086108
H64   H     H_    0.318262 0.184278 0.617201 0.177460
C144  C     C_3   0.330851 0.201961 0.566083 -0.645664
H65   H     H_    0.429605 0.177605 0.555034 0.232402
H66   H     H_    0.179821 0.192729 0.559299 0.180745
H67   H     H_    0.366457 0.228376 0.553997 0.234292
F4    F     F_    0.310134 0.113454 0.749903 -0.598939
F5    F     F_    0.554662 0.176565 0.663937 -0.666029
F6    F     F_    0.946102 0.391926 0.635966 -0.619470
F7    F     F_    0.688147 0.392935 0.754300 -0.596088
O43   O     O_3   0.881617 0.303884 0.823700 -0.553896
C145  C     C_3   0.070310 0.293074 0.811785 0.073363
H68   H     H_    0.073517 0.283038 0.782554 0.129084
H69   H     H_    0.127074 0.269185 0.825272 0.126769
C146  C     C_3   0.203288 0.328694 0.820436 -0.596725
H70   H     H_    0.199442 0.340072 0.849338 0.237552
H71   H     H_    0.353388 0.320049 0.812638 0.168385
H72   H     H_    0.157226 0.352349 0.805805 0.242711
O44   O     O_3   0.063277 0.242520 0.298013 -0.519746
C147  C     C_3   0.098313 0.207268 0.311501 0.163459
H73   H     H_    0.992776 0.182853 0.303052 0.077153
H74   H     H_    0.090261 0.214094 0.340869 0.170081
C148  C     C_3   0.301040 0.192753 0.300949 -0.715765
H75   H     H_    0.409078 0.215790 0.311248 0.236715
H76   H     H_    0.331460 0.165680 0.312199 0.179900
H77   H     H_    0.314176 0.185819 0.271657 0.213480
F8    F     F_    0.316407 0.335078 0.377371 -0.617984
O45   O     O_3   0.796054 0.657984 0.632075 -0.552704
C149  C     C_3   0.712535 0.672284 0.603056 0.084705
H78   H     H_    0.619067 0.649117 0.587891 0.112005
H79   H     H_    0.823244 0.681815 0.584835 0.144576
C150  C     C_3   0.587653 0.707914 0.616860 -0.610078
H80   H     H_    0.678612 0.732564 0.630336 0.237528
H81   H     H_    0.511674 0.717805 0.594466 0.185374
H82   H     H_    0.478867 0.700292 0.636044 0.218088
F9    F     F_    0.953558 0.433519 0.394548 -0.655877
O46   O     O_3   0.580811 0.038036 0.121728 -0.570595
C151  C     C_3   0.780453 0.031824 0.125694 0.081096
H83   H     H_    0.851391 0.056180 0.144196 0.142572
H84   H     H_    0.853968 0.028734 0.099448 0.131406
C152  C     C_3   0.808357 0.994058 0.140714 -0.706836
H85   H     H_    0.746424 0.997408 0.167870 0.225677
H86   H     H_    0.735957 0.969007 0.123656 0.231026
H87   H     H_    0.964722 0.987810 0.141945 0.172352

loop_
_geom_bond_atom_site_label_1
_geom_bond_atom_site_label_2
_ccdc_geom_bond_type
C112  C116  A    
C8    C13   A    
C9    C16   A    
C6    C7    A    
C29   H9    S    
C96   C97   A    
C152  H86   S    
C97   C102  A    
O28   C129  A    
O29   C132  A    
C147  H73   S    
C103  N7    A    
C54   H12   S    
C31   N3    A    
C123  C128  A    
C139  H53   S    
C145  H68   S    
C52   O18   S    
C66   F3    S    
C141  H59   S    
C77   C99   A    
O8    V2    S    
N7    C128  S    
C149  H78   S    
C25   C26   A    
O1    V2    S    
C81   C100  A    
C127  H37   S    
C8    C9    A    
C45   C64   A    
C20   C21   A    
C135  H43   S    
C22   C23   A    
C91   H22   S    
C23   C24   A    
C26   C27   A    
C11   H1    S    
C117  F8    S    
C92   C93   A    
C114  H32   S    
C85   C89   A    
C108  H30   S    
C100  O43   S    
C45   C46   A    
O38   C135  S    
C67   N5    A    
V4    O36   S    
C100  C101  A    
C104  O24   S    
C107  C114  A    
C82   C86   A    
C108  C109  A    
C34   C42   A    
N2    C24   S    
C29   C30   A    
C21   C22   A    
C151  H83   S    
C45   C61   A    
C117  C122  A    
C140  H57   S    
C19   C24   A    
C99   C102  A    
C104  C105  A    
O35   C132  A    
C95   C96   A    
C63   C66   A    
C141  C142  S    
C139  C140  S    
C17   O13   S    
C83   C84   A    
O7    V2    S    
C148  H76   S    
C115  N8    A    
V1    O10   S    
C59   C62   A    
C150  H80   S    
C38   C60   A    
C136  H47   S    
C55   H11   S    
C124  H36   S    
O34   C131  A    
C123  H35   S    
C64   H17   S    
C118  H33   S    
C135  C136  S    
C4    C21   S    
C121  H34   S    
C67   O19   S    
C81   C82   A    
C54   C55   A    
C44   C46   A    
C149  H79   S    
N1    C6    A    
C98   F5    S    
O41   C141  S    
C69   F6    S    
C113  O44   S    
C110  C111  A    
C69   C70   A    
C25   C30   A    
C137  H48   S    
C1    C78   S    
C142  H60   S    
C92   H26   S    
N2    C18   A    
C44   C47   A    
C83   H24   S    
C10   C11   A    
C129  O32   A    
O7    V1    S    
C151  C152  S    
C146  H70   S    
O31   V3    S    
O28   V3    S    
C53   O16   S    
C48   H13   S    
C95   C98   A    
C90   H23   S    
N4    C58   S    
C79   C91   A    
C33   C37   A    
C101  H27   S    
C59   C60   A    
C120  F9    S    
C134  H42   S    
C12   C13   A    
C88   O22   S    
O2    C1    A    
C80   C82   A    
C72   O41   S    
C61   C66   A    
N4    C53   A    
C7    C10   A    
C26   F1    S    
C5    N1    A    
C138  H51   S    
C18   O14   S    
C7    C8    A    
C134  H41   S    
C144  H66   S    
C68   C77   A    
C69   C73   A    
C74   C75   A    
N8    C116  A    
C47   O40   S    
C46   C50   A    
N6    C89   A    
C28   H8    S    
C143  H63   S    
C147  H74   S    
C137  C138  S    
C142  H62   S    
O9    V2    S    
C40   O39   S    
C71   C72   A    
C133  C134  S    
C81   C97   A    
C42   C132  S    
C139  H54   S    
C145  H69   S    
C125  C126  A    
C103  O23   S    
C147  C148  S    
C25   H7    S    
C146  H72   S    
C3    C43   S    
C71   H21   S    
C124  C125  A    
C32   C41   A    
C56   C57   A    
O42   C143  S    
C145  C146  S    
C20   H4    S    
C125  C129  S    
C138  H50   S    
C126  O46   S    
C143  C144  S    
C135  H44   S    
C88   N6    A    
C47   C48   A    
C27   C28   A    
C13   C14   A    
C15   C16   A    
C71   C78   A    
O5    C3    A    
C17   N2    A    
O30   C130  A    
C62   H14   S    
O40   C139  S    
C148  H75   S    
O45   C149  S    
C35   C42   A    
C43   C56   A    
N6    C94   S    
N5    C73   S    
C79   C130  S    
C39   C40   A    
O39   C137  S    
C19   O45   S    
C74   C77   A    
C34   H15   S    
C57   H20   S    
N3    C37   S    
C74   C96   A    
C5    O11   S    
C68   O21   S    
C151  H84   S    
C152  H87   S    
C110  C115  A    
C140  H56   S    
V3    O36   S    
C38   C39   A    
C150  H82   S    
C40   C62   A    
C90   C94   A    
C133  H38   S    
O4    C2    A    
C54   C58   A    
C31   O15   S    
C116  O26   S    
N3    C32   A    
C44   C59   A    
O46   C151  S    
C141  H58   S    
N1    C30   S    
O8    C3    A    
C136  H46   S    
C76   C98   A    
C109  H31   S    
C70   H25   S    
C87   C88   A    
O3    C4    A    
C31   C39   A    
C33   F2    S    
O6    V2    S    
C86   C87   A    
C118  C119  A    
C84   C85   A    
C102  H29   S    
C22   H5    S    
N5    C68   A    
C12   C17   A    
C23   H6    S    
C121  C122  A    
C70   C78   A    
C14   C18   A    
O1    C2    A    
C36   O38   S    
O5    V1    S    
C76   O42   S    
C5    C9    A    
C35   C36   A    
C38   C41   A    
C117  C118  A    
C49   C53   A    
O33   V4    S    
O29   V3    S    
C60   C61   A    
C137  H49   S    
O35   V4    S    
C80   C95   A    
C120  C121  A    
C90   C91   A    
C52   N4    A    
C64   C65   A    
C127  C128  A    
C111  C112  A    
C105  C106  A    
C67   C75   A    
C109  C110  A    
N7    C104  A    
C1    O6    A    
C51   C52   A    
C113  C114  A    
C79   C92   A    
C33   C34   A    
C148  H77   S    
C65   H19   S    
N8    C122  S    
V2    O10   S    
O31   C131  A    
C72   C73   A    
O30   V3    S    
C56   H18   S    
C152  H85   S    
C85   C86   A    
C123  C124  A    
C126  C127  A    
C144  H65   S    
C57   C58   A    
C89   O20   S    
C10   O37   S    
C106  C111  A    
O27   C130  A    
C32   O17   S    
C41   C63   A    
C28   C29   A    
O32   V4    S    
O34   V4    S    
C2    C119  S    
C149  C150  S    
C11   C12   A    
C48   C49   A    
C143  H64   S    
O44   C147  S    
C103  C107  A    
C119  C120  A    
C142  H61   S    
C133  H39   S    
C93   H28   S    
C84   F4    S    
C15   H2    S    
C16   H3    S    
C63   H16   S    
O43   C145  S    
C75   C76   A    
C115  O25   S    
C19   C20   A    
C36   C37   A    
C105  C108  A    
C146  H71   S    
C106  C107  A    
O2    V1    S    
C14   C15   A    
C112  C113  A    
C87   C101  A    
C50   C51   A    
C6    O12   S    
C140  H55   S    
C80   C83   A    
O4    V1    S    
O3    V1    S    
C93   C94   A    
C150  H81   S    
O37   C133  S    
C99   F7    S    
C27   C131  S    
C138  H52   S    
C35   H10   S    
C134  H40   S    
C144  H67   S    
C43   C55   A    
C49   C50   A    
O33   V3    S    
C136  H45   S    
O27   V4    S    
O9    C4    A    
C51   C65   A    
