data_mof_unit_38373.cif
_audit_creation_date              2012-12-11T14:34:12-0500
_audit_creation_method            fapswitch 2.2
_symmetry_space_group_name_H-M    P1
_symmetry_Int_Tables_number       1
_space_group_crystal_system       triclinic
_cell_length_a                    14.137562
_cell_length_b                    14.207118
_cell_length_c                    27.262216
_cell_angle_alpha                 89.871774
_cell_angle_beta                  90.743609
_cell_angle_gamma                 119.815519
_cell_volume                      4750.45194035

loop_
_atom_site_label
_atom_site_type_symbol
_atom_type_description
_atom_site_fract_x
_atom_site_fract_y
_atom_site_fract_z
_atom_type_partial_charge
C1    C     C_R   0.257508 0.770990 0.574350 0.527675
C2    C     C_1   0.711573 0.866913 0.859903 0.060955
C3    C     C_3   0.478247 0.852822 0.866267 -0.056946
C4    C     C_3   0.194183 0.732230 0.886517 -0.124676
C5    C     C_3   0.369623 0.550346 0.845842 0.027536
C6    C     C_3   0.702561 0.073558 0.115382 -0.067719
C7    C     C_3   0.958133 0.628689 0.112446 -0.097345
C8    C     C_3   0.374317 0.315307 0.114831 -0.072052
C9    C     C_3   0.726590 0.180366 0.231411 -0.028614
C10   C     C_3   0.820263 0.538448 0.221376 -0.066668
C11   C     C_3   0.473349 0.284296 0.227395 -0.020509
C12   C     C_3   0.533757 0.654694 0.091048 -0.091735
C13   C     C_1   0.109547 0.867875 0.854271 0.094392
C14   C     C_3   0.367301 0.919893 0.110407 -0.093343
C15   C     C_3   0.090890 0.449205 0.104212 -0.097468
C16   C     C_3   0.589391 0.504298 0.306525 0.006398
C17   C     C_3   0.509488 0.015180 0.314577 -0.030106
C18   C     C_3   0.979689 0.489142 0.310242 -0.022023
C19   C     C_3   0.865480 0.984518 0.648346 0.014544
C20   C     C_3   0.028290 0.846981 0.633161 -0.042470
C21   C     C_3   0.155483 0.151564 0.637427 -0.037708
C22   C     C_3   0.707656 0.056554 0.672970 -0.023892
C23   C     C_3   0.963924 0.626292 0.669264 -0.041779
C24   C     C_1   0.114267 0.235522 0.853379 0.125062
C25   C     C_3   0.369713 0.309983 0.680456 -0.021499
C26   C     C_3   0.712313 0.639340 0.683487 0.044538
C27   C     C_3   0.367366 0.051563 0.678144 0.032990
C28   C     C_3   0.948935 0.292345 0.661962 -0.003557
C29   C     C_1   0.616833 0.805596 0.660239 0.054509
C30   C     C_1   0.215039 0.791944 0.666483 0.082845
C31   C     C_1   0.200905 0.392754 0.662045 0.073260
C32   C     C_1   0.591226 0.788471 0.617800 0.018136
C33   C     C_1   0.236215 0.782807 0.624599 0.014518
C34   C     C_1   0.207148 0.418309 0.619665 0.008436
C35   C     C_R   0.106873 0.221025 0.088455 0.596922
C36   C     C_R   0.216448 0.454259 0.570308 0.521130
C37   C     C_R   0.779024 0.885779 0.087682 0.591843
C38   C     C_R   0.115412 0.894007 0.088382 0.589765
C39   C     C_R   0.069246 0.161494 0.943533 0.535440
C40   C     C_R   0.781483 0.887574 0.950714 0.520289
C41   C     C_R   0.090537 0.928237 0.943347 0.528542
C42   C     C_R   0.656314 0.893335 0.364081 0.341580
C43   C     C_R   0.088305 0.752870 0.367024 0.340953
C44   C     C_R   0.255064 0.345594 0.367054 0.417402
C45   C     C_R   0.680487 0.911457 0.313861 -0.025905
C46   C     C_R   0.070253 0.768384 0.317322 -0.011581
C47   C     C_R   0.549602 0.763125 0.569256 0.527824
C48   C     C_R   0.242719 0.314603 0.317242 0.028036
C49   C     C_R   0.714463 0.944511 0.211936 -0.017547
C50   C     C_R   0.049407 0.773806 0.214142 -0.011772
C51   C     C_R   0.234338 0.282299 0.214490 0.002632
C52   C     C_R   0.231761 0.789677 0.432598 0.568264
C53   C     C_R   0.210424 0.442857 0.432397 0.580807
C54   C     C_R   0.549684 0.763521 0.430622 0.601936
C55   C     C_R   0.749009 0.034067 0.244350 0.292056
C56   C     C_R   0.956929 0.707225 0.243140 0.301168
C57   C     C_R   0.304576 0.261341 0.244589 0.313972
C58   C     C_3   0.656465 0.740973 0.791511 0.276042
C59   C     C_R   0.739101 0.016936 0.295119 0.396514
C60   C     C_R   0.967788 0.707777 0.294511 0.384962
C61   C     C_R   0.308034 0.277735 0.295667 0.452717
C62   C     C_R   0.734506 0.958661 0.161267 0.229030
C63   C     C_R   0.042668 0.776467 0.162433 0.235146
C64   C     C_R   0.227382 0.266448 0.163045 0.234192
C65   C     C_R   0.716918 0.868789 0.132354 -0.032956
C66   C     C_R   0.132731 0.855723 0.135998 -0.040822
C67   C     C_R   0.148302 0.278135 0.135514 -0.038738
C68   C     C_R   0.550526 0.699464 0.348036 0.314982
C69   C     C_3   0.250686 0.923882 0.792421 0.264902
C70   C     C_R   0.264542 0.915555 0.363828 0.357559
C71   C     C_R   0.087826 0.352649 0.361478 0.357095
C72   C     C_R   0.582282 0.715083 0.299492 -0.028454
C73   C     C_R   0.257250 0.918595 0.312904 -0.028707
C74   C     C_R   0.086545 0.343358 0.310488 -0.019719
C75   C     C_R   0.641855 0.821636 0.281423 -0.163886
C76   C     C_R   0.159331 0.843263 0.289189 -0.175188
C77   C     C_R   0.165095 0.324636 0.288037 -0.173403
C78   C     C_R   0.553728 0.625426 0.268590 0.320591
C79   C     C_R   0.348229 0.990190 0.285191 0.349334
C80   C     C_3   0.058812 0.313391 0.785306 0.286020
C81   C     C_R   0.013272 0.359989 0.281444 0.355150
C82   C     C_R   0.574621 0.641394 0.218860 0.415213
C83   C     C_R   0.341924 0.985325 0.234245 0.430359
C84   C     C_R   0.020184 0.360840 0.230611 0.428564
C85   C     C_R   0.628068 0.746712 0.199434 0.010380
C86   C     C_R   0.243622 0.913610 0.210018 0.003129
C87   C     C_R   0.093512 0.335856 0.207744 0.012992
C88   C     C_3   0.551008 0.835465 0.739591 0.754731
C89   C     C_3   0.171190 0.714380 0.752321 0.756212
C90   C     C_3   0.273320 0.437053 0.749862 0.699913
C91   C     C_3   0.649124 0.729176 0.734830 0.551727
C92   C     C_R   0.661978 0.837800 0.230924 -0.141712
C93   C     C_R   0.150534 0.843655 0.237713 -0.151464
C94   C     C_R   0.164654 0.314459 0.236681 -0.140758
C95   C     C_R   0.653667 0.762947 0.149650 0.259547
C96   C     C_R   0.235528 0.914250 0.158789 0.263702
C97   C     C_R   0.092700 0.326193 0.156675 0.266538
C98   C     C_R   0.589955 0.787445 0.380715 0.001321
C99   C     C_R   0.190632 0.821232 0.388893 -0.006938
C100  C     C_R   0.181870 0.373635 0.388055 -0.008166
C101  C     C_3   0.757476 0.937982 0.721104 0.472360
C102  C     C_3   0.273563 0.915797 0.737696 0.559451
C103  C     C_3   0.067835 0.803426 0.713738 0.459119
C104  C     C_3   0.185376 0.241362 0.715694 0.467120
C105  C     C_3   0.786987 0.937613 0.777262 0.804398
C106  C     C_3   0.053406 0.841865 0.766311 0.819378
C107  C     C_3   0.137136 0.192413 0.767394 0.806718
C108  C     C_1   0.738361 0.874629 0.902283 0.029914
C109  C     C_1   0.099516 0.896487 0.894561 0.047297
C110  C     C_1   0.093799 0.200893 0.894481 0.051950
C111  C     C_3   0.644195 0.828574 0.712373 -0.115471
C112  C     C_3   0.181249 0.804554 0.716070 -0.102467
C113  C     C_3   0.072331 0.338584 0.729555 0.560571
C114  C     C_3   0.185804 0.353716 0.712840 -0.088548
C115  C     C_3   0.585002 0.876449 0.794323 0.449109
C116  C     C_3   0.120891 0.718787 0.803192 0.423158
C117  C     C_3   0.260210 0.384473 0.802547 0.404777
C118  C     C_3   0.685237 0.858059 0.807278 -0.158124
C119  C     C_3   0.132359 0.837062 0.805906 -0.160976
C120  C     C_3   0.142758 0.280099 0.803443 -0.114821
C121  C     C_3   0.661493 0.058668 0.832503 -0.013945
C122  C     C_3   0.955969 0.598321 0.844852 0.014066
C123  C     C_3   0.353787 0.321330 0.856229 -0.038944
Cr1   Cr    Cr6+3 0.164410 0.584450 0.499910 1.114013
Cr2   Cr    Cr6+3 0.415550 0.579960 0.499910 1.128662
Cr3   Cr    Cr6+3 0.420040 0.835590 0.499910 1.110752
Cr4   Cr    Cr6+3 0.155170 0.075460 0.019960 1.054537
Cr5   Cr    Cr6+3 0.924540 0.079710 0.019960 1.052113
Cr6   Cr    Cr6+3 0.920290 0.844830 0.019960 1.068770
F1    F     F_    0.457070 0.734660 0.738565 -0.434082
F2    F     F_    0.784217 0.104350 0.325690 -0.529988
F3    F     F_    0.877294 0.651001 0.322020 -0.608159
F4    F     F_    0.369703 0.250413 0.324447 -0.544485
F5    F     F_    0.544569 0.552859 0.190213 -0.646981
F6    F     F_    0.433038 0.052536 0.208980 -0.626448
F7    F     F_    0.952310 0.383737 0.204072 -0.636908
F8    F     F_    0.523893 0.902399 0.714039 -0.533707
F9    F     F_    0.108771 0.614362 0.731416 -0.494371
F10   F     F_    0.376898 0.472372 0.733477 -0.530145
F11   F     F_    0.473778 0.598535 0.362751 -0.571113
F12   F     F_    0.273117 0.724886 0.759848 -0.414289
F13   F     F_    0.348997 0.999042 0.388284 -0.528640
F14   F     F_    0.002957 0.352193 0.384648 -0.522915
F15   F     F_    0.831959 0.040023 0.797192 -0.497346
F16   F     F_    0.946682 0.778599 0.781723 -0.444929
F17   F     F_    0.192707 0.144879 0.787911 -0.463671
F18   F     F_    0.866356 0.908218 0.782754 -0.391839
F19   F     F_    0.072022 0.946879 0.763817 -0.385637
F20   F     F_    0.029590 0.110906 0.762263 -0.394126
F21   F     F_    0.552696 0.633958 0.724100 -0.561481
F22   F     F_    0.372810 0.918728 0.737862 -0.532788
F23   F     F_    0.261622 0.528085 0.752176 -0.446507
F24   F     F_    0.070323 0.434303 0.724659 -0.543054
F25   F     F_    0.730515 0.712493 0.810436 -0.520566
F26   F     F_    0.274550 0.028222 0.804044 -0.517804
F27   F     F_    0.952674 0.236413 0.795566 -0.521794
F28   F     F_    0.691910 0.977435 0.396294 -0.542798
F29   F     F_    0.009982 0.669270 0.392953 -0.567225
F30   F     F_    0.340448 0.354030 0.394055 -0.512482
H1    H     H_    0.576755 0.682876 0.807413 0.150914
H2    H     H_    0.441123 0.349124 0.863610 0.136091
H3    H     H_    0.325787 0.353779 0.886276 0.107413
H4    H     H_    0.309863 0.231591 0.858046 0.207903
H5    H     H_    0.450704 0.911530 0.857448 0.167135
H6    H     H_    0.550670 0.888343 0.890721 0.051508
H7    H     H_    0.413283 0.786795 0.887712 0.115103
H8    H     H_    0.117664 0.715025 0.904392 0.087442
H9    H     H_    0.255298 0.819771 0.887659 0.089513
H10   H     H_    0.227634 0.690785 0.909446 0.135817
H11   H     H_    0.436158 0.531235 0.850760 0.126307
H12   H     H_    0.307111 0.908832 0.815305 0.157583
H13   H     H_    0.369143 0.594023 0.879390 0.106403
H14   H     H_    0.388162 0.606484 0.814863 0.292338
H15   H     H_    0.739002 0.158870 0.102988 0.163336
H16   H     H_    0.632035 0.056102 0.138945 0.109179
H17   H     H_    0.673203 0.020607 0.082266 0.073928
H18   H     H_    0.876656 0.564588 0.099407 0.152770
H19   H     H_    0.992904 0.589149 0.136155 0.107464
H20   H     H_    0.010039 0.663859 0.079731 0.089324
H21   H     H_    0.428085 0.286891 0.099476 0.150238
H22   H     H_    0.425037 0.385129 0.139491 0.175573
H23   H     H_    0.074044 0.387297 0.805974 0.213005
H24   H     H_    0.342336 0.342476 0.083691 0.081225
H25   H     H_    0.727966 0.208612 0.269475 0.200045
H26   H     H_    0.641667 0.120627 0.219999 0.119684
H27   H     H_    0.753337 0.251102 0.206848 0.189757
H28   H     H_    0.802476 0.503639 0.258813 0.141560
H29   H     H_    0.881616 0.522354 0.204229 0.157479
H30   H     H_    0.743993 0.495256 0.199220 0.153942
H31   H     H_    0.506932 0.276857 0.263258 0.189096
H32   H     H_    0.496124 0.369889 0.220290 0.152082
H33   H     H_    0.512632 0.261037 0.198584 0.172564
H34   H     H_    0.726674 0.136253 0.817464 0.239197
H35   H     H_    0.550512 0.723723 0.066425 0.066509
H36   H     H_    0.463563 0.636001 0.115143 0.109926
H37   H     H_    0.509979 0.582398 0.067601 0.135873
H38   H     H_    0.307059 0.857120 0.084824 0.068844
H39   H     H_    0.393167 0.881452 0.139280 0.105154
H40   H     H_    0.440411 0.974359 0.088868 0.129864
H41   H     H_    0.150701 0.445058 0.079442 0.079555
H42   H     H_    0.133804 0.516298 0.131347 0.098809
H43   H     H_    0.037371 0.468271 0.081210 0.130432
H44   H     H_    0.551706 0.424868 0.325261 0.218260
H45   H     H_    0.699546 0.031093 0.859932 0.111540
H46   H     H_    0.640710 0.566704 0.334400 0.196753
H47   H     H_    0.641247 0.502383 0.276901 0.113513
H48   H     H_    0.527879 0.989591 0.279130 0.063206
H49   H     H_    0.587364 0.075173 0.332278 0.230762
H50   H     H_    0.469778 0.944011 0.339400 0.137698
H51   H     H_    0.054050 0.523646 0.334074 0.147465
H52   H     H_    0.918272 0.501405 0.329493 0.249378
H53   H     H_    0.999447 0.533604 0.274906 0.068706
H54   H     H_    0.911650 0.073430 0.652460 0.215712
H55   H     H_    0.792841 0.958088 0.624614 0.033854
H56   H     H_    0.604402 0.078500 0.851228 0.094014
H57   H     H_    0.917731 0.960651 0.628577 0.119093
H58   H     H_    0.938141 0.803026 0.634710 0.157040
H59   H     H_    0.059410 0.798757 0.614971 0.087837
H60   H     H_    0.052877 0.918244 0.609243 0.104660
H61   H     H_    0.196427 0.104263 0.645649 0.205436
H62   H     H_    0.208972 0.228348 0.618353 0.070939
H63   H     H_    0.088836 0.103537 0.610881 0.095757
H64   H     H_    0.667289 0.102518 0.684698 0.184323
H65   H     H_    0.646730 0.985339 0.652968 0.134918
H66   H     H_    0.768696 0.106957 0.645857 0.062941
H67   H     H_    0.869202 0.538463 0.837047 0.169938
H68   H     H_    0.915666 0.542563 0.683579 0.196359
H69   H     H_    0.040396 0.634099 0.656648 0.155248
H70   H     H_    0.918439 0.630043 0.636724 0.050591
H71   H     H_    0.450111 0.354049 0.699457 0.204225
H72   H     H_    0.357761 0.370353 0.660629 0.138800
H73   H     H_    0.377240 0.257276 0.652980 0.059637
H74   H     H_    0.655160 0.636243 0.654332 0.123697
H75   H     H_    0.677561 0.560716 0.703168 0.176800
H76   H     H_    0.785538 0.652272 0.664456 0.120504
H77   H     H_    0.385806 0.992104 0.660626 0.163237
H78   H     H_    0.956014 0.664060 0.866623 0.125098
H79   H     H_    0.441202 0.115141 0.697465 0.173901
H80   H     H_    0.347006 0.088955 0.647306 0.070803
H81   H     H_    0.007307 0.374975 0.648812 0.163117
H82   H     H_    0.872303 0.290982 0.671685 0.147296
H83   H     H_    0.934505 0.239371 0.629756 0.074729
H84   H     H_    0.989977 0.554307 0.865618 0.136360
O1    O     O_R   0.137150 0.468200 0.553200 -0.517193
O2    O     O_R   0.140110 0.470540 0.446010 -0.438361
O3    O     O_R   0.529460 0.669570 0.446010 -0.432787
O4    O     O_R   0.330430 0.859890 0.446010 -0.438197
O5    O     O_R   0.176710 0.690910 0.450560 -0.447775
O6    O     O_R   0.309090 0.485800 0.450560 -0.416585
O7    O     O_R   0.514200 0.823290 0.450560 -0.465530
O8    O     O_3   0.333333 0.666667 0.499990 -0.344051
O9    O     O_R   0.176750 0.985260 0.074180 -0.437318
O10   O     O_R   0.014740 0.191490 0.074180 -0.436099
O11   O     O_R   0.808510 0.823250 0.074180 -0.437946
O12   O     O_R   0.531800 0.668950 0.553200 -0.512382
O13   O     O_R   0.146100 0.172630 0.068980 -0.465132
O14   O     O_R   0.827370 0.973470 0.068980 -0.477268
O15   O     O_R   0.026530 0.853900 0.068980 -0.463585
O16   O     O_3   0.000000 0.000000 0.020040 -0.285934
O17   O     O_R   0.148270 0.170520 0.969620 -0.533518
O18   O     O_R   0.829480 0.977750 0.969620 -0.533933
O19   O     O_R   0.022250 0.851730 0.969620 -0.514588
O20   O     O_3   0.606880 0.987123 0.792787 -0.471066
O21   O     O_3   0.008576 0.636192 0.799687 -0.459334
O22   O     O_3   0.344098 0.356133 0.808508 -0.483074
O23   O     O_R   0.331050 0.862850 0.553200 -0.505795
O24   O     O_3   0.492372 0.806952 0.823211 -0.519733
O25   O     O_3   0.178733 0.689704 0.838500 -0.482809
O26   O     O_3   0.265366 0.457359 0.840096 -0.583771
O27   O     O_3   0.783150 0.061616 0.141243 -0.466316
O28   O     O_3   0.945567 0.707850 0.138251 -0.477355
O29   O     O_3   0.289492 0.228772 0.140528 -0.474983
O30   O     O_3   0.798854 0.139207 0.226782 -0.468452
O31   O     O_3   0.853883 0.650114 0.221956 -0.482150
O32   O     O_3   0.359723 0.212855 0.224746 -0.467931
O33   O     O_3   0.627174 0.675666 0.118810 -0.464750
O34   O     O_R   0.179100 0.982980 0.967000 -0.525576
O35   O     O_3   0.325667 0.982379 0.131274 -0.453286
O36   O     O_3   0.025512 0.349444 0.127887 -0.460830
O37   O     O_3   0.506113 0.520941 0.286708 -0.517668
O38   O     O_3   0.445294 0.064652 0.307452 -0.449132
O39   O     O_3   0.934689 0.377021 0.302356 -0.466205
O40   O     O_3   0.842689 0.934708 0.694675 -0.415324
O41   O     O_3   0.074318 0.884261 0.680144 -0.467708
O42   O     O_3   0.109815 0.166464 0.680260 -0.487165
O43   O     O_3   0.757503 0.039152 0.714948 -0.462230
O44   O     O_3   0.970519 0.698905 0.706741 -0.490238
O45   O     O_R   0.017020 0.196120 0.967000 -0.504405
O46   O     O_3   0.290248 0.246517 0.715677 -0.463127
O47   O     O_3   0.741672 0.725417 0.717100 -0.410811
O48   O     O_3   0.278710 0.004722 0.710977 -0.432004
O49   O     O_3   0.984684 0.253819 0.702357 -0.441860
O50   O     O_R   0.803880 0.820900 0.967000 -0.504961
O51   O     O_R   0.173970 0.688730 0.549930 -0.508390
O52   O     O_R   0.311270 0.485240 0.549930 -0.503945
O53   O     O_R   0.514760 0.826030 0.549930 -0.507218

loop_
_geom_bond_atom_site_label_1
_geom_bond_atom_site_label_2
_ccdc_geom_bond_type
C8    H22   S    
C26   H76   S    
C44   C48   A    
C80   C120  S    
C91   O47   S    
Cr1   O5    S    
C80   C113  S    
C55   C59   A    
C81   C84   A    
C6    O27   S    
C85   C95   A    
C20   H58   S    
C107  C120  S    
C102  C112  S    
C37   O11   A    
C84   C87   A    
C88   F1    S    
C43   F29   S    
C5    H14   S    
C12   O33   S    
C105  F15   S    
C46   C76   A    
C23   H69   S    
C2    C118  S    
C1    C33   S    
C25   H73   S    
C22   H66   S    
C69   C102  S    
C113  O49   S    
C115  O20   S    
C16   H47   S    
C14   H39   S    
C89   C112  S    
C59   F2    S    
C69   F26   S    
C106  F16   S    
C21   H62   S    
C1    O51   A    
Cr3   O23   S    
C121  H56   S    
C66   C96   A    
C41   O19   A    
C18   H51   S    
C37   O14   A    
C43   C99   A    
C19   H57   S    
Cr1   O8    S    
C17   H50   S    
C42   C98   A    
C123  H2    S    
C122  H78   S    
C6    H16   S    
C122  H67   S    
C87   C94   A    
C38   O15   A    
C77   C94   A    
C58   C118  S    
C106  F19   S    
C7    H18   S    
C11   H32   S    
C11   H33   S    
C69   H12   S    
C91   C111  S    
Cr1   O2    S    
Cr2   O12   S    
C8    H21   S    
C72   C78   A    
C58   F25   S    
C15   H42   S    
C23   O44   S    
C88   C111  S    
C84   F7    S    
C39   C110  S    
C38   O9    A    
C1    O23   A    
C38   C66   S    
C122  O21   S    
C74   C77   A    
C37   C65   S    
C28   H81   S    
C13   C109  T    
C5    H11   S    
C3    H6    S    
C26   O47   S    
C51   C57   A    
C35   C67   S    
Cr1   O1    S    
C16   H44   S    
C64   O29   S    
C58   C91   S    
C31   C114  S    
C83   F6    S    
C30   C33   T    
C104  O42   S    
C40   C108  S    
C17   O38   S    
C14   O35   S    
C54   O3    A    
C63   C66   A    
C20   O41   S    
C41   C109  S    
C50   C63   A    
C12   H37   S    
C60   F3    S    
Cr2   O3    S    
C14   H40   S    
C28   H83   S    
C10   O31   S    
C72   C75   A    
Cr1   O51   S    
C52   O5    A    
C22   O43   S    
C121  H34   S    
C123  O22   S    
Cr2   O52   S    
C85   C92   A    
C115  O24   S    
C80   F27   S    
Cr3   O53   S    
C57   O32   S    
C53   C100  S    
C101  C105  S    
C14   H38   S    
C25   H71   S    
C70   F13   S    
C10   H30   S    
C55   O30   S    
C4    H10   S    
C101  O40   S    
C24   C120  S    
C27   H80   S    
Cr4   O13   S    
C36   O1    A    
Cr5   O16   S    
Cr2   O8    S    
C24   C110  T    
C28   O49   S    
C90   F23   S    
C16   H46   S    
C61   F4    S    
C117  C120  S    
C123  H3    S    
C5    O26   S    
C6    H15   S    
Cr6   O16   S    
C49   C55   A    
C36   O52   A    
C22   H65   S    
C21   H61   S    
C50   C56   A    
C95   O33   S    
C56   C60   A    
C7    H19   S    
C25   O46   S    
C103  C112  S    
C19   H54   S    
C42   C45   A    
C48   C77   A    
C82   F5    S    
C18   H53   S    
C90   C117  S    
C47   O12   A    
C116  O21   S    
C86   C93   A    
C76   C93   A    
C71   C74   A    
C123  H4    S    
C40   O18   A    
C78   C82   A    
C23   H68   S    
C18   O39   S    
C9    H27   S    
Cr6   O50   S    
C68   C72   A    
C115  C118  S    
C11   O32   S    
C70   C73   A    
Cr5   O10   S    
C54   O7    A    
C31   C34   T    
C7    H20   S    
C53   O6    A    
Cr5   O18   S    
Cr4   O34   S    
C63   O28   S    
C47   O53   A    
C3    O24   S    
C103  O44   S    
C23   H70   S    
C86   C96   A    
C27   H77   S    
C62   O27   S    
C104  C114  S    
C3    H5    S    
C8    H24   S    
C25   H72   S    
C10   H28   S    
C80   H23   S    
C56   O31   S    
C35   O13   A    
C32   C47   S    
Cr4   O16   S    
C21   H63   S    
C68   F11   S    
C42   F28   S    
C79   O38   S    
C28   H82   S    
C121  O20   S    
C49   C92   A    
Cr6   O19   S    
Cr3   O8    S    
C52   O4    A    
C75   C92   A    
C103  O41   S    
C90   F10   S    
C15   H43   S    
C19   O40   S    
C70   C99   A    
C26   H74   S    
C106  C119  S    
C71   F14   S    
C113  C114  S    
C22   H64   S    
C9    O30   S    
C104  O46   S    
C107  F17   S    
C45   C59   A    
C49   C62   A    
C62   C65   A    
C46   C60   A    
Cr3   O4    S    
Cr5   O45   S    
C20   H59   S    
C29   C111  S    
C17   H49   S    
C64   C67   A    
C51   C64   A    
C121  H45   S    
C113  F24   S    
C116  O25   S    
C54   C98   S    
C91   F21   S    
C117  O26   S    
C116  C119  S    
C50   C93   A    
C57   C61   A    
C122  H84   S    
C39   O45   A    
C101  C111  S    
C73   C79   A    
C13   C119  S    
C71   C100  A    
C102  F22   S    
C52   C99   S    
C9    H26   S    
C4    H8    S    
C45   C75   A    
Cr3   O7    S    
C17   H48   S    
C96   O35   S    
C12   H36   S    
C11   H31   S    
C88   C115  S    
C15   O36   S    
C18   H52   S    
C97   O36   S    
C78   O37   S    
C29   C32   T    
C16   O37   S    
C9    H25   S    
C58   H1    S    
Cr5   O14   S    
C79   C83   A    
C15   H41   S    
C44   C100  A    
C26   H75   S    
C48   C61   A    
C6    H17   S    
Cr2   O6    S    
C89   F12   S    
C81   O39   S    
C2    C108  T    
C73   C76   A    
C5    H13   S    
C69   C119  S    
C101  O43   S    
Cr6   O15   S    
C103  C106  S    
C34   C36   S    
C90   C114  S    
C40   O50   A    
C105  C118  S    
C43   C46   A    
C68   C98   A    
C88   F8    S    
C89   C116  S    
C19   H55   S    
C41   O34   A    
C39   O17   A    
C67   C97   A    
C51   C94   A    
C7    O28   S    
C107  F20   S    
C4    O25   S    
C4    H9    S    
C65   C95   A    
C83   C86   A    
Cr6   O11   S    
C27   H79   S    
C53   O2    A    
C8    O29   S    
C89   F9    S    
C30   C112  S    
C35   O10   A    
C44   F30   S    
Cr4   O17   S    
Cr4   O9    S    
C74   C81   A    
C27   O48   S    
C20   H60   S    
C21   O42   S    
C10   H29   S    
C104  C107  S    
C117  O22   S    
C82   C85   A    
C3    H7    S    
C12   H35   S    
C102  O48   S    
C87   C97   A    
C105  F18   S    
