data_mof_unit_50881.cif
_audit_creation_date              2013-03-05T16:36:42-0500
_audit_creation_method            fapswitch 2.2
_symmetry_space_group_name_H-M    P1
_symmetry_Int_Tables_number       1
_space_group_crystal_system       triclinic
_cell_length_a                    7.817587
_cell_length_b                    9.093754
_cell_length_c                    17.118386
_cell_angle_alpha                 89.575081
_cell_angle_beta                  93.01051
_cell_angle_gamma                 90.008809
_cell_volume                      1215.25385747

loop_
_atom_site_label
_atom_site_type_symbol
_atom_site_description
_atom_site_fract_x
_atom_site_fract_y
_atom_site_fract_z
_atom_type_partial_charge
O1    O     O_R   0.642760 0.288400 0.500000 -0.577617
O2    O     O_R   0.357240 0.711600 0.500000 -0.577608
O3    O     O_R   0.357190 0.288380 0.500000 -0.577985
O4    O     O_R   0.642810 0.711620 0.500000 -0.577979
C1    C     C_R   0.499974 0.220153 0.500002 0.839550
C2    C     C_R   0.500026 0.779847 0.499998 0.839573
O5    O     O_R   0.658410 0.498660 0.613920 -0.549840
O6    O     O_R   0.341590 0.501340 0.386080 -0.549841
O7    O     O_R   0.372840 0.498650 0.613930 -0.596678
O8    O     O_R   0.627160 0.501350 0.386070 -0.596691
C3    C     C_R   0.520249 0.497946 0.651390 0.847892
C4    C     C_R   0.479750 0.502034 0.348609 0.847893
Cu1   Cu    Cu3+1 0.669080 0.500010 0.500000 1.017294
Cu2   Cu    Cu3+1 0.330920 0.499990 0.500000 1.017299
N1    N     N_1   0.076820 0.499970 0.500010 -0.042140
N2    N     N_1   0.923180 0.500030 0.499990 -0.042140
C5    C     C_R   0.531000 0.503130 0.737613 -0.098063
C6    C     C_R   0.468997 0.496764 0.262386 -0.098050
C7    C     C_R   0.385905 0.545399 0.776764 -0.309360
C8    C     C_R   0.614121 0.454525 0.223246 -0.309360
C9    C     C_R   0.392871 0.560137 0.858209 0.129939
C10   C     C_R   0.607153 0.439663 0.141807 0.129895
C11   C     C_R   0.546514 0.527222 0.901599 0.238098
C12   C     C_R   0.453483 0.472439 0.098408 0.238080
C13   C     C_R   0.693901 0.490404 0.862732 0.224156
C14   C     C_R   0.306060 0.509183 0.137267 0.224148
C15   C     C_R   0.686369 0.474825 0.780917 0.018176
C16   C     C_R   0.313589 0.524886 0.219076 0.018192
N3    N     N_2   0.558321 0.534313 0.984482 -0.142642
N4    N     N_2   0.441694 0.465321 0.015526 -0.142598
C17   C     C_1   0.499984 0.065401 0.500000 -0.164809
C18   C     C_1   0.500015 0.934599 0.499999 -0.164809
H1    H     H_    0.732303 0.428739 0.256397 0.175826
H2    H     H_    0.267749 0.571300 0.743618 0.175825
N5    N     N_3   0.752459 0.384827 0.103172 -0.423800
H3    H     H_    0.716615 0.285134 0.077042 0.236648
H4    H     H_    0.852115 0.359752 0.144211 0.234468
N6    N     N_3   0.247592 0.614983 0.896862 -0.423905
H5    H     H_    0.283484 0.714625 0.923023 0.236650
H6    H     H_    0.147948 0.640135 0.855837 0.234469
N7    N     N_R   0.853945 0.479602 0.906580 0.142077
O9    O     O_R   0.953472 0.366343 0.899595 -0.322422
O10   O     O_R   0.903117 0.587938 0.951458 -0.262059
N8    N     N_R   0.146006 0.519837 0.093417 0.142027
O11   O     O_R   0.046425 0.633080 0.100338 -0.322382
O12   O     O_R   0.096975 0.411475 0.048526 -0.262127
N9    N     N_3   0.836734 0.434155 0.741494 -0.534078
H7    H     H_    0.935707 0.507381 0.756978 0.235553
H8    H     H_    0.872973 0.327764 0.758870 0.261958
N10   N     N_3   0.163173 0.565443 0.258494 -0.534133
H9    H     H_    0.064430 0.491921 0.243152 0.235341
H10   H     H_    0.126568 0.671664 0.240987 0.262089

loop_
_geom_bond_atom_site_label_1
_geom_bond_atom_site_label_2
_geom_bond_distance
_ccdc_geom_bond_type
N6    H6    1.045235 S    
O7    Cu2   1.960541 S    
N3    N4    1.246227 D    
C13   C15   1.406882 A    
N7    O10   1.299470 A    
N7    O9    1.300891 A    
C14   C16   1.406909 A    
C17   C18   1.189486 T    
O6    C4    1.284824 A    
C11   C13   1.402256 A    
N10   H9    1.045477 S    
C14   N8    1.427853 S    
N9    H8    1.044863 S    
Cu1   Cu2   2.643596 S    
O5    C3    1.284823 A    
C10   N5    1.435421 S    
O7    C3    1.289018 A    
C12   C14   1.402254 A    
O2    C2    1.277089 A    
O3    Cu2   1.935288 S    
O8    C4    1.289029 A    
O1    C1    1.277089 A    
C8    H1    1.083350 S    
C11   N3    1.418909 S    
C7    C9    1.399832 A    
C8    C10   1.399836 A    
C10   C12   1.409623 A    
C9    C11   1.409640 A    
N6    H5    1.045506 S    
O2    Cu2   1.935267 S    
C12   N4    1.418923 S    
C1    C17   1.407278 S    
O1    Cu1   1.935268 S    
C15   N9    1.435676 S    
N1    N2    1.201077 T    
C5    C15   1.412002 A    
C5    C7    1.402628 A    
O5    Cu1   1.956229 S    
C6    C16   1.412002 A    
N8    O11   1.300889 A    
C6    C8    1.402638 A    
O4    C2    1.277148 A    
C2    C18   1.407278 S    
Cu1   N2    1.986457 S    
C13   N7    1.427853 S    
N10   H10   1.044766 S    
Cu2   N1    1.986457 S    
C3    C5    1.475071 S    
O6    Cu2   1.956231 S    
N5    H3    1.045591 S    
N5    H4    1.045300 S    
C16   N10   1.435689 S    
O8    Cu1   1.960543 S    
C9    N6    1.435431 S    
N9    H7    1.045593 S    
O4    Cu1   1.935288 S    
N8    O12   1.299482 A    
O3    C1    1.277148 A    
C7    H2    1.083362 S    
C4    C6    1.475104 S    
