data_mof_unit_5131.cif
_audit_creation_date              2012-12-11T14:48:09-0500
_audit_creation_method            fapswitch 2.2
_symmetry_space_group_name_H-M    P1
_symmetry_Int_Tables_number       1
_space_group_crystal_system       triclinic
_cell_length_a                    11.481733
_cell_length_b                    11.494127
_cell_length_c                    19.510232
_cell_angle_alpha                 90.606668
_cell_angle_beta                  90.103081
_cell_angle_gamma                 60.062764
_cell_volume                      2231.12018571

loop_
_atom_site_label
_atom_site_type_symbol
_atom_type_description
_atom_site_fract_x
_atom_site_fract_y
_atom_site_fract_z
_atom_type_partial_charge
Br1   Br    Br    0.413160 0.430835 0.194543 -0.521859
C1    C     C_R   0.640808 0.117829 0.599112 0.535513
C2    C     C_1   0.653168 0.150307 0.668520 0.005730
C3    C     C_R   0.495459 0.781339 0.282058 0.181782
C4    C     C_R   0.613979 0.743163 0.597915 0.542664
C5    C     C_R   0.517242 0.747503 0.213115 -0.158423
C6    C     C_R   0.641412 0.709776 0.182699 -0.053473
C7    C     C_R   0.733732 0.736915 0.216757 0.208748
C8    C     C_R   0.713324 0.772040 0.286868 0.230323
C9    C     C_R   0.597693 0.784891 0.320515 0.040179
C10   C     C_R   0.226122 0.250444 0.291124 -0.111451
C11   C     C_R   0.197697 0.266353 0.222469 -0.111383
C12   C     C_1   0.651811 0.683113 0.664034 0.005789
C13   C     C_R   0.145936 0.193084 0.191019 0.016145
C14   C     C_R   0.129509 0.097783 0.228217 -0.129028
C15   C     C_R   0.156221 0.083201 0.297905 -0.108884
C16   C     C_R   0.298234 0.120267 0.605387 0.554524
C17   C     C_R   0.203876 0.160149 0.329637 0.026945
C18   C     C_R   0.794750 0.085445 0.305993 0.230249
C19   C     C_R   0.797685 0.095989 0.236086 -0.087444
C20   C     C_R   0.686378 0.195476 0.200014 -0.010008
C21   C     C_R   0.568998 0.285380 0.236177 0.126640
C22   C     C_R   0.562221 0.266901 0.305945 -0.137792
C23   C     C_1   0.146947 0.188640 0.863217 0.004932
C24   C     C_R   0.671949 0.162524 0.340314 -0.011563
C25   C     C_R   0.084643 0.229824 0.929319 0.538375
C26   C     C_R   0.709230 0.545926 0.922510 0.548643
C27   C     C_R   0.707834 0.206530 0.930259 0.540420
C28   C     C_R   0.647141 0.115631 0.404472 0.539911
C29   C     C_R   0.084367 0.234984 0.124635 0.550951
C30   C     C_R   0.678669 0.620835 0.122634 0.559498
C31   C     C_R   0.710082 0.213268 0.128490 0.570972
C32   C     C_R   0.580616 0.804615 0.395248 0.609825
C33   C     C_R   0.247415 0.139459 0.400248 0.551196
C34   C     C_1   0.227684 0.145140 0.735631 -0.028694
C35   C     C_1   0.699062 0.580679 0.851650 0.003259
C36   C     C_1   0.673262 0.644410 0.722227 -0.026934
C37   C     C_1   0.689446 0.608390 0.791819 -0.029216
C38   C     C_1   0.188105 0.164449 0.805103 -0.026357
C39   C     C_1   0.258899 0.133032 0.675971 0.002218
C40   C     C_1   0.677972 0.191171 0.860885 0.004386
C41   C     C_1   0.658383 0.167797 0.729000 -0.030217
C42   C     C_1   0.665135 0.181116 0.800359 -0.030531
Cr1   Cr    Cr6+3 0.404720 0.198220 0.499960 1.031065
Cr2   Cr    Cr6+3 0.698290 0.897110 0.500380 1.079876
Cr3   Cr    Cr6+3 0.396970 0.904720 0.499610 1.069133
Cr4   Cr    Cr6+3 0.926180 0.152240 0.028110 1.033714
Cr5   Cr    Cr6+3 0.921340 0.452070 0.027460 1.062875
Cr6   Cr    Cr6+3 0.626260 0.447120 0.028700 1.078733
H1    H     H_    0.891745 0.028340 0.210775 0.171404
H2    H     H_    0.881864 0.776203 0.294283 0.396228
H3    H     H_    0.910342 0.030512 0.385278 0.336485
H4    H     H_    0.468322 0.330520 0.332491 0.168577
H5    H     H_    0.440827 0.738046 0.185011 0.168997
H6    H     H_    0.266043 0.309615 0.313759 0.162945
H7    H     H_    0.210564 0.340239 0.194717 0.193807
H8    H     H_    0.090074 0.039387 0.204324 0.141075
H9    H     H_    0.139479 0.013052 0.326845 0.189173
H10   H     H_    0.321263 0.789185 0.279869 0.336086
H11   H     H_    0.821947 0.750368 0.135384 0.337927
O1    O     O_R   0.267740 0.231990 0.575440 -0.490558
O2    O     O_R   0.596140 0.579600 0.952720 -0.500749
O3    O     O_R   0.639070 0.321380 0.958660 -0.506846
O4    O     O_R   0.527280 0.186680 0.570530 -0.508125
O5    O     O_R   0.821240 0.124490 0.104360 -0.535656
O6    O     O_R   0.036900 0.167320 0.097830 -0.511233
O7    O     O_R   0.056190 0.349890 0.102870 -0.488668
O8    O     O_R   0.797670 0.565150 0.097930 -0.474569
O9    O     O_R   0.595880 0.584540 0.104260 -0.491011
O10   O     O_R   0.638830 0.325960 0.099140 -0.437858
O11   O     O_3   0.824590 0.350480 0.028090 -0.285452
O12   O     O_R   0.685970 0.784630 0.430010 -0.444187
O13   O     O_R   0.728090 0.003480 0.576380 -0.504848
O14   O     O_R   0.682970 0.789220 0.570490 -0.493610
O15   O     O_R   0.499290 0.771920 0.575530 -0.509836
O16   O     O_R   0.285330 0.030900 0.569730 -0.488686
O17   O     O_R   0.270980 0.227040 0.423900 -0.517006
O18   O     O_R   0.530280 0.182090 0.430050 -0.520696
O19   O     O_R   0.731330 0.998530 0.424830 -0.451023
O20   O     O_3   0.378343 0.802964 0.313462 -0.666748
O21   O     O_3   0.845450 0.725644 0.184015 -0.686398
O22   O     O_3   0.805220 0.791785 0.323717 -0.629392
O23   O     O_R   0.502530 0.766960 0.423990 -0.445065
O24   O     O_3   0.912244 0.995829 0.338311 -0.685612
O25   O     O_R   0.288330 0.026310 0.429250 -0.484942
O26   O     O_3   0.499990 0.000020 0.499980 -0.317385
O27   O     O_R   0.821500 0.119550 0.952820 -0.499905
O28   O     O_R   0.037130 0.162750 0.957360 -0.495104
O29   O     O_R   0.056440 0.344950 0.951330 -0.507989
O30   O     O_R   0.797900 0.560570 0.957460 -0.495499

loop_
_geom_bond_atom_site_label_1
_geom_bond_atom_site_label_2
_ccdc_geom_bond_type
C2    C41   T    
Cr6   O3    S    
C40   C42   T    
C18   C19   A    
Cr3   O16   S    
Cr2   O26   S    
C6    C7    A    
C10   C17   A    
Cr1   O4    S    
C25   O29   A    
Cr1   O17   S    
C13   C29   S    
C3    O20   S    
C33   O17   A    
C14   C15   A    
C27   C40   S    
C23   C38   T    
C26   O30   A    
Cr2   O13   S    
C4    O14   A    
H3    O24   S    
C19   H1    S    
C32   O12   A    
C16   O1    A    
C28   O18   A    
C7    C8    A    
C16   O16   A    
C8    C9    A    
Cr4   O6    S    
C12   C36   T    
C29   O7    A    
C8    O22   S    
Cr3   O25   S    
Br1   C21   S    
Cr6   O9    S    
C20   C21   A    
Cr2   O12   S    
C14   H8    S    
C5    H5    S    
Cr1   O26   S    
Cr3   O15   S    
C1    O4    A    
C22   H4    S    
C24   C28   S    
C30   O8    A    
C20   C31   S    
C6    C30   S    
C7    O21   S    
C3    C5    A    
C31   O10   A    
C16   C39   S    
Cr2   O14   S    
C33   O25   A    
Cr4   O27   S    
C4    O15   A    
C34   C38   S    
C36   C37   S    
C26   O2    A    
C32   O23   A    
H11   O21   S    
C28   O19   A    
C27   O27   A    
Cr2   O19   S    
C15   H9    S    
Cr5   O8    S    
C17   C33   S    
H2    O22   S    
Cr4   O11   S    
C29   O6    A    
C1    O13   A    
C15   C17   A    
C11   C13   A    
Cr5   O29   S    
Cr1   O1    S    
C41   C42   S    
Cr5   O11   S    
C3    C9    A    
C18   O24   S    
C10   H6    S    
Cr6   O2    S    
C13   C14   A    
C4    C12   S    
C23   C25   S    
H10   O20   S    
C10   C11   A    
C5    C6    A    
C26   C35   S    
Cr6   O10   S    
Cr4   O28   S    
C35   C37   T    
C1    C2    S    
Cr1   O18   S    
C11   H7    S    
C34   C39   T    
C9    C32   S    
C22   C24   A    
Cr5   O7    S    
C18   C24   A    
Cr3   O23   S    
C27   O3    A    
C30   O9    A    
C19   C20   A    
C25   O28   A    
Cr6   O11   S    
C21   C22   A    
Cr5   O30   S    
Cr4   O5    S    
C31   O5    A    
Cr3   O26   S    
