data_mof_unit_20385.cif
_audit_creation_date              2012-12-10T17:54:16-0500
_audit_creation_method            fapswitch 2.2
_symmetry_space_group_name_H-M    P1
_symmetry_Int_Tables_number       1
_space_group_crystal_system       triclinic
_cell_length_a                    27.741268
_cell_length_b                    10.763195
_cell_length_c                    9.878907
_cell_angle_alpha                 87.444981
_cell_angle_beta                  89.973879
_cell_angle_gamma                 92.311578
_cell_volume                      2944.35250918

loop_
_atom_site_label
_atom_site_type_symbol
_atom_type_description
_atom_site_fract_x
_atom_site_fract_y
_atom_site_fract_z
_atom_type_partial_charge
C1    C     C_R   0.502187 0.259778 0.504024 0.883893
C2    C     C_R   0.972662 0.385706 0.475712 0.045446
C3    C     C_R   0.976474 0.608737 0.526459 0.046401
C4    C     C_R   0.406064 0.499478 0.500088 0.849362
C5    C     C_R   0.949351 0.497523 0.500867 0.071658
C6    C     C_R   0.943977 0.279637 0.442770 -0.215000
C7    C     C_R   0.894061 0.281886 0.440647 -0.131211
C8    C     C_R   0.870841 0.389912 0.470523 -0.023778
C9    C     C_R   0.898288 0.498140 0.500423 -0.050989
C10   C     C_R   0.874547 0.606985 0.529893 -0.022359
C11   C     C_R   0.824114 0.605513 0.529036 0.507543
C12   C     C_R   0.277727 0.486525 0.379355 -0.099869
C13   C     C_R   0.820475 0.392575 0.470639 0.507966
C14   C     C_R   0.722118 0.503254 0.622364 -0.093279
C15   C     C_R   0.672053 0.503456 0.622635 -0.202675
C16   C     C_R   0.496998 0.739658 0.496504 0.884543
C17   C     C_R   0.671940 0.497119 0.376979 -0.194226
C18   C     C_R   0.722006 0.496788 0.377111 -0.091528
C19   C     C_R   0.747047 0.499827 0.499712 0.312288
C20   C     C_R   0.023630 0.383686 0.483078 0.047041
C21   C     C_R   0.050783 0.496344 0.501620 0.071037
C22   C     C_R   0.027501 0.609572 0.519853 0.046281
C23   C     C_R   0.253002 0.494523 0.501690 0.322609
C24   C     C_R   0.048595 0.272290 0.473565 -0.214726
C25   C     C_R   0.106210 0.718934 0.528046 -0.133436
C26   C     C_R   0.951414 0.715442 0.558978 -0.215479
C27   C     C_R   0.901441 0.714402 0.560218 -0.134435
C28   C     C_R   0.593949 0.500301 0.499958 0.884898
C29   C     C_R   0.056282 0.720365 0.529727 -0.214281
C30   C     C_R   0.485659 0.093353 0.760397 -0.237493
C31   C     C_R   0.461738 0.020521 0.863296 0.003759
C32   C     C_R   0.438072 0.909032 0.830435 -0.190079
C33   C     C_R   0.444147 0.863074 0.702436 -0.158818
C34   C     C_R   0.101845 0.495785 0.501869 -0.051663
C35   C     C_R   0.473891 0.928686 0.604724 0.099323
C36   C     C_R   0.488113 0.052133 0.626266 0.086662
C37   C     C_R   0.505213 0.126294 0.512587 -0.135322
C38   C     C_R   0.518812 0.071837 0.393896 -0.244513
C39   C     C_R   0.513678 0.945415 0.381615 -0.048122
C40   C     C_R   0.175972 0.385280 0.488751 0.503851
C41   C     C_R   0.491875 0.872509 0.489315 -0.194289
C42   C     C_R   0.430281 0.352789 0.146538 -0.132412
C43   C     C_R   0.393806 0.288448 0.078783 -0.182289
C44   C     C_R   0.394321 0.287609 0.938619 -0.185224
C45   C     C_R   0.125529 0.383666 0.488305 -0.020585
C46   C     C_R   0.431162 0.351748 0.866039 -0.183383
C47   C     C_R   0.465665 0.427921 0.930829 0.176396
C48   C     C_R   0.465455 0.428316 0.075559 0.213823
C49   C     C_R   0.533587 0.566721 0.068285 -0.100572
C50   C     C_R   0.533323 0.567588 0.924919 -0.114601
C51   C     C_R   0.179707 0.604755 0.515291 0.506898
C52   C     C_R   0.278173 0.503684 0.623513 -0.099919
C53   C     C_R   0.328252 0.505071 0.623186 -0.225441
C54   C     C_R   0.327817 0.488328 0.378552 -0.212069
C55   C     C_2   0.462085 0.059251 0.005136 0.934519
C56   C     C_R   0.098561 0.272628 0.475728 -0.136399
C57   C     C_2   0.530830 0.896157 0.253176 0.965407
C58   C     C_R   0.129352 0.607366 0.515608 -0.023273
C59   C     C_R   0.353410 0.497764 0.500545 -0.034874
C60   C     C_R   0.646619 0.500327 0.499852 -0.045116
H1    H     H_    0.346382 0.482322 0.282762 0.166110
H2    H     H_    0.504560 0.177299 0.789567 0.207148
H3    H     H_    0.258058 0.479627 0.285145 0.139318
H4    H     H_    0.417445 0.853422 0.905855 0.194654
H5    H     H_    0.426688 0.774131 0.681822 0.164619
H6    H     H_    0.560988 0.621204 0.119662 0.160129
H7    H     H_    0.430666 0.337249 0.253655 0.194789
H8    H     H_    0.366599 0.233207 0.135632 0.170095
H9    H     H_    0.367637 0.231447 0.886346 0.166920
H10   H     H_    0.432802 0.335512 0.760513 0.204787
H11   H     H_    0.560401 0.623168 0.868149 0.156759
H12   H     H_    0.258848 0.509815 0.718099 0.139582
H13   H     H_    0.115983 0.184941 0.467615 0.189764
H14   H     H_    0.653365 0.506055 0.718690 0.165517
H15   H     H_    0.741620 0.505405 0.717225 0.143602
H16   H     H_    0.873709 0.198113 0.415204 0.194650
H17   H     H_    0.958903 0.193525 0.415078 0.142629
H18   H     H_    0.030651 0.182189 0.467139 0.139157
H19   H     H_    0.347165 0.512321 0.718584 0.167982
H20   H     H_    0.431568 0.041944 0.190897 0.344949
H21   H     H_    0.513265 0.815068 0.079035 0.325309
H22   H     H_    0.126635 0.806217 0.536332 0.192815
H23   H     H_    0.969258 0.801153 0.587001 0.141652
H24   H     H_    0.653161 0.494738 0.280974 0.166789
H25   H     H_    0.883954 0.798623 0.585364 0.192124
H26   H     H_    0.741428 0.494396 0.282205 0.143625
H27   H     H_    0.041454 0.810833 0.535995 0.139686
H28   H     H_    0.533422 0.128649 0.308802 0.217373
N1    N     N_R   0.201712 0.494793 0.502020 -0.359114
N2    N     N_R   0.798382 0.499318 0.499703 -0.358689
N3    N     N_R   0.499540 0.498800 0.142780 -0.115986
N4    N     N_R   0.499520 0.498720 0.857170 -0.127070
O1    O     O_R   0.500000 0.316780 0.614690 -0.651882
O2    O     O_R   0.571250 0.499990 0.614680 -0.619933
O3    O     O_R   0.571240 0.499970 0.385350 -0.621076
O4    O     O_2   0.199219 0.278533 0.476531 -0.552179
O5    O     O_2   0.492773 0.134940 0.042508 -0.649819
O6    O     O_R   0.427512 0.008419 0.097097 -0.784518
O7    O     O_2   0.572593 0.917569 0.216760 -0.620716
O8    O     O_R   0.498483 0.832889 0.169586 -0.763810
O9    O     O_2   0.793689 0.289306 0.443004 -0.542737
O10   O     O_2   0.206580 0.711052 0.527508 -0.547119
O11   O     O_2   0.800870 0.709368 0.556321 -0.545098
O12   O     O_R   0.500000 0.316750 0.385360 -0.628969
O13   O     O_R   0.428760 0.500030 0.614650 -0.652074
O14   O     O_R   0.428750 0.500010 0.385320 -0.637052
O15   O     O_R   0.500000 0.683250 0.614640 -0.617900
O16   O     O_R   0.500000 0.683220 0.385310 -0.577459
Zn1   Zn    Zn3+2 0.500000 0.500020 0.653130 0.940782
Zn2   Zn    Zn3+2 0.500000 0.499980 0.346870 0.982009

loop_
_geom_bond_atom_site_label_1
_geom_bond_atom_site_label_2
_ccdc_geom_bond_type
C10   C27   A    
C8    C13   A    
C22   C29   A    
C13   N2    A    
C15   C60   A    
C35   C36   A    
C50   H11   S    
C53   C59   A    
C33   H5    S    
C7    C8    A    
C39   C41   A    
C51   O10   S    
C12   C23   A    
C26   C27   A    
C18   H26   S    
C28   O3    A    
N3    Zn2   S    
C36   C37   A    
C53   H19   S    
C40   O4    S    
C30   C31   A    
N4    Zn1   S    
C57   O7    D    
C26   H23   S    
C55   O6    S    
C28   O2    A    
C18   C19   A    
C47   N4    A    
C27   H25   S    
C16   O15   A    
C20   C24   A    
C45   C56   A    
C8    C9    A    
C48   N3    A    
C23   N1    S    
C40   N1    A    
C9    C10   A    
C1    C37   S    
C21   C22   A    
O15   Zn1   S    
C2    C6    A    
C49   N3    A    
C44   C46   A    
C54   C59   A    
C28   C60   S    
C25   C29   A    
C40   C45   A    
C29   H27   S    
C49   H6    S    
C2    C20   A    
C38   C39   A    
C32   H4    S    
C51   C58   A    
C12   H3    S    
C43   H8    S    
C6    H17   S    
C21   C34   A    
C57   O8    S    
C4    O14   A    
C38   H28   S    
C43   C44   A    
C5    C9    A    
C37   C38   A    
C52   H12   S    
C47   C48   A    
C55   O5    D    
C17   C18   A    
C44   H9    S    
C34   C45   A    
C42   C48   A    
C1    O12   A    
C6    C7    A    
C50   N4    A    
H21   O8    S    
C30   H2    S    
C25   H22   S    
C2    C5    A    
C42   C43   A    
C13   O9    S    
C52   C53   A    
O14   Zn2   S    
C24   H18   S    
O13   Zn1   S    
C46   C47   A    
C56   H13   S    
H20   O6    S    
C14   C19   A    
C31   C32   A    
C3    C5    A    
O3    Zn2   S    
C7    H16   S    
C54   H1    S    
C24   C56   A    
C3    C26   A    
C4    O13   A    
O2    Zn1   S    
C30   C36   A    
C17   H24   S    
C32   C33   A    
C19   N2    S    
C14   H15   S    
O12   Zn2   S    
C11   N2    A    
C23   C52   A    
C42   H7    S    
C4    C59   S    
C33   C35   A    
O16   Zn2   S    
C35   C41   A    
C12   C54   A    
C46   H10   S    
C10   C11   A    
C16   O16   A    
C17   C60   A    
C15   H14   S    
C20   C21   A    
C1    O1    A    
C49   C50   A    
C25   C58   A    
C34   C58   A    
C14   C15   A    
C3    C22   A    
C11   O11   S    
C31   C55   S    
C16   C41   S    
C51   N1    A    
O1    Zn1   S    
C39   C57   S    
