data_mof_unit_54278.cif
_audit_creation_date              2012-12-10T18:33:42-0500
_audit_creation_method            fapswitch 2.2
_symmetry_space_group_name_H-M    P1
_symmetry_Int_Tables_number       1
_space_group_crystal_system       triclinic
_cell_length_a                    10.46646
_cell_length_b                    15.181889
_cell_length_c                    15.406064
_cell_angle_alpha                 81.85783
_cell_angle_beta                  91.907223
_cell_angle_gamma                 103.043648
_cell_volume                      2360.82775308

loop_
_atom_site_label
_atom_site_type_symbol
_atom_type_description
_atom_site_fract_x
_atom_site_fract_y
_atom_site_fract_z
_atom_type_partial_charge
C1    C     C_R   0.484959 0.442816 0.661743 0.889444
C2    C     C_R   0.518206 0.557654 0.337572 0.886457
C3    C     C_R   0.484382 0.463469 0.816776 0.129836
C4    C     C_R   0.517585 0.533921 0.179993 0.137841
C5    C     C_R   0.556418 0.460538 0.895463 0.012263
C6    C     C_R   0.569804 0.566398 0.095947 0.009961
C7    C     C_R   0.613413 0.384251 0.922323 -0.159661
C8    C     C_R   0.591634 0.660812 0.065540 -0.134307
C9    C     C_R   0.570343 0.529531 0.949661 0.026295
C10   C     C_R   0.588334 0.506088 0.039007 0.018494
C11   C     C_R   0.623270 0.423073 0.070045 -0.257783
C12   C     C_R   0.568429 0.620972 0.917394 -0.271539
C13   C     C_R   0.635621 0.361446 0.013306 0.459437
C14   C     C_R   0.577846 0.687038 0.974003 0.460894
C15   C     C_R   0.624980 0.820323 0.669464 -0.248895
C16   C     C_R   0.366948 0.176972 0.333091 -0.249074
C17   C     C_R   0.627290 0.742375 0.633083 -0.022246
C18   C     C_R   0.364105 0.254684 0.370000 -0.019657
C19   C     C_R   0.530913 0.799988 0.500441 0.254868
C20   C     C_R   0.470598 0.200444 0.499197 0.254228
C21   C     C_R   0.543643 0.885870 0.530435 -0.002828
C22   C     C_R   0.456617 0.114127 0.469960 0.002447
C23   C     C_R   0.741734 0.500048 0.500547 0.860094
C24   C     C_R   0.258208 0.499736 0.500000 0.853581
C25   C     C_R   0.575094 0.889569 0.620194 0.116062
C26   C     C_R   0.421947 0.109414 0.380915 0.114481
C27   C     C_R   0.513531 0.964643 0.478844 0.081006
C28   C     C_R   0.487156 0.035578 0.521556 0.079460
C29   C     C_R   0.487778 0.023827 0.614037 -0.232338
C30   C     C_R   0.511774 0.976290 0.386315 -0.224853
C31   C     C_R   0.543914 0.957638 0.661656 -0.155809
C32   C     C_R   0.453065 0.041483 0.339191 -0.175016
C33   C     C_3   0.931102 0.418302 0.482734 -0.123235
C34   C     C_3   0.068717 0.581112 0.518635 -0.142043
C35   C     C_3   0.023329 0.432928 0.562155 -0.141679
C36   C     C_3   0.976559 0.566493 0.439194 -0.167425
C37   C     C_3   0.122634 0.499746 0.500471 0.002224
C38   C     C_3   0.877210 0.499704 0.500823 0.009461
C39   C     C_3   0.033131 0.485298 0.421110 -0.176154
C40   C     C_3   0.966637 0.514099 0.580250 -0.149314
C41   C     C_R   0.507953 0.411549 0.753489 -0.130082
C42   C     C_R   0.539821 0.593339 0.243739 -0.127425
C43   C     C_R   0.644237 0.336001 0.856302 0.487984
C44   C     C_R   0.622313 0.721366 0.129419 0.442603
C45   C     C_R   0.589403 0.349953 0.773017 -0.314194
C46   C     C_R   0.597950 0.685980 0.218014 -0.320930
H1    H     H_    0.047309 0.378669 0.612001 0.158212
H2    H     H_    0.952701 0.620788 0.389322 0.161040
H3    H     H_    0.322353 0.307667 0.334020 0.147326
H4    H     H_    0.659689 0.686522 0.672258 0.150608
H5    H     H_    0.655439 0.824298 0.736900 0.214397
H6    H     H_    0.331751 0.171504 0.266687 0.199198
H7    H     H_    0.447029 0.066208 0.650795 0.180731
H8    H     H_    0.552646 0.934260 0.349247 0.172888
H9    H     H_    0.871159 0.351747 0.468204 0.162508
H10   H     H_    0.128642 0.647650 0.533224 0.163791
H11   H     H_    0.065002 0.473507 0.356523 0.149304
H12   H     H_    0.934642 0.525705 0.644877 0.164259
H13   H     H_    0.627366 0.730686 0.267220 0.183146
H14   H     H_    0.620425 0.319044 0.720871 0.204372
H15   H     H_    0.642998 0.406543 0.139086 0.203789
H16   H     H_    0.561578 0.641912 0.847718 0.195594
H17   H     H_    0.554534 0.956097 0.732047 0.202113
H18   H     H_    0.439979 0.042270 0.269022 0.187238
N1    N     N_R   0.574200 0.731700 0.552740 -0.102148
N2    N     N_R   0.425800 0.268300 0.447260 -0.100755
O1    O     O_R   0.462600 0.383110 0.605620 -0.617518
O2    O     O_R   0.537400 0.616890 0.394380 -0.620515
O3    O     O_R   0.510210 0.531900 0.639510 -0.614746
O4    O     O_R   0.489790 0.468100 0.360490 -0.608222
O5    O     O_R   0.662240 0.425610 0.483080 -0.634300
O6    O     O_R   0.337760 0.574390 0.516920 -0.634700
O7    O     O_R   0.709860 0.574400 0.516970 -0.609608
O8    O     O_R   0.290140 0.425600 0.483030 -0.611473
Zn1   Zn    Zn3+2 0.468210 0.400660 0.477370 0.941672
Zn2   Zn    Zn3+2 0.531790 0.599340 0.522630 0.939817
C47   C     C_3   0.552106 0.223499 0.578785 -0.830903
H19   H     H_    0.487397 0.216569 0.636041 0.234931
H20   H     H_    0.626973 0.182149 0.592900 0.228610
H21   H     H_    0.612505 0.292349 0.569018 0.279580
C48   C     C_3   0.447678 0.776841 0.421263 -0.833938
H22   H     H_    0.371429 0.817316 0.409131 0.221680
H23   H     H_    0.510039 0.785173 0.362815 0.222493
H24   H     H_    0.389080 0.707415 0.430266 0.283174
S1    S     S_3+6 0.636864 0.248982 0.063575 0.081624
O9    O     O_2   0.557610 0.180073 0.010457 -0.215642
O10   O     O_2   0.775138 0.236280 0.073275 -0.206990
O11   O     O_3   0.569790 0.231770 0.164009 -0.605141
H25   H     H_    0.601954 0.179680 0.196136 0.382249
S2    S     S_3+6 0.524912 0.787417 0.930412 0.052818
O12   O     O_2   0.446276 0.814754 0.997745 -0.235374
O13   O     O_2   0.640334 0.863899 0.902160 -0.232733
O14   O     O_3   0.428737 0.766659 0.842542 -0.602685
H26   H     H_    0.395537 0.822790 0.825313 0.385790
C49   C     C_3   0.418071 0.443506 0.194293 -0.810169
H27   H     H_    0.375270 0.422520 0.131445 0.252417
H28   H     H_    0.465210 0.389362 0.227310 0.259888
H29   H     H_    0.333872 0.449461 0.233360 0.228180
C50   C     C_3   0.369735 0.510207 0.804422 -0.795373
H30   H     H_    0.334838 0.522354 0.868005 0.262230
H31   H     H_    0.396213 0.576129 0.760615 0.259344
H32   H     H_    0.285319 0.465615 0.775006 0.227509
S3    S     S_3+6 0.784771 0.288192 0.861906 0.070924
O15   O     O_2   0.884467 0.333641 0.923465 -0.263233
O16   O     O_2   0.747340 0.187186 0.891644 -0.171327
O17   O     O_3   0.852798 0.305413 0.761704 -0.611192
H33   H     H_    0.932425 0.280165 0.770134 0.384681
S4    S     S_3+6 0.728181 0.831100 0.107590 0.105255
O18   O     O_2   0.815677 0.834845 0.031173 -0.199913
O19   O     O_2   0.650438 0.903603 0.088005 -0.192861
O20   O     O_3   0.823913 0.852748 0.195555 -0.537825
H34   H     H_    0.775181 0.883357 0.231513 0.350973

loop_
_geom_bond_atom_site_label_1
_geom_bond_atom_site_label_2
_ccdc_geom_bond_type
C25   C31   A    
C38   C40   S    
C45   H14   S    
C26   C32   A    
O14   H26   S    
C46   H13   S    
C34   C37   S    
C49   H27   S    
O6    Zn2   S    
C35   H1    S    
C48   H22   S    
C49   H29   S    
C47   H19   S    
C34   H10   S    
C30   H8    S    
C33   C39   S    
N1    Zn2   S    
C4    C42   A    
C20   C47   S    
C34   C40   S    
C20   N2    A    
C28   C29   A    
C19   C21   A    
C2    O2    A    
S1    O11   S    
O17   H33   S    
C39   H11   S    
S4    O18   D    
O3    Zn2   S    
C42   C46   A    
C14   S2    S    
C1    O1    A    
O20   H34   S    
C19   N1    A    
C7    C43   A    
C9    C10   A    
C44   S4    S    
C21   C27   A    
C22   C28   A    
C27   C30   A    
C23   O7    A    
C48   H23   S    
C44   C46   A    
C47   H20   S    
C16   C26   A    
O5    Zn1   S    
C40   H12   S    
O8    Zn1   S    
S1    O10   D    
C23   O5    A    
C32   H18   S    
C4    C6    A    
C5    C7    A    
C6    C8    A    
C11   H15   S    
S1    O9    D    
C1    O3    A    
C5    C9    A    
C31   H17   S    
C4    C49   S    
C12   H16   S    
S2    O13   D    
C50   H30   S    
C24   C37   S    
C33   H9    S    
S3    O16   D    
C16   C18   A    
C43   C45   A    
C1    C41   S    
C50   H31   S    
C12   C14   A    
C15   H5    S    
O7    Zn2   S    
C18   N2    A    
S3    O15   D    
C48   H24   S    
C24   O6    A    
S2    O14   S    
C47   H21   S    
C16   H6    S    
C15   C17   A    
C21   C25   A    
C3    C41   A    
C8    C14   A    
C35   C37   S    
C36   C39   S    
C8    C44   A    
C20   C22   A    
C3    C5    A    
C17   H4    S    
C6    C10   A    
C49   H28   S    
O2    Zn2   S    
C23   C38   S    
C17   N1    A    
C33   C38   S    
S4    O20   S    
C36   C38   S    
C35   C40   S    
C37   C39   S    
C19   C48   S    
C30   C32   A    
C11   C13   A    
C24   O8    A    
S2    O12   D    
C29   H7    S    
C2    C42   S    
N2    Zn1   S    
C33   C35   S    
S4    O19   D    
C36   H2    S    
S3    O17   S    
C34   C36   S    
C9    C12   A    
C43   S3    S    
C15   C25   A    
C10   C11   A    
C3    C50   S    
C7    C13   A    
C50   H32   S    
O1    Zn1   S    
O11   H25   S    
C29   C31   A    
C22   C26   A    
C13   S1    S    
O4    Zn1   S    
C41   C45   A    
C2    O4    A    
C18   H3    S    
C27   C28   A    
