data_mof_unit_27464.cif
_audit_creation_date              2012-12-11T15:39:23-0500
_audit_creation_method            fapswitch 2.2
_symmetry_space_group_name_H-M    P1
_symmetry_Int_Tables_number       1
_space_group_crystal_system       triclinic
_cell_length_a                    14.350782
_cell_length_b                    14.796684
_cell_length_c                    33.243568
_cell_angle_alpha                 97.726315
_cell_angle_beta                  90.328265
_cell_angle_gamma                 118.964553
_cell_volume                      6099.58856183

loop_
_atom_site_label
_atom_site_type_symbol
_atom_type_description
_atom_site_fract_x
_atom_site_fract_y
_atom_site_fract_z
_atom_type_partial_charge
C1    C     C_R   0.616695 0.910460 0.436898 0.548691
C2    C     C_R   0.712301 0.438033 0.949130 0.536563
C3    C     C_R   0.676096 0.810215 0.772293 -0.099570
C4    C     C_R   0.669783 0.834195 0.733791 -0.097681
C5    C     C_R   0.652841 0.761425 0.698961 0.045760
C6    C     C_R   0.637066 0.661812 0.703486 -0.093872
C7    C     C_R   0.643045 0.637524 0.742405 -0.101767
C8    C     C_R   0.664760 0.712758 0.776851 0.024824
C9    C     C_R   0.572663 0.723816 0.627587 -0.119912
C10   C     C_R   0.563671 0.758908 0.591587 -0.123070
C11   C     C_R   0.719168 0.927131 0.615417 -0.121392
C12   C     C_R   0.742410 0.716710 0.945702 0.562302
C13   C     C_R   0.824062 0.430191 0.163513 -0.089060
C14   C     C_R   0.826781 0.452440 0.124003 -0.118969
C15   C     C_R   0.748132 0.312849 0.240883 0.101970
C16   C     C_R   0.742700 0.304448 0.282181 -0.085483
C17   C     C_R   0.718665 0.370317 0.309285 0.005786
C18   C     C_R   0.703265 0.447226 0.294953 -0.120637
C19   C     C_R   0.709202 0.456465 0.253852 -0.135467
C20   C     C_R   0.730130 0.388745 0.226540 0.031347
C21   C     C_R   0.729775 0.397804 0.183261 0.051169
C22   C     C_R   0.603642 0.339409 0.367145 -0.113435
C23   C     C_R   0.594055 0.205433 0.456626 0.544684
C24   C     C_R   0.572724 0.298894 0.403265 -0.124436
C25   C     C_R   0.735677 0.288734 0.409908 -0.123954
C26   C     C_R   0.766266 0.328821 0.373759 -0.120368
C27   C     C_R   0.698405 0.350347 0.351327 0.031712
C28   C     C_R   0.636354 0.268963 0.423972 0.021837
C29   C     C_R   0.245871 0.878270 0.393209 0.015665
C30   C     C_R   0.233015 0.959168 0.380738 -0.126383
C31   C     C_R   0.209567 0.957059 0.339657 -0.114042
C32   C     C_R   0.727451 0.892412 0.651471 -0.097267
C33   C     C_R   0.198104 0.873954 0.310621 0.036685
C34   C     C_R   0.204153 0.790067 0.322997 -0.095020
C35   C     C_R   0.295903 0.892839 0.434325 0.542874
C36   C     C_R   0.227650 0.791969 0.364050 -0.117077
C37   C     C_R   0.196632 0.808572 0.163007 -0.105574
C38   C     C_R   0.168342 0.787091 0.121200 -0.122149
C39   C     C_R   0.089365 0.900204 0.129873 -0.126157
C40   C     C_R   0.117253 0.921118 0.171806 -0.113231
C41   C     C_R   0.167501 0.872312 0.188545 0.039378
C42   C     C_1   0.179098 0.877823 0.231901 -0.019814
C43   C     C_R   0.652474 0.791574 0.658400 0.040932
C44   C     C_1   0.187064 0.877378 0.267947 -0.019191
C45   C     C_R   0.110314 0.829085 0.104456 0.020338
C46   C     C_R   0.636303 0.879865 0.395067 -0.037595
C47   C     C_R   0.613942 0.904910 0.551479 0.544466
C48   C     C_R   0.550794 0.802455 0.367929 -0.094031
C49   C     C_R   0.562037 0.791555 0.326131 0.388324
C50   C     C_R   0.659142 0.857393 0.311183 0.046456
C51   C     C_R   0.746710 0.929418 0.338176 -0.180336
C52   C     C_R   0.735545 0.940551 0.379916 -0.147656
C53   C     C_R   0.776724 0.923509 0.174151 -0.095223
C54   C     C_R   0.634965 0.861985 0.585755 0.020523
C55   C     C_R   0.792525 0.909069 0.132881 -0.113374
C56   C     C_R   0.618073 0.753396 0.121315 -0.124646
C57   C     C_R   0.602370 0.768225 0.162489 -0.104462
C58   C     C_R   0.683191 0.851037 0.189141 0.041267
C59   C     C_R   0.589729 0.199435 0.570876 0.541498
C60   C     C_1   0.674374 0.855062 0.232155 0.003171
C61   C     C_1   0.667495 0.855923 0.268191 0.041789
C62   C     C_R   0.715153 0.821203 0.106446 0.021108
C63   C     C_R   0.623715 0.250970 0.613640 0.020176
C64   C     C_R   0.559582 0.283564 0.636140 -0.129740
C65   C     C_R   0.052047 0.781350 0.063825 0.544029
C66   C     C_R   0.577233 0.309298 0.678474 -0.110483
C67   C     C_R   0.659139 0.302996 0.698677 0.038530
C68   C     C_R   0.727928 0.277766 0.676407 -0.116686
C69   C     C_R   0.710709 0.252319 0.634062 -0.127405
C70   C     C_R   0.762302 0.347082 0.844673 -0.138372
C71   C     C_R   0.289530 0.886958 0.548670 0.545446
C72   C     C_R   0.771762 0.372101 0.887018 -0.132379
C73   C     C_R   0.593801 0.352135 0.884761 -0.097852
C74   C     C_R   0.584272 0.327455 0.842350 0.104375
C75   C     C_R   0.670479 0.328632 0.822190 0.046150
C76   C     C_R   0.743663 0.486093 0.065941 0.547578
C77   C     C_1   0.668950 0.319459 0.778661 0.009166
C78   C     C_1   0.666241 0.313149 0.742206 -0.008490
C79   C     C_R   0.689480 0.379594 0.907343 -0.002499
C80   C     C_R   0.070479 0.755915 0.908977 -0.036291
C81   C     C_R   0.098423 0.852453 0.896768 -0.099294
C82   C     C_R   0.121162 0.867005 0.856797 0.381069
C83   C     C_R   0.735428 0.443756 0.104077 0.020344
C84   C     C_R   0.116474 0.784937 0.828634 0.033150
C85   C     C_R   0.097355 0.691595 0.841649 -0.180419
C86   C     C_R   0.074562 0.677123 0.881659 -0.142525
C87   C     C_R   0.742974 0.789353 0.066401 0.553435
C88   C     C_R   0.189889 0.766405 0.762470 -0.121371
C89   C     C_R   0.194038 0.773013 0.721159 -0.134901
C90   C     C_R   0.130428 0.805555 0.702046 0.031703
C91   C     C_R   0.060365 0.829395 0.724521 0.097476
C92   C     C_R   0.056681 0.822730 0.765923 -0.026716
C93   C     C_R   0.122381 0.792783 0.785165 0.044473
C94   C     C_R   0.189799 0.922956 0.650109 -0.083976
C95   C     C_R   0.639718 0.406266 0.123340 -0.120815
C96   C     C_R   0.228539 0.943115 0.612187 -0.124628
C97   C     C_R   0.173238 0.759186 0.592222 -0.124185
C98   C     C_R   0.021791 0.732284 0.947490 0.539086
C99   C     C_R   0.133982 0.739081 0.630044 -0.115282
C100  C     C_R   0.145825 0.821529 0.659611 0.054200
C101  C     C_R   0.225199 0.862133 0.583757 0.020334
C102  C     C_R   0.721592 0.702727 0.901258 0.012480
C103  C     C_R   0.622905 0.627776 0.880329 -0.118551
C104  C     C_R   0.605231 0.625145 0.838535 -0.105826
C105  C     C_R   0.686423 0.696671 0.817682 0.020476
C106  C     C_R   0.786952 0.765341 0.837990 -0.115567
C107  C     C_R   0.637081 0.383701 0.162747 -0.108056
C108  C     C_R   0.804508 0.768009 0.879260 -0.120165
Cr1   Cr    Cr6+3 0.424820 0.846020 0.489780 1.015598
Cr2   Cr    Cr6+3 0.657880 0.078580 0.505700 1.013756
Cr3   Cr    Cr6+3 0.417280 0.075360 0.504550 1.014693
Cr4   Cr    Cr6+3 0.903360 0.812540 0.006510 1.020587
Cr5   Cr    Cr6+3 0.914630 0.587050 0.006280 1.016244
Cr6   Cr    Cr6+3 0.673560 0.582680 0.008540 1.022489
F1    F     F_    0.476698 0.720780 0.300181 -0.641003
F2    F     F_    0.143938 0.959694 0.845256 -0.620093
H1    H     H_    0.568139 0.398672 0.108683 0.134563
H2    H     H_    0.094280 0.970537 0.191358 0.111484
H3    H     H_    0.043807 0.932915 0.117980 0.127086
H4    H     H_    0.901838 0.481768 0.109987 0.134385
H5    H     H_    0.204650 0.022181 0.330382 0.111553
H6    H     H_    0.868266 0.962297 0.122380 0.130429
H7    H     H_    0.839658 0.987955 0.194670 0.129634
H8    H     H_    0.822304 0.980136 0.326836 0.121264
H9    H     H_    0.802858 0.000768 0.400033 0.143895
H10   H     H_    0.473258 0.754990 0.378646 0.148418
H11   H     H_    0.529595 0.711961 0.173880 0.131821
H12   H     H_    0.496070 0.285025 0.413522 0.128730
H13   H     H_    0.556930 0.685233 0.101659 0.127557
H14   H     H_    0.846576 0.393003 0.903449 0.137014
H15   H     H_    0.840419 0.338189 0.362265 0.110627
H16   H     H_    0.828974 0.347628 0.829343 0.116124
H17   H     H_    0.791692 0.272955 0.691871 0.110811
H18   H     H_    0.761454 0.227438 0.617674 0.127556
H19   H     H_    0.492114 0.283483 0.621340 0.128340
H20   H     H_    0.529226 0.357341 0.899610 0.157183
H21   H     H_    0.523886 0.329235 0.695567 0.129465
H22   H     H_    0.097258 0.914818 0.917571 0.149250
H23   H     H_    0.896482 0.442519 0.179314 0.135716
H24   H     H_    0.053071 0.601861 0.890338 0.145125
H25   H     H_    0.100396 0.660473 0.637179 0.111974
H26   H     H_    0.752090 0.242964 0.292747 0.134487
H27   H     H_    0.249034 0.755293 0.704223 0.118008
H28   H     H_    0.240572 0.742524 0.776872 0.118768
H29   H     H_    0.001731 0.839964 0.783032 0.156346
H30   H     H_    0.200962 0.987599 0.672992 0.150614
H31   H     H_    0.268479 0.023191 0.606437 0.131969
H32   H     H_    0.093581 0.627602 0.820268 0.120742
H33   H     H_    0.168882 0.695298 0.570613 0.128500
H34   H     H_    0.787083 0.267638 0.425514 0.127973
H35   H     H_    0.558555 0.574682 0.896423 0.140461
H36   H     H_    0.882282 0.824305 0.894363 0.141658
H37   H     H_    0.790574 0.945909 0.674592 0.143338
H38   H     H_    0.679222 0.910349 0.731243 0.110046
H39   H     H_    0.692256 0.868787 0.798712 0.123296
H40   H     H_    0.527089 0.571637 0.823069 0.139807
H41   H     H_    0.623684 0.604368 0.677015 0.112151
H42   H     H_    0.634836 0.562141 0.745581 0.123211
H43   H     H_    0.513764 0.645910 0.632236 0.103448
H44   H     H_    0.498169 0.706769 0.569079 0.124588
H45   H     H_    0.185486 0.732038 0.102410 0.130336
H46   H     H_    0.850427 0.820685 0.822232 0.134649
H47   H     H_    0.563796 0.358781 0.177842 0.120459
H48   H     H_    0.775304 0.006817 0.611786 0.130362
H49   H     H_    0.684736 0.498725 0.315424 0.120860
H50   H     H_    0.695829 0.515570 0.243125 0.122792
H51   H     H_    0.549850 0.355125 0.350154 0.114036
H52   H     H_    0.235760 0.770617 0.175678 0.123762
H53   H     H_    0.195060 0.725175 0.300708 0.135356
H54   H     H_    0.237501 0.728763 0.372536 0.138904
H55   H     H_    0.246803 0.026909 0.402354 0.127018
I1    I     I_    0.442035 0.298822 0.810195 -0.377573
I2    I     I_    0.955684 0.871631 0.697748 -0.438861
I3    I     I_    0.773204 0.202187 0.201684 -0.430073
O1    O     O_R   0.318160 0.824460 0.443680 -0.519669
O2    O     O_R   0.668160 0.499860 0.053480 -0.514267
O3    O     O_R   0.689170 0.693840 0.050110 -0.495177
O4    O     O_R   0.525040 0.857250 0.449830 -0.503730
O5    O     O_R   0.803860 0.812940 0.962540 -0.503176
O6    O     O_R   0.982950 0.787950 0.964120 -0.526421
O7    O     O_R   0.007050 0.649970 0.960540 -0.510430
O8    O     O_R   0.807910 0.482370 0.965590 -0.501126
O9    O     O_R   0.643310 0.460980 0.963840 -0.522777
O10   O     O_R   0.666140 0.657800 0.967020 -0.496904
O11   O     O_3   0.830520 0.660760 0.007110 -0.266593
O12   O     O_R   0.645130 0.163230 0.552140 -0.503174
O13   O     O_R   0.684760 0.998800 0.456360 -0.513021
O14   O     O_R   0.647540 0.166310 0.470260 -0.502351
O15   O     O_R   0.500960 0.181750 0.467450 -0.518944
O16   O     O_R   0.331100 0.981120 0.457080 -0.500237
O17   O     O_R   0.315560 0.821140 0.532010 -0.517941
O18   O     O_R   0.522630 0.854180 0.531710 -0.500589
O19   O     O_R   0.682160 0.995480 0.544690 -0.518568
O20   O     O_R   0.498360 0.178430 0.555780 -0.518889
O21   O     O_R   0.328690 0.978040 0.538950 -0.500793
O22   O     O_3   0.499990 0.999990 0.500010 -0.236258
O23   O     O_R   0.828710 0.851830 0.052170 -0.510861
O24   O     O_R   0.005980 0.823990 0.047210 -0.499482
O25   O     O_R   0.031900 0.688850 0.050170 -0.514276
O26   O     O_R   0.830940 0.518420 0.048680 -0.498075

loop_
_geom_bond_atom_site_label_1
_geom_bond_atom_site_label_2
_ccdc_geom_bond_type
C94   H30   S    
C4    H38   S    
C41   C42   S    
C69   H18   S    
C36   H54   S    
C73   C74   A    
C53   C55   A    
C40   H2    S    
C19   C20   A    
C85   H32   S    
C23   O15   A    
C8    C105  S    
C60   C61   T    
C81   C82   A    
C90   C91   A    
C7    C8    A    
C7    H42   S    
C12   O10   A    
C77   C78   T    
C95   H1    S    
C25   C28   A    
C29   C36   A    
Cr2   O14   S    
C26   C27   A    
C37   C38   A    
Cr6   O11   S    
C59   O12   A    
C5    C6    A    
C13   H23   S    
C68   H17   S    
C72   C79   A    
C30   C31   A    
Cr6   O10   S    
C1    C46   S    
C9    H43   S    
Cr1   O18   S    
C58   C60   S    
C15   C16   A    
C55   C62   A    
C46   C52   A    
C56   C57   A    
C91   I2    S    
Cr1   O22   S    
C17   C18   A    
C18   C19   A    
C2    O8    A    
Cr4   O24   S    
C47   O18   A    
C92   C93   A    
C38   C45   A    
C80   C86   A    
C2    C79   S    
C65   O25   A    
Cr1   O4    S    
C32   C43   A    
C38   H45   S    
Cr5   O7    S    
C63   C69   A    
C16   C17   A    
C31   C33   A    
C102  C108  A    
C19   H50   S    
C9    C10   A    
C74   I1    S    
C56   H13   S    
C103  H35   S    
Cr3   O22   S    
Cr4   O6    S    
Cr6   O2    S    
C66   C67   A    
C71   C101  S    
C64   H19   S    
Cr5   O11   S    
C108  H36   S    
C96   C101  A    
C51   H8    S    
C15   C20   A    
C67   C78   S    
C42   C44   T    
C14   C83   A    
C76   C83   S    
C90   C100  S    
C104  C105  A    
C97   C99   A    
C18   H49   S    
C99   H25   S    
C50   C51   A    
C37   H52   S    
C1    O13   A    
C59   O20   A    
Cr5   O25   S    
C81   H22   S    
C46   C48   A    
Cr2   O13   S    
C9    C43   A    
C74   C75   A    
C67   C68   A    
C17   C27   S    
C76   O2    A    
C84   C85   A    
C31   H5    S    
C3    C8    A    
C53   H7    S    
C65   O24   A    
Cr4   O11   S    
C68   C69   A    
C25   C26   A    
C85   C86   A    
C63   C64   A    
C25   H34   S    
C64   C66   A    
C16   H26   S    
C12   C102  S    
C29   C30   A    
C87   O3    A    
C1    O4    A    
C71   O21   A    
Cr5   O8    S    
C73   H20   S    
C94   C100  A    
C53   C58   A    
Cr6   O3    S    
C83   C95   A    
C20   C21   S    
Cr2   O19   S    
C70   H16   S    
C33   C34   A    
C73   C79   A    
C13   C21   A    
C23   C28   S    
C104  H40   S    
C94   C96   A    
C75   C77   S    
Cr2   O12   S    
C21   C107  A    
C34   H53   S    
C95   C107  A    
C47   C54   S    
C22   H51   S    
C11   C54   A    
C40   C41   A    
C49   F1    S    
C107  H47   S    
C11   C32   A    
Cr3   O15   S    
C35   O16   A    
C82   C84   A    
C22   C27   A    
Cr4   O5    S    
C76   O26   A    
C56   C62   A    
C3    H39   S    
C87   O23   A    
C98   O6    A    
C3    C4    A    
C10   H44   S    
Cr4   O23   S    
C91   C92   A    
C6    H41   S    
C105  C106  A    
C96   H31   S    
C88   C93   A    
C48   C49   A    
C15   I3    S    
C80   C98   S    
C92   H29   S    
C33   C44   S    
C59   C63   S    
C47   O19   A    
C24   C28   A    
C80   C81   A    
C57   H11   S    
C52   H9    S    
Cr1   O1    S    
C72   H14   S    
C6    C7    A    
C86   H24   S    
C62   C87   S    
C29   C35   S    
C14   H4    S    
C84   C93   S    
C99   C100  A    
C39   C45   A    
C35   O1    A    
C98   O7    A    
C82   F2    S    
C51   C52   A    
C89   H27   S    
C45   C65   S    
C57   C58   A    
C23   O14   A    
C66   H21   S    
C106  C108  A    
Cr1   O17   S    
C39   H3    S    
C11   H48   S    
Cr5   O26   S    
Cr2   O22   S    
C22   C24   A    
C2    O9    A    
C106  H46   S    
C37   C41   A    
C102  C103  A    
C10   C54   A    
C30   H55   S    
C55   H6    S    
Cr3   O20   S    
C48   H10   S    
C32   H37   S    
C39   C40   A    
C4    C5    A    
C12   O5    A    
C88   C89   A    
C34   C36   A    
Cr3   O16   S    
C49   C50   A    
C103  C104  A    
C24   H12   S    
C50   C61   S    
C97   H33   S    
C5    C43   S    
C70   C75   A    
C70   C72   A    
C71   O17   A    
C89   C90   A    
C13   C14   A    
C88   H28   S    
C97   C101  A    
C26   H15   S    
Cr6   O9    S    
Cr3   O21   S    
