data_mof_unit_25031.cif
_audit_creation_date              2012-10-26T18:50:02-0400
_audit_creation_method            fapswitch 2.2
_symmetry_space_group_name_H-M    P1
_symmetry_Int_Tables_number       1
_space_group_crystal_system       triclinic
_cell_length_a                    10.854482
_cell_length_b                    13.005432
_cell_length_c                    11.62895
_cell_angle_alpha                 99.381433
_cell_angle_beta                  96.174698
_cell_angle_gamma                 90.497331
_cell_volume                      1609.69843559

loop_
_atom_site_label
_atom_site_type_symbol
_atom_type_description
_atom_site_fract_x
_atom_site_fract_y
_atom_site_fract_z
_atom_type_partial_charge
C1    C     C_R   0.500451 0.299378 0.479267 0.585876
C2    C     C_R   0.437970 0.864437 0.449079 0.214413
C3    C     C_R   0.542320 0.028060 0.545952 0.033343
C4    C     C_R   0.457678 0.972061 0.454748 0.031829
C5    C     C_R   0.401402 0.385756 0.016838 0.270060
C6    C     C_R   0.597269 0.613512 0.982639 0.260747
C7    C     C_R   0.407217 0.401282 0.141639 0.050853
C8    C     C_R   0.592049 0.598764 0.858798 0.063129
C9    C     C_R   0.540157 0.549685 0.159486 0.082360
C10   C     C_R   0.460137 0.449991 0.840430 0.086508
C11   C     C_R   0.535036 0.541040 0.035979 -0.020752
C12   C     C_R   0.499794 0.700635 0.520797 0.585134
C13   C     C_R   0.464900 0.458318 0.964276 -0.010868
C14   C     C_R   0.261846 0.508803 0.497915 0.553654
C15   C     C_R   0.738327 0.491905 0.502173 0.553028
C16   C     C_R   0.144029 0.626861 0.689217 -0.121391
C17   C     C_R   0.856887 0.375943 0.310272 -0.121538
C18   C     C_R   0.101372 0.650829 0.798671 -0.079386
C19   C     C_R   0.898710 0.354430 0.200233 -0.078292
C20   C     C_R   0.989692 0.607504 0.817872 0.257080
C21   C     C_R   0.009452 0.399539 0.181214 0.255835
C22   C     C_R   0.915758 0.547674 0.724813 -0.053563
C23   C     C_R   0.505642 0.813240 0.531950 0.021433
C24   C     C_R   0.083814 0.457998 0.275027 -0.053660
C25   C     C_R   0.952746 0.529559 0.609669 -0.025993
C26   C     C_R   0.047426 0.473739 0.390353 -0.025913
C27   C     C_R   0.075036 0.558831 0.596548 0.008583
C28   C     C_R   0.925500 0.443693 0.403477 0.008222
C29   C     C_R   0.874186 0.481840 0.508336 -0.001690
C30   C     C_R   0.126213 0.520240 0.491848 -0.001867
C31   C     C_3   0.307426 0.215904 0.989962 0.035024
C32   C     C_3   0.425492 0.155954 0.017595 -0.301557
C33   C     C_3   0.392978 0.048537 0.044560 -0.477708
C34   C     C_R   0.494604 0.186801 0.468374 0.021921
C35   C     C_3   0.633179 0.792510 0.027381 0.010699
C36   C     C_3   0.740359 0.846116 0.982530 -0.241432
C37   C     C_3   0.708844 0.956702 0.963699 -0.493846
C38   C     C_R   0.395436 0.024818 0.370674 -0.120745
C39   C     C_R   0.604257 0.975328 0.630263 -0.119441
C40   C     C_R   0.413858 0.131033 0.377620 -0.190847
C41   C     C_R   0.585967 0.869063 0.623117 -0.191929
C42   C     C_R   0.562190 0.135657 0.551401 0.216938
Cl1   Cl    Cl    0.054601 0.383637 0.039131 -0.544697
Cl2   Cl    Cl    0.942440 0.627696 0.959244 -0.535832
Cl3   Cl    Cl    0.324953 0.794424 0.342258 -0.606932
Cl4   Cl    Cl    0.675250 0.205660 0.658150 -0.604436
Cu1   Cu    Cu3+1 0.509250 0.507730 0.615930 0.979314
Cu2   Cu    Cu3+1 0.490750 0.492270 0.384070 0.977057
H1    H     H_    0.231377 0.662414 0.677571 0.146091
H2    H     H_    0.668215 0.014917 0.701782 0.183491
H3    H     H_    0.405534 0.388179 0.783470 0.196709
H4    H     H_    0.594975 0.611672 0.215980 0.190146
H5    H     H_    0.642836 0.651364 0.817110 0.128460
H6    H     H_    0.357220 0.350728 0.186150 0.119235
H7    H     H_    0.245653 0.164026 0.921944 0.189460
H8    H     H_    0.252973 0.232393 0.065995 0.148141
H9    H     H_    0.480323 0.146279 0.941288 0.196904
H10   H     H_    0.483735 0.199823 0.094603 0.150186
H11   H     H_    0.327570 0.055496 0.112313 0.152554
H12   H     H_    0.770190 0.339208 0.321728 0.145834
H13   H     H_    0.478009 0.011304 0.077967 0.150333
H14   H     H_    0.349610 0.997844 0.963912 0.158273
H15   H     H_    0.611697 0.840180 0.110807 0.164834
H16   H     H_    0.547722 0.791028 0.964226 0.102088
H17   H     H_    0.824220 0.849411 0.047071 0.225305
H18   H     H_    0.762244 0.800571 0.898214 0.174316
H19   H     H_    0.622531 0.956098 0.902853 0.148979
H20   H     H_    0.785617 0.990839 0.925045 0.172788
H21   H     H_    0.696779 0.006380 0.048708 0.155301
H22   H     H_    0.157234 0.700387 0.869393 0.148657
H23   H     H_    0.842734 0.305624 0.128946 0.149569
H24   H     H_    0.834516 0.511180 0.747602 0.196385
H25   H     H_    0.164803 0.495654 0.253121 0.196367
H26   H     H_    0.637781 0.829701 0.687332 0.124175
H27   H     H_    0.361750 0.170493 0.313678 0.124070
H28   H     H_    0.331037 0.985239 0.299565 0.183884
N1    N     N_R   0.523180 0.519350 0.790130 -0.280203
N2    N     N_R   0.476820 0.480650 0.209870 -0.275685
O1    O     O_R   0.506570 0.354460 0.582000 -0.449077
O2    O     O_3   0.669853 0.693301 0.052255 -0.538480
O3    O     O_R   0.493430 0.645540 0.418000 -0.450196
O4    O     O_R   0.490940 0.341410 0.386200 -0.539324
O5    O     O_R   0.509060 0.658590 0.613800 -0.539571
O6    O     O_R   0.327470 0.506520 0.597900 -0.508166
O7    O     O_R   0.672530 0.493480 0.402100 -0.508071
O8    O     O_R   0.311840 0.493460 0.402100 -0.509766
O9    O     O_R   0.688160 0.506540 0.597900 -0.509564
O10   O     O_3   0.331480 0.306275 0.941708 -0.553154

loop_
_geom_bond_atom_site_label_1
_geom_bond_atom_site_label_2
_ccdc_geom_bond_type
C18   H22   S    
C3    C42   A    
C37   H21   S    
C19   H23   S    
C35   C36   S    
C34   C42   A    
Cu1   O1    S    
C39   C41   A    
C38   H28   S    
C12   C23   S    
C34   C40   A    
C36   C37   S    
C19   C21   A    
C24   C26   A    
C36   H18   S    
C24   H25   S    
C37   H20   S    
C35   O2    S    
Cu2   O3    S    
C42   Cl4   S    
Cu2   N2    S    
C41   H26   S    
C21   Cl1   S    
C5    O10   S    
C31   C32   S    
C33   H14   S    
C22   C25   A    
C35   H16   S    
C32   H10   S    
C31   H8    S    
C5    C13   A    
C15   O7    A    
C16   C27   A    
C3    C39   A    
C33   H11   S    
C27   C30   A    
C9    H4    S    
C32   H9    S    
C14   C30   S    
C10   H3    S    
C22   H24   S    
C20   Cl2   S    
C10   N1    A    
C1    C34   S    
C15   C29   S    
C2    Cl3   S    
C25   C29   A    
C16   H1    S    
C14   O8    A    
C6    C11   A    
C5    C7    A    
C36   H17   S    
C6    C8    A    
C1    O4    A    
C12   O5    A    
Cu1   O9    S    
C2    C4    A    
C6    O2    S    
Cu1   Cu2   S    
C14   O6    A    
Cu1   O6    S    
C9    C11   A    
C7    N2    A    
C33   H13   S    
C20   C22   A    
C26   C30   A    
Cu1   O5    S    
C8    N1    A    
C1    O1    A    
Cu2   O8    S    
Cu1   N1    S    
C3    C4    A    
C15   O9    A    
C28   C29   A    
C31   O10   S    
C17   C28   A    
C4    C38   A    
C10   C13   A    
C8    H5    S    
C25   C27   A    
C26   C28   A    
C23   C41   A    
C40   H27   S    
C32   C33   S    
C38   C40   A    
C11   C13   A    
C37   H19   S    
C17   C19   A    
Cu2   O4    S    
C12   O3    A    
C18   C20   A    
C9    N2    A    
C17   H12   S    
C39   H2    S    
C16   C18   A    
C21   C24   A    
C2    C23   A    
Cu2   O7    S    
C35   H15   S    
C7    H6    S    
C31   H7    S    
