data_mof_unit_36838.cif
_audit_creation_date              2012-12-11T17:36:25-0500
_audit_creation_method            fapswitch 2.2
_symmetry_space_group_name_H-M    P1
_symmetry_Int_Tables_number       1
_space_group_crystal_system       triclinic
_cell_length_a                    25.72393
_cell_length_b                    6.910497
_cell_length_c                    21.681428
_cell_angle_alpha                 90.002234
_cell_angle_beta                  96.536881
_cell_angle_gamma                 90.001212
_cell_volume                      3829.14509335

loop_
_atom_site_label
_atom_site_type_symbol
_atom_type_description
_atom_site_fract_x
_atom_site_fract_y
_atom_site_fract_z
_atom_type_partial_charge
O1    O     O_R   0.208650 0.594520 0.175450 -0.523556
O2    O     O_R   0.791350 0.405480 0.824550 -0.541550
O3    O     O_R   0.291350 0.094520 0.324550 -0.523537
O4    O     O_R   0.708650 0.905480 0.675450 -0.541677
O5    O     O_R   0.192980 0.260780 0.300160 -0.528182
O6    O     O_R   0.807020 0.739220 0.699840 -0.542763
O7    O     O_R   0.307020 0.760780 0.199840 -0.528222
O8    O     O_R   0.692980 0.239220 0.800160 -0.542594
C1    C     C_R   0.178647 0.432747 0.318076 0.722626
C2    C     C_R   0.820889 0.567286 0.681516 0.720252
C3    C     C_R   0.321352 0.932745 0.181924 0.722588
C4    C     C_R   0.679112 0.067288 0.818484 0.720166
O9    O     O_R   0.202550 0.264660 0.174420 -0.544678
O10   O     O_R   0.797450 0.735340 0.825580 -0.527000
O11   O     O_R   0.297450 0.764660 0.325580 -0.544663
O12   O     O_R   0.702550 0.235340 0.674420 -0.526854
O13   O     O_R   0.300990 0.096480 0.197920 -0.539712
O14   O     O_R   0.699010 0.903520 0.802080 -0.520578
O15   O     O_R   0.199010 0.596480 0.302080 -0.539716
O16   O     O_R   0.800990 0.403520 0.697920 -0.520609
C5    C     C_R   0.190515 0.433502 0.151133 0.744910
C6    C     C_R   0.808821 0.566273 0.849283 0.758265
C7    C     C_R   0.309481 0.933511 0.348870 0.744968
C8    C     C_R   0.691179 0.066262 0.650717 0.757728
O17   O     O_3   0.282290 0.427760 0.257860 -0.367907
O18   O     O_3   0.717710 0.572240 0.742140 -0.367457
O19   O     O_3   0.217710 0.927760 0.242140 -0.367898
O20   O     O_3   0.782290 0.072240 0.757860 -0.367614
V1    V     V_3+5 0.244010 0.152080 0.248540 1.497991
V2    V     V_3+5 0.755990 0.847920 0.751460 1.503574
V3    V     V_3+5 0.255990 0.652080 0.251460 1.497964
V4    V     V_3+5 0.744010 0.347920 0.748540 1.503963
C9    C     C_R   0.659477 0.054956 0.589307 -0.130023
C10   C     C_R   0.342761 0.938736 0.409501 -0.125610
C11   C     C_R   0.840503 0.555040 0.910708 -0.130183
C12   C     C_R   0.157223 0.438668 0.090508 -0.125548
C13   C     C_R   0.651660 0.030789 0.477085 -0.116609
C14   C     C_R   0.354403 0.884569 0.520660 -0.108716
C15   C     C_R   0.848352 0.532091 0.022956 -0.116770
C16   C     C_R   0.145531 0.383693 0.979389 -0.108723
C17   C     C_R   0.683156 0.059283 0.533583 -0.051965
C18   C     C_R   0.321023 0.905177 0.465392 -0.053743
C19   C     C_R   0.816836 0.560134 0.966443 -0.052356
C20   C     C_R   0.178931 0.404602 0.034628 -0.053696
C21   C     C_R   0.605312 0.021531 0.586788 -0.209386
C22   C     C_R   0.397492 0.955216 0.410852 -0.211310
C23   C     C_R   0.894653 0.521280 0.913240 -0.209412
C24   C     C_R   0.102499 0.455452 0.089168 -0.211331
C25   C     C_R   0.574029 0.976308 0.530164 0.045775
C26   C     C_R   0.431993 0.921196 0.466127 0.047522
C27   C     C_R   0.925938 0.476472 0.969896 0.045856
C28   C     C_R   0.067970 0.421167 0.033931 0.047535
C29   C     C_R   0.597743 0.989760 0.474545 0.010658
C30   C     C_R   0.409223 0.891357 0.521894 0.009006
C31   C     C_R   0.902250 0.490700 0.025512 0.010598
C32   C     C_R   0.090713 0.390712 0.978177 0.009052
C33   C     C_R   0.519589 0.925771 0.527058 -0.117244
C34   C     C_R   0.488145 0.922898 0.468223 -0.114958
C35   C     C_R   0.980361 0.425646 0.973028 -0.117215
C36   C     C_R   0.011820 0.423175 0.031855 -0.114983
C37   C     C_R   0.514391 0.912714 0.413859 0.260030
C38   C     C_R   0.495803 0.868480 0.580366 0.265142
C39   C     C_R   0.985586 0.413704 0.086239 0.260044
C40   C     C_R   0.004112 0.367699 0.919763 0.265133
C41   C     C_R   0.568205 0.956253 0.416813 0.342897
C42   C     C_R   0.440925 0.862657 0.578424 0.348365
C43   C     C_R   0.931792 0.457599 0.083267 0.342859
C44   C     C_R   0.058986 0.361630 0.921685 0.348355
H1    H     H_    0.412168 0.995817 0.367998 0.156572
H2    H     H_    0.588268 0.033193 0.629905 0.160575
H3    H     H_    0.087854 0.496462 0.132002 0.156591
H4    H     H_    0.911692 0.532418 0.870105 0.160546
H5    H     H_    0.669772 0.038919 0.434451 0.211917
H6    H     H_    0.337067 0.862126 0.563353 0.210849
H7    H     H_    0.830273 0.540800 0.065601 0.212216
H8    H     H_    0.162846 0.360828 0.936705 0.210824
C45   C     C_R   0.441943 0.809119 0.101580 0.425565
C46   C     C_R   0.598072 0.174139 0.951136 0.435650
C47   C     C_R   0.058041 0.309146 0.398390 0.425673
C48   C     C_R   0.901937 0.674154 0.548876 0.435684
C49   C     C_R   0.401027 0.796194 0.139207 -0.070028
C50   C     C_R   0.634418 0.192993 0.907751 -0.140506
C51   C     C_R   0.098961 0.296218 0.360770 -0.070006
C52   C     C_R   0.865595 0.693017 0.592265 -0.140156
H9    H     H_    0.398870 0.669914 0.168432 0.147483
H10   H     H_    0.661468 0.313742 0.911968 0.154655
H11   H     H_    0.101115 0.169950 0.331536 0.147470
H12   H     H_    0.838558 0.813800 0.588064 0.154189
C53   C     C_R   0.364123 0.944828 0.140820 -0.148592
C54   C     C_R   0.637698 0.054836 0.861011 -0.123565
C55   C     C_R   0.135874 0.444835 0.359175 -0.148597
C56   C     C_R   0.862302 0.554827 0.638988 -0.123302
C57   C     C_R   0.368350 0.107715 0.103069 -0.206952
C58   C     C_R   0.603052 0.897439 0.857213 -0.140264
C59   C     C_R   0.131649 0.607716 0.396935 -0.206873
C60   C     C_R   0.896933 0.397390 0.642767 -0.140432
H13   H     H_    0.339837 0.222420 0.103820 0.194099
H14   H     H_    0.605459 0.789289 0.821411 0.153492
H15   H     H_    0.160169 0.722412 0.396199 0.194014
H16   H     H_    0.894514 0.289213 0.678557 0.153450
C61   C     C_R   0.407445 0.122271 0.062654 -0.034192
C62   C     C_R   0.565378 0.876572 0.899011 -0.117819
C63   C     C_R   0.092546 0.622274 0.437339 -0.034061
C64   C     C_R   0.934606 0.376514 0.600967 -0.117788
C65   C     C_R   0.445237 0.972499 0.062027 -0.053103
C66   C     C_R   0.562327 0.015882 0.946552 -0.052880
C67   C     C_R   0.054751 0.472508 0.437956 -0.053151
C68   C     C_R   0.937669 0.515863 0.553442 -0.052752
C69   C     C_1   0.487128 0.987625 0.021974 0.040131
C70   C     C_1   0.521471 0.000890 0.988042 -0.002933
C71   C     C_1   0.012864 0.487623 0.478014 0.040129
C72   C     C_1   0.978523 0.500880 0.511950 -0.002938
O21   O     O_3   0.593580 0.959281 0.363780 -0.630352
H17   H     H_    0.567710 0.955964 0.326317 0.347792
O22   O     O_3   0.417073 0.820754 0.631021 -0.623162
H18   H     H_    0.443032 0.826257 0.668378 0.361213
O23   O     O_3   0.906438 0.461363 0.136311 -0.630346
H19   H     H_    0.932319 0.458282 0.173767 0.347788
O24   O     O_3   0.082809 0.319104 0.869113 -0.623190
H20   H     H_    0.056840 0.324352 0.831762 0.361198
C73   C     C_2   0.263678 0.891815 0.468335 0.753074
O25   O     O_2   0.232980 0.976934 0.430507 -0.552600
O26   O     O_R   0.244845 0.784981 0.515894 -0.647529
H21   H     H_    0.205334 0.787432 0.513772 0.320128
C74   C     C_2   0.740437 0.091674 0.532055 0.726051
O27   O     O_2   0.767421 0.161944 0.576512 -0.566734
O28   O     O_R   0.763640 0.043085 0.478824 -0.647549
H22   H     H_    0.802563 0.071534 0.483234 0.325751
C75   C     C_2   0.236271 0.391059 0.031672 0.753190
O29   O     O_2   0.266986 0.476449 0.069415 -0.552567
O30   O     O_R   0.255079 0.283760 0.984195 -0.647526
H23   H     H_    0.294590 0.286140 0.986301 0.320031
C76   C     C_2   0.759559 0.592852 0.967983 0.726111
O31   O     O_2   0.732448 0.660768 0.923219 -0.566913
O32   O     O_R   0.736489 0.547185 0.021560 -0.647512
H24   H     H_    0.697555 0.575460 0.017108 0.325521
O33   O     O_3   0.490691 0.836277 0.358938 -0.655207
H25   H     H_    0.467082 0.730747 0.369437 0.297343
O34   O     O_3   0.524593 0.793352 0.632498 -0.647116
H26   H     H_    0.554379 0.720063 0.618785 0.299412
O35   O     O_3   0.009266 0.337627 0.141222 -0.655201
H27   H     H_    0.032825 0.231831 0.130807 0.297324
O36   O     O_3   0.975285 0.292196 0.867713 -0.647165
H28   H     H_    0.945482 0.219209 0.881509 0.299391
O37   O     O_3   0.477387 0.657983 0.105352 -0.628736
H29   H     H_    0.505686 0.685012 0.079378 0.293776
O38   O     O_3   0.599676 0.312790 0.997244 -0.644800
H30   H     H_    0.574515 0.280460 0.026907 0.306660
O39   O     O_3   0.022586 0.158036 0.394600 -0.628690
H31   H     H_    0.994276 0.185101 0.420553 0.293775
O40   O     O_3   0.900343 0.812829 0.502780 -0.644979
H32   H     H_    0.925491 0.780468 0.473103 0.306686
C77   C     C_2   0.406841 0.294856 0.021222 0.813630
O41   O     O_2   0.385917 0.444611 0.035584 -0.540958
O42   O     O_R   0.428220 0.285697 0.964829 -0.634497
H33   H     H_    0.423869 0.411111 0.940534 0.345878
C78   C     C_2   0.529369 0.707737 0.890984 0.864774
O43   O     O_2   0.509710 0.663295 0.838994 -0.508267
O44   O     O_R   0.518294 0.594845 0.941324 -0.634064
H34   H     H_    0.541200 0.627320 0.981041 0.272411
C79   C     C_2   0.093140 0.794866 0.478768 0.813505
O45   O     O_2   0.114011 0.944691 0.464375 -0.541041
O46   O     O_R   0.071809 0.785637 0.535189 -0.634494
H35   H     H_    0.076145 0.911071 0.559478 0.345858
C80   C     C_2   0.970600 0.207632 0.608977 0.864712
O47   O     O_2   0.990221 0.163038 0.660969 -0.508343
O48   O     O_R   0.981701 0.094857 0.558618 -0.634035
H36   H     H_    0.958806 0.127385 0.518898 0.272427

loop_
_geom_bond_atom_site_label_1
_geom_bond_atom_site_label_2
_ccdc_geom_bond_type
O17   V3    S    
C48   O40   S    
C51   H11   S    
O1    C5    A    
C78   O43   D    
C57   H13   S    
O19   V1    S    
C9    C21   A    
O12   C8    A    
O3    C7    A    
O46   H35   S    
C10   C18   A    
C56   C60   A    
C48   C52   A    
C11   C23   A    
C1    C55   S    
C19   C76   S    
O37   H29   S    
C25   C33   A    
O32   H24   S    
C5    C12   S    
O7    C3    A    
C6    C11   S    
C35   C40   A    
C26   C30   A    
C36   C39   A    
C40   C44   A    
C4    C54   S    
C14   C18   A    
C44   O24   S    
O16   V4    S    
O4    C8    A    
C59   H15   S    
C58   H14   S    
O36   H28   S    
O1    V3    S    
O13   V1    S    
O2    V4    S    
C32   C44   A    
O3    V1    S    
C46   C50   A    
C22   H1    S    
C65   C69   S    
C28   C36   A    
O38   H30   S    
C64   C80   S    
O39   H31   S    
C1    O15   A    
C15   C31   A    
C71   C72   T    
C2    O16   A    
C16   C32   A    
O2    C6    A    
O40   H32   S    
C12   C24   A    
C10   C22   A    
C15   H7    S    
C38   O34   S    
C77   O42   S    
C11   C19   A    
C16   C20   A    
C47   O39   S    
C49   C53   A    
C34   C37   A    
O11   C7    A    
O15   V3    S    
C35   C36   A    
C78   O44   S    
O17   V1    S    
C67   C71   S    
O10   V2    S    
C62   C78   S    
C79   O46   S    
C59   C63   A    
C54   C58   A    
O5    V1    S    
C61   C65   A    
O34   H26   S    
C39   C43   A    
C63   C79   S    
O7    V3    S    
C42   O22   S    
C38   C42   A    
O19   V3    S    
C26   C34   A    
C17   C74   S    
O26   H21   S    
C57   C61   A    
O48   H36   S    
O18   V4    S    
C15   C19   A    
C33   C38   A    
C20   C75   S    
C50   H10   S    
C55   C59   A    
C53   C57   A    
C16   H8    S    
O8    V4    S    
O5    C1    A    
C37   C41   A    
C3    C53   S    
C31   C43   A    
O44   H34   S    
C14   C30   A    
O20   V4    S    
O8    C4    A    
C7    C10   S    
C21   C25   A    
C39   O35   S    
C47   C67   A    
C52   C56   A    
C43   O23   S    
C73   O25   D    
C48   C68   A    
C46   O38   S    
O14   V2    S    
O6    V2    S    
O18   V2    S    
C60   C64   A    
C74   O27   D    
C12   C20   A    
C27   C35   A    
C61   C77   S    
C4    O14   A    
O28   H22   S    
C45   O37   S    
C64   C68   A    
C29   C41   A    
C76   O32   S    
O21   H17   S    
C66   C70   S    
O9    V1    S    
C13   H5    S    
C3    O13   A    
C21   H2    S    
C41   O21   S    
C52   H12   S    
O6    C2    A    
C23   C27   A    
O24   H20   S    
O11   V3    S    
C30   C42   A    
C40   O36   S    
O12   V4    S    
C51   C55   A    
O33   H25   S    
C22   C26   A    
C8    C9    S    
C50   C54   A    
C46   C66   A    
C9    C17   A    
O10   C6    A    
O20   V2    S    
C75   O29   D    
C13   C29   A    
C79   O45   D    
O35   H27   S    
O9    C5    A    
C47   C51   A    
C37   O33   S    
C33   C34   A    
C76   O31   D    
C25   C29   A    
C60   H16   S    
C45   C65   A    
C14   H6    S    
C62   C66   A    
C27   C31   A    
C13   C17   A    
O30   H23   S    
O4    V2    S    
C23   H4    S    
C73   O26   S    
C2    C56   S    
C68   C72   S    
C80   O47   D    
C24   C28   A    
C58   C62   A    
C80   O48   S    
C45   C49   A    
C69   C70   T    
O42   H33   S    
C74   O28   S    
C63   C67   A    
C24   H3    S    
O22   H18   S    
C77   O41   D    
O23   H19   S    
C49   H9    S    
C28   C32   A    
C18   C73   S    
C75   O30   S    
