data_mof_unit_19689.cif
_audit_creation_date              2012-12-10T20:44:50-0500
_audit_creation_method            fapswitch 2.2
_symmetry_space_group_name_H-M    P1
_symmetry_Int_Tables_number       1
_space_group_crystal_system       triclinic
_cell_length_a                    9.906958
_cell_length_b                    10.656601
_cell_length_c                    16.853727
_cell_angle_alpha                 89.077062
_cell_angle_beta                  96.051018
_cell_angle_gamma                 89.65461
_cell_volume                      1769.12717362

loop_
_atom_site_label
_atom_site_type_symbol
_atom_type_description
_atom_site_fract_x
_atom_site_fract_y
_atom_site_fract_z
_atom_type_partial_charge
C1    C     C_R   0.499501 0.260052 0.495767 0.887873
C2    C     C_R   0.495565 0.129375 0.478619 -0.116626
C3    C     C_R   0.370918 0.066251 0.472262 -0.207125
C4    C     C_R   0.519751 0.497284 0.653045 0.883352
C5    C     C_R   0.370418 0.936501 0.473123 -0.225501
C6    C     C_R   0.494625 0.871386 0.479902 -0.119813
C7    C     C_R   0.612882 0.935183 0.467231 0.078151
C8    C     C_3   0.753804 0.925287 0.509082 -0.080949
C9    C     C_3   0.755439 0.069045 0.506516 -0.153473
C10   C     C_R   0.083114 0.475353 0.568586 0.147928
C11   C     C_R   0.057890 0.543850 0.435571 0.094860
C12   C     C_R   0.645300 0.555807 0.780904 -0.247805
C13   C     C_R   0.914945 0.541914 0.435673 -0.101464
C14   C     C_R   0.941141 0.477144 0.568836 0.158668
C15   C     C_3   0.942888 0.364495 0.622582 -0.186098
C16   C     C_R   0.498905 0.740040 0.496358 0.873556
C17   C     C_3   0.097431 0.361259 0.621912 -0.178541
C18   C     C_R   0.480654 0.503334 0.346891 0.857244
C19   C     C_R   0.536663 0.493378 0.739121 -0.039547
C20   C     C_R   0.443934 0.426915 0.779761 -0.246720
C21   C     C_R   0.453942 0.429053 0.861965 -0.205689
C22   C     C_R   0.556927 0.499104 0.904436 0.316028
C23   C     C_R   0.561538 0.573364 0.140656 -0.159373
C24   C     C_R   0.656186 0.558834 0.864146 0.099926
C25   C     C_R   0.568904 0.570625 0.222921 -0.232784
C26   C     C_R   0.452116 0.515582 0.095463 0.320582
C27   C     C_R   0.466639 0.512058 0.260797 -0.019927
C28   C     C_R   0.353739 0.460919 0.216014 -0.227863
C29   C     C_R   0.346464 0.463396 0.133297 -0.186409
C30   C     C_R   0.613339 0.063740 0.465889 0.049251
H1    H     H_    0.655154 0.613210 0.256939 0.151978
H2    H     H_    0.261474 0.419982 0.098672 0.140184
H3    H     H_    0.364292 0.373010 0.747957 0.152527
H4    H     H_    0.275371 0.115453 0.473504 0.178423
H5    H     H_    0.947033 0.887220 0.482096 0.199946
H6    H     H_    0.830474 0.889905 0.400850 0.196279
H7    H     H_    0.822136 0.103958 0.395292 0.197327
H8    H     H_    0.845596 0.221316 0.459310 0.205671
H9    H     H_    0.187991 0.656707 0.383599 0.230218
H10   H     H_    0.142781 0.520755 0.333506 0.207622
H11   H     H_    0.954447 0.471497 0.724824 0.182494
H12   H     H_    0.274681 0.888617 0.475330 0.167950
H13   H     H_    0.923192 0.317995 0.738762 0.188192
H14   H     H_    0.887615 0.283760 0.594915 0.175039
H15   H     H_    0.155573 0.379135 0.680421 0.161099
H16   H     H_    0.088299 0.238261 0.527680 0.195411
H17   H     H_    0.131970 0.172484 0.618266 0.181273
H18   H     H_    0.832802 0.659222 0.869850 0.174327
H19   H     H_    0.721733 0.704161 0.932589 0.183046
H20   H     H_    0.757117 0.884521 0.570453 0.145025
H21   H     H_    0.761707 0.110518 0.566824 0.145995
H22   H     H_    0.850750 0.574091 0.383331 0.164465
H23   H     H_    0.642644 0.618000 0.112595 0.151485
H24   H     H_    0.718347 0.605371 0.748736 0.152734
H25   H     H_    0.274372 0.414880 0.244776 0.146627
H26   H     H_    0.380038 0.377642 0.892341 0.156252
N1    N     N_2   0.561533 0.512565 0.987548 -0.192418
N2    N     N_3   0.764403 0.625529 0.908202 -0.457342
N3    N     N_2   0.447842 0.503764 0.012282 -0.212306
N4    N     N_R   0.142860 0.499130 0.500540 -0.115950
N5    N     N_R   0.857210 0.499170 0.500530 -0.135897
N6    N     N_3   0.848016 0.862243 0.460889 -0.422573
N7    N     N_3   0.851435 0.123780 0.455217 -0.469699
N8    N     N_3   0.109504 0.594793 0.366270 -0.471721
N9    N     N_3   0.899697 0.395001 0.700481 -0.425331
N10   N     N_3   0.146423 0.251207 0.582410 -0.414660
O1    O     O_R   0.614690 0.316790 0.499990 -0.626285
O2    O     O_R   0.385350 0.316760 0.500000 -0.596836
O3    O     O_R   0.627460 0.498860 0.616130 -0.595992
O4    O     O_R   0.398120 0.498820 0.616130 -0.610237
O5    O     O_R   0.614650 0.683240 0.500000 -0.600914
O6    O     O_R   0.385310 0.683210 0.500010 -0.634008
O7    O     O_R   0.601880 0.501180 0.383870 -0.626916
O8    O     O_R   0.372540 0.501140 0.383870 -0.645024
Zn1   Zn    Zn3+2 0.653130 0.500020 0.499990 0.949476
Zn2   Zn    Zn3+2 0.346870 0.499980 0.500010 0.941330

loop_
_geom_bond_atom_site_label_1
_geom_bond_atom_site_label_2
_ccdc_geom_bond_type
C25   H1    S    
C5    H12   S    
C19   C20   A    
C9    H21   S    
O6    Zn2   S    
C22   N1    S    
C4    O4    A    
C7    C8    S    
N5    Zn1   S    
H9    N8    S    
C17   N10   S    
O8    Zn2   S    
C28   C29   A    
C17   H15   S    
C15   H14   S    
H16   N10   S    
C29   H2    S    
C5    C6    A    
N1    N3    D    
C10   C17   S    
C15   N9    S    
C1    O2    A    
C1    C2    S    
C23   C26   A    
C4    C19   S    
C8    C9    S    
C16   O6    A    
C26   N3    S    
H17   N10   S    
C18   O8    A    
C7    C30   A    
C21   C22   A    
O7    Zn1   S    
C16   O5    A    
H6    N6    S    
C4    O3    A    
H7    N7    S    
C28   H25   S    
C23   H23   S    
C11   N8    S    
C10   C14   A    
H11   N9    S    
C3    H4    S    
C14   N5    A    
N4    Zn2   S    
H19   N2    S    
C10   N4    A    
C13   H22   S    
H13   N9    S    
C9    C30   S    
C20   H3    S    
C18   O7    A    
O4    Zn2   S    
C25   C27   A    
C22   C24   A    
O1    Zn1   S    
C11   N4    A    
C8    H20   S    
H8    N7    S    
C15   C17   S    
C9    N7    S    
C18   C27   S    
C3    C5    A    
C21   H26   S    
H18   N2    S    
C6    C7    A    
O2    Zn2   S    
C12   C24   A    
H10   N8    S    
C2    C30   A    
C2    C3    A    
O5    Zn1   S    
C11   C13   A    
C12   C19   A    
C1    O1    A    
O3    Zn1   S    
H5    N6    S    
C23   C25   A    
C6    C16   S    
C13   N5    A    
C20   C21   A    
C26   C29   A    
C24   N2    S    
C27   C28   A    
C14   C15   S    
C12   H24   S    
C8    N6    S    
