data_mof_unit_67916.cif
_audit_creation_date              2012-12-10T18:59:53-0500
_audit_creation_method            fapswitch 2.2
_symmetry_space_group_name_H-M    P1
_symmetry_Int_Tables_number       1
_space_group_crystal_system       triclinic
_cell_length_a                    10.732542
_cell_length_b                    10.52929
_cell_length_c                    10.128934
_cell_angle_alpha                 87.129525
_cell_angle_beta                  89.729272
_cell_angle_gamma                 88.271911
_cell_volume                      1142.66876533

loop_
_atom_site_label
_atom_site_type_symbol
_atom_type_description
_atom_site_fract_x
_atom_site_fract_y
_atom_site_fract_z
_atom_type_partial_charge
C1    C     C_R   0.499119 0.261312 0.502609 0.881985
C2    C     C_R   0.500881 0.738688 0.497391 0.881978
C3    C     C_R   0.875651 0.470804 0.504227 -0.145233
C4    C     C_R   0.124350 0.529203 0.495773 -0.145239
C5    C     C_R   0.940476 0.489395 0.621090 0.046339
C6    C     C_R   0.059525 0.510615 0.378909 0.046342
C7    C     C_R   0.390102 0.071552 0.472989 -0.112819
C8    C     C_R   0.609897 0.928447 0.527019 -0.112811
C9    C     C_R   0.389232 0.941321 0.465859 0.157255
C10   C     C_R   0.610768 0.058679 0.534145 0.157258
C11   C     C_R   0.500232 0.871782 0.492495 -0.038946
C12   C     C_R   0.499768 0.128217 0.507506 -0.038942
C13   C     C_R   0.515572 0.609668 0.062484 0.301472
C14   C     C_R   0.484426 0.390332 0.937516 0.301475
C15   C     C_R   0.517505 0.608245 0.921610 -0.139080
C16   C     C_R   0.482495 0.391755 0.078390 -0.139070
C17   C     C_R   0.259973 0.512637 0.499044 0.889755
C18   C     C_R   0.740027 0.487364 0.500956 0.889760
C19   C     C_R   0.122084 0.785971 0.136558 0.229550
C20   C     C_R   0.877907 0.214045 0.863444 0.229565
C21   C     C_R   0.070629 0.716175 0.244360 0.166375
C22   C     C_R   0.929365 0.283837 0.755641 0.166371
C23   C     C_R   0.092577 0.583435 0.257119 -0.040748
C24   C     C_R   0.907424 0.416578 0.742882 -0.040741
C25   C     C_R   0.142551 0.519495 0.151785 -0.186638
C26   C     C_R   0.857453 0.480522 0.848216 -0.186641
C27   C     C_R   0.181711 0.586776 0.037984 0.036382
C28   C     C_R   0.818290 0.413244 0.962018 0.036389
C29   C     C_R   0.182673 0.721365 0.035040 0.304418
C30   C     C_R   0.817320 0.278654 0.964961 0.304412
C31   C     C_R   0.941772 0.461586 0.386845 0.215751
C32   C     C_R   0.058229 0.538424 0.613154 0.215746
H1    H     H_    0.533973 0.695412 0.864106 0.218254
H2    H     H_    0.466026 0.304588 0.135894 0.218256
H3    H     H_    0.149169 0.416408 0.157690 0.218870
H4    H     H_    0.850840 0.583610 0.842311 0.218870
H5    H     H_    0.306364 0.129141 0.451468 0.178187
H6    H     H_    0.693633 0.870858 0.548542 0.178189
N1    N     N_R   0.499970 0.499970 0.857200 -0.142950
N2    N     N_R   0.500030 0.500030 0.142800 -0.142949
O1    O     O_R   0.499990 0.316750 0.614620 -0.568740
O2    O     O_R   0.500010 0.683250 0.385380 -0.568739
O3    O     O_R   0.499990 0.316780 0.385290 -0.614134
O4    O     O_R   0.500010 0.683220 0.614710 -0.614139
O5    O     O_R   0.316760 0.500000 0.614660 -0.589519
O6    O     O_R   0.683240 0.500000 0.385340 -0.589520
O7    O     O_R   0.316760 0.500020 0.385330 -0.614552
O8    O     O_R   0.683240 0.499980 0.614670 -0.614553
Zn1   Zn    Zn3+2 0.500000 0.499980 0.653120 1.003070
Zn2   Zn    Zn3+2 0.500000 0.500020 0.346880 1.003072
Br1   Br    Br    0.270204 0.818819 0.899644 -0.327339
Br2   Br    Br    0.729784 0.181205 0.100357 -0.327356
Br3   Br    Br    0.111442 0.969383 0.129864 -0.266015
Br4   Br    Br    0.888543 0.030631 0.870141 -0.266016
Br5   Br    Br    0.963636 0.800630 0.368259 -0.402996
Br6   Br    Br    0.036353 0.199376 0.631741 -0.402998
C33   C     C_3   0.208241 0.511103 0.919851 -0.707992
H7    H     H_    0.267416 0.562023 0.846815 0.289597
H8    H     H_    0.251027 0.417512 0.949442 0.234834
H9    H     H_    0.118728 0.489157 0.874536 0.256167
C34   C     C_3   0.791762 0.488920 0.080149 -0.707991
H10   H     H_    0.732587 0.438001 0.153188 0.289599
H11   H     H_    0.881276 0.510867 0.125462 0.256165
H12   H     H_    0.748974 0.582510 0.050557 0.234838
Br7   Br    Br    0.930576 0.303581 0.304793 -0.447201
Br8   Br    Br    0.069427 0.696432 0.695200 -0.447208
C35   C     C_3   0.271129 0.877713 0.432544 -0.701378
H13   H     H_    0.246842 0.808194 0.513513 0.256459
H14   H     H_    0.192206 0.947575 0.418722 0.298658
H15   H     H_    0.285634 0.826830 0.340326 0.232667
C36   C     C_3   0.728872 0.122286 0.567451 -0.701430
H16   H     H_    0.753165 0.191777 0.486470 0.256485
H17   H     H_    0.714371 0.173190 0.659645 0.232662
H18   H     H_    0.807789 0.052427 0.581295 0.298658
Br9   Br    Br    0.551654 0.771483 0.128356 -0.369762
Br10  Br    Br    0.448336 0.228520 0.871643 -0.369746

loop_
_geom_bond_atom_site_label_1
_geom_bond_atom_site_label_2
_ccdc_geom_bond_type
O4    Zn1   S    
C16   N2    A    
C27   C29   A    
C20   C30   A    
C19   C21   A    
C24   C26   A    
C33   H8    S    
C3    C18   S    
C31   Br7   S    
C34   H11   S    
C13   N2    A    
C16   H2    S    
C14   N1    A    
C1    O3    A    
C13   Br9   S    
C2    O4    A    
C5    C32   A    
C10   C36   S    
C19   Br3   S    
C6    C31   A    
C20   Br4   S    
C1    C12   S    
C8    H6    S    
C2    C11   S    
C18   O6    A    
O1    Zn1   S    
O7    Zn2   S    
C21   C23   A    
C7    C12   A    
C25   H3    S    
C35   H13   S    
C4    C6    A    
C27   C33   S    
C21   Br5   S    
C33   H9    S    
C22   Br6   S    
C35   H14   S    
C14   Br10  S    
C34   H12   S    
C9    C35   S    
O5    Zn1   S    
C7    H5    S    
C3    C31   A    
C9    C11   A    
C15   N1    A    
C4    C32   A    
C10   C12   A    
O2    Zn2   S    
C4    C17   S    
C1    O1    A    
O8    Zn1   S    
N1    Zn1   S    
C20   C22   A    
C13   C15   A    
C14   C16   A    
C19   C29   A    
C32   Br8   S    
C29   Br1   S    
C26   H4    S    
C7    C9    A    
C30   Br2   S    
C17   O7    A    
C17   O5    A    
C3    C5    A    
C18   O8    A    
C36   H18   S    
O3    Zn2   S    
C25   C27   A    
O6    Zn2   S    
C26   C28   A    
C35   H15   S    
C28   C30   A    
C36   H16   S    
C28   C34   S    
C33   H7    S    
C5    C24   S    
C2    O2    A    
C8    C11   A    
N2    Zn2   S    
C6    C23   S    
C22   C24   A    
C23   C25   A    
C34   H10   S    
C8    C10   A    
C36   H17   S    
C15   H1    S    
