data_mof_unit_29028.cif
_audit_creation_date              2012-12-10T17:33:00-0500
_audit_creation_method            fapswitch 2.2
_symmetry_space_group_name_H-M    P1
_symmetry_Int_Tables_number       1
_space_group_crystal_system       triclinic
_cell_length_a                    12.362306
_cell_length_b                    13.178724
_cell_length_c                    14.18805
_cell_angle_alpha                 93.14786
_cell_angle_beta                  108.119451
_cell_angle_gamma                 116.789961
_cell_volume                      1908.52803579

loop_
_atom_site_label
_atom_site_type_symbol
_atom_type_description
_atom_site_fract_x
_atom_site_fract_y
_atom_site_fract_z
_atom_type_partial_charge
C1    C     C_R   0.650736 0.715161 0.508975 0.783669
C2    C     C_R   0.899005 0.567667 0.926308 0.083255
C3    C     C_R   0.864545 0.602063 0.003948 0.056989
C4    C     C_R   0.016843 0.561647 0.952910 0.073200
C5    C     C_R   0.091809 0.580739 0.057403 0.008063
C6    C     C_R   0.070121 0.637450 0.131943 -0.048511
C7    C     C_R   0.955315 0.643654 0.104720 -0.211171
C8    C     C_R   0.061878 0.535333 0.879394 -0.202427
C9    C     C_R   0.167056 0.514553 0.907281 -0.210493
C10   C     C_R   0.224955 0.511837 0.007743 0.154191
C11   C     C_R   0.183910 0.540497 0.082834 0.117493
C12   C     C_R   0.619465 0.517603 0.687901 0.820240
C13   C     C_R   0.319940 0.476692 0.033692 -0.135829
C14   C     C_R   0.370921 0.465944 0.132818 -0.176348
C15   C     C_R   0.227070 0.517934 0.178877 -0.176543
C16   C     C_R   0.136003 0.966014 0.360457 -0.133281
C17   C     C_R   0.251594 0.161433 0.465211 -0.057876
C18   C     C_R   0.731338 0.929022 0.574403 -0.000180
C19   C     C_R   0.833537 0.043580 0.602737 -0.177468
C20   C     C_R   0.938149 0.073525 0.572647 -0.192279
C21   C     C_R   0.941132 0.990339 0.507715 0.089106
C22   C     C_R   0.833722 0.874793 0.473262 0.070802
C23   C     C_R   0.345907 0.285069 0.485434 0.814313
C24   C     C_R   0.045379 0.019481 0.473004 0.077036
C25   C     C_R   0.036032 0.936501 0.398315 0.145970
C26   C     C_R   0.924818 0.826784 0.359225 -0.184021
C27   C     C_R   0.824344 0.797064 0.394600 -0.155712
C28   C     C_R   0.157673 0.129956 0.508496 -0.228032
C29   C     C_R   0.243016 0.078497 0.393148 -0.179288
C30   C     C_R   0.735804 0.840881 0.515591 -0.172901
C31   C     C_R   0.254404 0.684900 0.663365 -0.309655
C32   C     C_R   0.653741 0.341570 0.363156 0.021782
C33   C     C_R   0.730376 0.305589 0.331606 -0.070170
C34   C     C_R   0.381817 0.483894 0.312798 0.800939
C35   C     C_R   0.866707 0.366462 0.383518 -0.232039
C36   C     C_R   0.927368 0.462484 0.466614 -0.020855
C37   C     C_R   0.843903 0.494968 0.495404 0.292203
C38   C     C_R   0.067365 0.526968 0.522569 -0.003944
C39   C     C_R   0.119494 0.621333 0.606059 0.170262
C40   C     C_R   0.036940 0.651934 0.632342 -0.285778
C41   C     C_R   0.902770 0.590484 0.578418 -0.188442
C42   C     C_R   0.159159 0.502552 0.500234 0.059325
C43   C     C_R   0.338456 0.655887 0.637987 0.094743
C44   C     C_R   0.694839 0.538311 0.798321 -0.138351
C45   C     C_R   0.324345 0.486559 0.206053 -0.071629
C46   C     C_R   0.742331 0.598511 0.979578 -0.046304
C47   C     C_R   0.656765 0.565951 0.876407 -0.060501
C48   C     C_R   0.812273 0.535775 0.824897 -0.250843
Cu1   Cu    Cu3+1 0.416420 0.526630 0.522910 0.993443
Cu2   Cu    Cu3+1 0.583580 0.473370 0.477090 0.935079
H1    H     H_    0.353666 0.456348 0.977241 0.175445
H2    H     H_    0.315276 0.102099 0.358603 0.166971
H3    H     H_    0.914318 0.764022 0.299859 0.165634
H4    H     H_    0.128473 0.903855 0.302197 0.166398
H5    H     H_    0.174009 0.195266 0.568294 0.158735
H6    H     H_    0.011410 0.164479 0.597596 0.145033
H7    H     H_    0.831816 0.111402 0.648112 0.165315
H8    H     H_    0.736936 0.713905 0.356170 0.169899
H9    H     H_    0.442471 0.704811 0.682134 0.176005
H10   H     H_    0.183292 0.522170 0.232945 0.157312
H11   H     H_    0.076521 0.724284 0.696101 0.166301
H12   H     H_    0.294746 0.756773 0.727678 0.169191
H13   H     H_    0.548546 0.295763 0.323920 0.162574
H14   H     H_    0.923539 0.337158 0.358038 0.179466
H15   H     H_    0.444830 0.439624 0.151602 0.177952
H16   H     H_    0.833803 0.507137 0.764179 0.164117
N1    N     N_R   0.290690 0.566960 0.557640 -0.178294
N2    N     N_R   0.709100 0.433710 0.442970 -0.215891
O1    O     O_R   0.545970 0.684450 0.528810 -0.547384
O2    O     O_R   0.687130 0.639470 0.490120 -0.604738
O3    O     O_R   0.519670 0.535100 0.660030 -0.559250
O4    O     O_R   0.660830 0.490120 0.621340 -0.601901
O5    O     O_R   0.312870 0.360530 0.509880 -0.580245
O6    O     O_R   0.454030 0.315550 0.471190 -0.583895
O7    O     O_R   0.339170 0.509880 0.378660 -0.572713
O8    O     O_R   0.480330 0.464900 0.339970 -0.596170
H17   H     H_    0.939628 0.685420 0.162837 0.166847
C49   C     C_2   0.619620 0.908214 0.603821 0.851483
O9    O     O_2   0.637968 0.937609 0.693138 -0.593440
O10   O     O_R   0.494675 0.861961 0.528362 -0.747377
H18   H     H_    0.427524 0.858021 0.556837 0.338316
H19   H     H_    0.128369 0.432793 0.437840 0.119404
C50   C     C_2   0.668168 0.204087 0.244589 0.874225
O11   O     O_2   0.549384 0.151365 0.199168 -0.589253
O12   O     O_R   0.745215 0.168123 0.214226 -0.752667
H20   H     H_    0.691462 0.097959 0.154286 0.357162
H21   H     H_    0.848762 0.620949 0.605266 0.205891
H22   H     H_    0.197819 0.493654 0.848789 0.155958
C51   C     C_2   0.700321 0.619827 0.062754 0.801226
O13   O     O_2   0.672476 0.697299 0.068744 -0.539540
O14   O     O_R   0.697115 0.552992 0.136095 -0.769533
H23   H     H_    0.672667 0.578488 0.191257 0.320234
C52   C     C_2   0.525102 0.553540 0.851890 0.855643
O15   O     O_2   0.427742 0.457340 0.812804 -0.615034
O16   O     O_R   0.512692 0.651801 0.872592 -0.716223
H24   H     H_    0.418238 0.632031 0.853600 0.319182
C53   C     C_2   0.171957 0.704472 0.234917 0.810175
O17   O     O_2   0.140617 0.707788 0.308296 -0.607833
O18   O     O_R   0.303840 0.764704 0.247585 -0.730587
H25   H     H_    0.363822 0.807020 0.320910 0.369937
H26   H     H_    0.019298 0.531448 0.799668 0.148706

loop_
_geom_bond_atom_site_label_1
_geom_bond_atom_site_label_2
_ccdc_geom_bond_type
C52   O15   D    
C17   C29   A    
C15   H10   S    
O16   H24   S    
C42   H19   S    
C4    C8    A    
C53   O17   D    
C46   C51   S    
O12   H20   S    
C19   H7    S    
C26   C27   A    
C17   C23   S    
C31   C43   A    
C36   C37   A    
C5    C11   A    
C3    C7    A    
Cu2   O6    S    
C9    H22   S    
C5    C6    A    
C49   O10   S    
C37   N2    A    
C18   C19   A    
Cu2   O4    S    
C13   H1    S    
C11   C15   A    
C50   O11   D    
C8    C9    A    
Cu1   O7    S    
C35   H14   S    
C18   C30   A    
C51   O14   S    
C22   C30   A    
C9    C10   A    
C44   C47   A    
C43   H9    S    
C34   O7    A    
C7    H17   S    
C12   O4    A    
C52   O16   S    
Cu1   O1    S    
C21   C22   A    
C37   C41   A    
C31   H12   S    
C23   O5    A    
C53   O18   S    
C28   H5    S    
C14   C45   A    
C41   H21   S    
C6    C53   S    
C24   C25   A    
C39   C40   A    
C49   O9    D    
C4    C5    A    
C2    C48   A    
C16   C29   A    
C27   H8    S    
C1    O1    A    
C40   H11   S    
C35   C36   A    
C2    C4    A    
Cu2   O8    S    
O18   H25   S    
C18   C49   S    
C47   C52   S    
C34   C45   S    
C33   C50   S    
C40   C41   A    
C50   O12   S    
C12   O3    A    
C22   C27   A    
C42   N1    A    
Cu1   O5    S    
C15   C45   A    
C23   O6    A    
C26   H3    S    
O14   H23   S    
C8    H26   S    
C16   C25   A    
C46   C47   A    
Cu1   N1    S    
C17   C28   A    
C24   C28   A    
C32   H13   S    
O10   H18   S    
C10   C13   A    
C38   C42   A    
C6    C7    A    
C3    C46   A    
C1    O2    A    
C32   N2    A    
C32   C33   A    
C19   C20   A    
C36   C38   A    
C2    C3    A    
C25   C26   A    
C12   C44   S    
C38   C39   A    
C1    C30   S    
C33   C35   A    
C14   H15   S    
C31   C39   A    
C20   H6    S    
Cu2   O2    S    
C16   H4    S    
C10   C11   A    
C20   C21   A    
C43   N1    A    
Cu1   Cu2   S    
Cu1   O3    S    
C21   C24   A    
C48   H16   S    
C51   O13   D    
C13   C14   A    
Cu2   N2    S    
C44   C48   A    
C34   O8    A    
C29   H2    S    
