data_mof_unit_24834.cif
_audit_creation_date              2012-12-10T20:27:17-0500
_audit_creation_method            fapswitch 2.2
_symmetry_space_group_name_H-M    P1
_symmetry_Int_Tables_number       1
_space_group_crystal_system       triclinic
_cell_length_a                    10.60183
_cell_length_b                    10.691939
_cell_length_c                    9.871152
_cell_angle_alpha                 89.665929
_cell_angle_beta                  103.15184
_cell_angle_gamma                 90.340335
_cell_volume                      1089.55587034

loop_
_atom_site_label
_atom_site_type_symbol
_atom_type_description
_atom_site_fract_x
_atom_site_fract_y
_atom_site_fract_z
_atom_type_partial_charge
C1    C     C_R   0.503084 0.260023 0.501073 0.868753
C2    C     C_R   0.521671 0.128700 0.506209 -0.099018
C3    C     C_R   0.543945 0.065728 0.389691 -0.228596
C4    C     C_R   0.543292 0.936610 0.389244 -0.222628
C5    C     C_R   0.521158 0.871728 0.505404 -0.102580
C6    C     C_R   0.521927 0.935560 0.628215 0.120091
C7    C     C_3   0.430129 0.927283 0.722732 -0.453196
C8    C     C_3   0.430022 0.069088 0.722861 -0.501940
C9    C     C_R   0.435900 0.408472 0.056241 0.121292
C10   C     C_R   0.573766 0.583030 0.089004 0.166748
C11   C     C_R   0.573422 0.582692 0.944759 -0.166617
C12   C     C_R   0.257883 0.505229 0.442808 0.841612
C13   C     C_R   0.435385 0.408888 0.913539 0.165818
C14   C     C_3   0.293758 0.381106 0.872432 -0.478670
C15   C     C_3   0.293773 0.380942 0.026666 -0.135711
C16   C     C_R   0.502977 0.740080 0.500499 0.886657
C17   C     C_R   0.742066 0.505601 0.557314 0.948912
C18   C     C_2   0.118257 0.524875 0.412516 0.199519
C19   C     C_2   0.068139 0.590247 0.503979 0.400378
C20   C     C_2   0.879923 0.530717 0.587892 -0.402409
C21   C     C_2   0.929187 0.585974 0.489710 -0.193429
C22   C     C_R   0.522015 0.063239 0.628576 0.145545
H1    H     H_    0.868529 0.612180 0.389815 0.198445
H2    H     H_    0.475790 0.109793 0.825831 0.204681
H3    H     H_    0.630560 0.650865 0.903154 0.145050
H4    H     H_    0.237303 0.459608 0.814404 0.228637
H5    H     H_    0.273606 0.288418 0.821463 0.197484
H6    H     H_    0.235193 0.457097 0.057681 0.186901
H7    H     H_    0.940787 0.503833 0.687869 0.164946
H8    H     H_    0.552916 0.115111 0.296151 0.171609
H9    H     H_    0.551148 0.888859 0.295426 0.172127
H10   H     H_    0.334960 0.885646 0.671409 0.230497
H11   H     H_    0.476272 0.885937 0.825557 0.199216
H12   H     H_    0.334852 0.109945 0.671257 0.201736
N1    N     N_R   0.499160 0.499140 0.142600 -0.109044
N2    N     N_R   0.499160 0.499180 0.856960 -0.098891
O1    O     O_R   0.500020 0.316790 0.614700 -0.613117
O2    O     O_R   0.500000 0.316760 0.385350 -0.628588
O3    O     O_R   0.317820 0.500020 0.571850 -0.561998
O4    O     O_R   0.317800 0.499980 0.342510 -0.637819
O5    O     O_R   0.500000 0.683240 0.614650 -0.607385
O6    O     O_R   0.499980 0.683210 0.385300 -0.605923
O7    O     O_R   0.682200 0.500020 0.657490 -0.616134
O8    O     O_R   0.682180 0.499980 0.428150 -0.581124
Zn1   Zn    Zn3+2 0.500010 0.500020 0.653140 0.969842
Zn2   Zn    Zn3+2 0.499990 0.499980 0.346860 0.958429
N3    N     N_3   0.650671 0.672983 0.177894 -0.405644
H13   H     H_    0.746479 0.661648 0.169707 0.173307
H14   H     H_    0.621635 0.761535 0.137777 0.145731
N4    N     N_3   0.264767 0.257569 0.077606 -0.435795
H15   H     H_    0.331110 0.191543 0.058463 0.192195
H16   H     H_    0.277288 0.263192 0.185543 0.208130
O9    O     O_3   0.146900 0.651773 0.615218 -0.797134
H17   H     H_    0.091001 0.695241 0.667896 0.334384
O10   O     O_3   0.037386 0.472405 0.296387 -0.801070
H18   H     H_    0.090768 0.422803 0.246091 0.335787

loop_
_geom_bond_atom_site_label_1
_geom_bond_atom_site_label_2
_ccdc_geom_bond_type
C2    C22   A    
C3    H8    S    
C8    C22   S    
O10   H18   S    
C17   O7    A    
C12   O4    A    
C6    C7    S    
C8    H2    S    
C14   H5    S    
C7    H11   S    
N4    H16   S    
N3    H13   S    
C1    O1    A    
O3    Zn1   S    
C19   O9    S    
C12   O3    A    
C2    C3    A    
C9    C15   S    
C17   O8    A    
N2    Zn1   S    
N3    H14   S    
C8    H12   S    
O9    H17   S    
C14   H4    S    
O4    Zn2   S    
O7    Zn1   S    
C15   H6    S    
C10   N1    A    
C18   O10   S    
C1    O2    A    
C11   N2    A    
C19   C21   S    
O8    Zn2   S    
C18   C19   D    
C20   H7    S    
C21   H1    S    
C5    C6    A    
O2    Zn2   S    
C4    H9    S    
C10   C11   A    
C11   H3    S    
O1    Zn1   S    
C3    C4    A    
C6    C22   A    
C16   O6    A    
C7    C8    S    
C17   C20   S    
C20   C21   D    
C13   N2    A    
C1    C2    S    
O6    Zn2   S    
C15   N4    S    
C12   C18   S    
C10   N3    S    
C9    N1    A    
C9    C13   A    
C14   C15   S    
C5    C16   S    
O5    Zn1   S    
C7    H10   S    
N4    H15   S    
C13   C14   S    
N1    Zn2   S    
C16   O5    A    
C4    C5    A    
