data_mof_unit_68433.cif
_audit_creation_date              2012-10-26T20:20:43-0400
_audit_creation_method            fapswitch 2.2
_symmetry_space_group_name_H-M    P1
_symmetry_Int_Tables_number       1
_space_group_crystal_system       triclinic
_cell_length_a                    8.975994
_cell_length_b                    11.030443
_cell_length_c                    9.578174
_cell_angle_alpha                 92.753555
_cell_angle_beta                  99.451808
_cell_angle_gamma                 91.969293
_cell_volume                      933.513198561

loop_
_atom_site_label
_atom_site_type_symbol
_atom_type_description
_atom_site_fract_x
_atom_site_fract_y
_atom_site_fract_z
_atom_type_partial_charge
Br1   Br    Br    0.249615 0.823476 0.274956 -0.628279
Br2   Br    Br    0.750385 0.176524 0.725042 -0.628291
Br3   Br    Br    0.219921 0.361510 0.102062 -0.558810
Br4   Br    Br    0.780063 0.638517 0.897927 -0.558778
C1    C     C_R   0.499028 0.261779 0.495616 0.580682
C2    C     C_R   0.596201 0.074532 0.602531 0.103076
C3    C     C_R   0.493468 0.872683 0.511210 -0.016449
C4    C     C_R   0.506525 0.127317 0.488796 -0.016437
C5    C     C_R   0.390928 0.436962 0.050827 0.245180
C6    C     C_R   0.609071 0.563041 0.949171 0.245175
C7    C     C_R   0.393317 0.434621 0.903824 0.007537
C8    C     C_R   0.606685 0.565377 0.096176 0.007533
C9    C     C_R   0.968322 0.390966 0.334373 0.064126
C10   C     C_R   0.915110 0.428370 0.198148 -0.017646
C11   C     C_R   0.851940 0.342700 0.090637 -0.054383
C12   C     C_R   0.500970 0.738221 0.504385 0.580680
C13   C     C_R   0.842863 0.220144 0.119191 -0.100985
C14   C     C_R   0.891709 0.183020 0.255959 -0.125741
C15   C     C_R   0.954730 0.268122 0.363562 -0.064783
C16   C     C_R   0.031667 0.609043 0.665619 0.064124
C17   C     C_R   0.045186 0.731894 0.636433 -0.064768
C18   C     C_R   0.108146 0.817012 0.744042 -0.125733
C19   C     C_R   0.157009 0.779895 0.880810 -0.100994
C20   C     C_R   0.148021 0.657332 0.909357 -0.054411
C21   C     C_R   0.084898 0.571648 0.801843 -0.017639
C22   C     C_R   0.369665 0.092766 0.233548 0.090164
C23   C     C_R   0.203865 0.498642 0.463478 0.569115
C24   C     C_R   0.219378 0.077528 0.162989 -0.017889
C25   C     C_R   0.184965 0.086254 0.015591 -0.083768
C26   C     C_R   0.299239 0.114066 0.938070 -0.099302
C27   C     C_R   0.447277 0.135806 0.008107 -0.101396
C28   C     C_R   0.482292 0.123585 0.154430 -0.051803
C29   C     C_R   0.630249 0.907239 0.766485 0.090148
C30   C     C_R   0.517573 0.876354 0.845525 -0.051847
C31   C     C_R   0.552506 0.864108 0.991848 -0.101380
C32   C     C_R   0.700506 0.885890 0.061968 -0.099312
C33   C     C_R   0.814830 0.913767 0.984529 -0.083838
C34   C     C_R   0.796135 0.501357 0.536522 0.569118
C35   C     C_R   0.780503 0.922513 0.837129 -0.017902
C36   C     C_2   0.038628 0.480093 0.447656 -0.060555
C37   C     C_2   0.961371 0.519907 0.552343 -0.060553
C38   C     C_R   0.417394 0.051345 0.379431 -0.054552
C39   C     C_R   0.582585 0.948655 0.620587 -0.054529
C40   C     C_R   0.403791 0.925468 0.397477 0.103077
Cu1   Cu    Cu3+1 0.500000 0.500020 0.640660 1.035415
Cu2   Cu    Cu3+1 0.500000 0.499980 0.359340 1.035420
H1    H     H_    0.307756 0.382035 0.830820 0.137000
H2    H     H_    0.203108 0.846025 0.964391 0.146399
H3    H     H_    0.185742 0.629449 0.015569 0.181236
H4    H     H_    0.072179 0.477243 0.825335 0.145084
H5    H     H_    0.130511 0.053387 0.221154 0.138158
H6    H     H_    0.069760 0.074715 0.961299 0.127776
H7    H     H_    0.272537 0.121751 0.824542 0.119643
H8    H     H_    0.535150 0.158803 0.948067 0.152100
H9    H     H_    0.598096 0.132034 0.206132 0.117842
H10   H     H_    0.401792 0.867858 0.793757 0.117893
H11   H     H_    0.464600 0.841052 0.051826 0.152126
H12   H     H_    0.692248 0.617961 0.169179 0.137000
H13   H     H_    0.727143 0.878187 0.175497 0.119657
H14   H     H_    0.930014 0.925339 0.038888 0.127755
H15   H     H_    0.869414 0.946682 0.779027 0.138196
H16   H     H_    0.927873 0.522771 0.174654 0.145099
H17   H     H_    0.814238 0.370587 0.984424 0.181240
H18   H     H_    0.796708 0.154026 0.035614 0.146371
H19   H     H_    0.881290 0.088143 0.278329 0.101541
H20   H     H_    0.994011 0.238489 0.468994 0.124354
H21   H     H_    0.005885 0.761520 0.531002 0.124342
H22   H     H_    0.118507 0.911894 0.721676 0.101558
N1    N     N_R   0.500040 0.500030 0.852080 -0.235708
N2    N     N_R   0.499960 0.499970 0.147920 -0.235700
O1    O     O_R   0.499990 0.319660 0.618740 -0.472498
O2    O     O_R   0.500010 0.680340 0.381260 -0.472503
O3    O     O_R   0.499990 0.319630 0.381170 -0.481993
O4    O     O_R   0.500010 0.680370 0.618830 -0.482001
O5    O     O_R   0.274840 0.500010 0.591370 -0.533604
O6    O     O_R   0.725160 0.499990 0.408630 -0.533595
O7    O     O_R   0.274830 0.499980 0.353800 -0.426292
O8    O     O_R   0.725170 0.500020 0.646200 -0.426290

loop_
_geom_bond_atom_site_label_1
_geom_bond_atom_site_label_2
_ccdc_geom_bond_type
C30   H10   S    
Cu1   O1    S    
C7    H1    S    
C31   C32   A    
C12   O2    A    
C32   H13   S    
Cu2   O6    S    
C16   C37   S    
C34   O6    A    
Cu1   Cu2   S    
C14   H19   S    
C22   C28   A    
C29   C35   A    
C12   O4    A    
C32   C33   A    
C4    C38   A    
C14   C15   A    
C13   H18   S    
C26   C27   A    
C24   H5    S    
C16   C21   A    
C10   H16   S    
C15   H20   S    
C30   C31   A    
C21   H4    S    
C9    C36   S    
C19   C20   A    
Cu1   O8    S    
C3    C39   A    
C28   H9    S    
Cu2   O2    S    
C8    H12   S    
C17   C18   A    
C17   H21   S    
Br2   C2    S    
C38   C40   A    
C23   O5    A    
C13   C14   A    
C35   H15   S    
C26   H7    S    
C9    C15   A    
Cu1   N1    S    
C29   C39   S    
C20   C21   A    
C34   C37   S    
C2    C4    A    
C34   O8    A    
Cu1   O4    S    
C25   C26   A    
Br3   C5    S    
C1    C4    S    
Br1   C40   S    
C27   C28   A    
C23   C36   S    
C29   C30   A    
C3    C40   A    
C5    N2    A    
C5    C7    A    
C18   H22   S    
C6    C8    A    
C3    C12   S    
C2    C39   A    
Br4   C6    S    
C22   C38   S    
C20   H3    S    
C11   C13   A    
C8    N2    A    
C24   C25   A    
C19   H2    S    
C18   C19   A    
C23   O7    A    
Cu2   O7    S    
C7    N1    A    
C22   C24   A    
C31   H11   S    
Cu1   O5    S    
C1    O1    A    
C27   H8    S    
C1    O3    A    
Cu2   N2    S    
C33   H14   S    
C6    N1    A    
C16   C17   A    
C33   C35   A    
C11   H17   S    
C10   C11   A    
C36   C37   D    
C9    C10   A    
Cu2   O3    S    
C25   H6    S    
