data_mof_unit_9712.cif
_audit_creation_date              2012-12-10T17:09:53-0500
_audit_creation_method            fapswitch 2.2
_symmetry_space_group_name_H-M    P1
_symmetry_Int_Tables_number       1
_space_group_crystal_system       triclinic
_cell_length_a                    10.774859
_cell_length_b                    13.008783
_cell_length_c                    11.678573
_cell_angle_alpha                 98.957248
_cell_angle_beta                  93.703447
_cell_angle_gamma                 90.552289
_cell_volume                      1613.29798868

loop_
_atom_site_label
_atom_site_type_symbol
_atom_type_description
_atom_site_fract_x
_atom_site_fract_y
_atom_site_fract_z
_atom_type_partial_charge
C1    C     C_R   0.495818 0.299759 0.479686 0.774332
C2    C     C_R   0.068545 0.416409 0.556864 0.095860
C3    C     C_R   0.128660 0.489345 0.499881 -0.103238
C4    C     C_R   0.060290 0.556290 0.438858 -0.193456
C5    C     C_R   0.932271 0.555515 0.437689 -0.222810
C6    C     C_R   0.870774 0.488049 0.497883 -0.099437
C7    C     C_R   0.506868 0.813751 0.528945 -0.150904
C8    C     C_R   0.483185 0.187967 0.470140 -0.030020
C9    C     C_R   0.388043 0.026213 0.374457 -0.197909
C10   C     C_R   0.404521 0.132850 0.381287 -0.213009
C11   C     C_R   0.543628 0.137035 0.553940 -0.242927
C12   C     C_R   0.262469 0.496462 0.500084 0.791826
C13   C     C_R   0.529998 0.029664 0.546274 0.122349
C14   C     C_R   0.454547 0.972737 0.453559 0.070064
C15   C     C_R   0.447421 0.863674 0.441841 0.355681
C16   C     C_R   0.577027 0.871740 0.622699 -0.263489
C17   C     C_R   0.590167 0.978816 0.630364 -0.222357
C18   C     C_R   0.378283 0.405524 0.023789 -0.316019
C19   C     C_R   0.389697 0.415066 0.145793 0.080869
C20   C     C_R   0.555258 0.537638 0.155547 0.049327
C21   C     C_R   0.545485 0.532031 0.033263 0.012402
C22   C     C_R   0.456486 0.464665 0.966370 0.068946
C23   C     C_R   0.501288 0.700709 0.520141 0.856302
C24   C     C_R   0.447494 0.459146 0.843940 -0.069135
C25   C     C_R   0.610503 0.585577 0.854469 0.665428
C26   C     C_R   0.620932 0.593732 0.977061 -0.447211
C27   C     C_R   0.737324 0.495859 0.499242 0.784125
C28   C     C_R   0.135265 0.341633 0.610601 -0.191185
C29   C     C_R   0.073255 0.269777 0.664555 -0.136484
C30   C     C_R   0.944153 0.269527 0.664155 -0.141603
C31   C     C_R   0.876272 0.341062 0.609693 -0.197099
C32   C     C_R   0.937249 0.415936 0.556110 0.099277
Cu1   Cu    Cu3+1 0.509250 0.507730 0.615930 0.964032
Cu2   Cu    Cu3+1 0.490750 0.492270 0.384070 0.946540
H1    H     H_    0.106597 0.611033 0.393862 0.168006
H2    H     H_    0.647091 0.021910 0.702214 0.146788
H3    H     H_    0.353753 0.172690 0.318667 0.146835
H4    H     H_    0.602244 0.180886 0.624182 0.135891
H5    H     H_    0.379670 0.407031 0.791585 0.140228
H6    H     H_    0.308376 0.352913 0.975015 0.136872
H7    H     H_    0.685114 0.649779 0.028564 0.140895
H8    H     H_    0.328636 0.369576 0.189268 0.123498
H9    H     H_    0.624896 0.588167 0.207531 0.106704
H10   H     H_    0.235178 0.336158 0.609518 0.140745
H11   H     H_    0.125547 0.213071 0.705396 0.133975
H12   H     H_    0.896205 0.212621 0.704674 0.129589
H13   H     H_    0.776063 0.335275 0.608124 0.144948
H14   H     H_    0.880927 0.609928 0.392230 0.144220
H15   H     H_    0.624600 0.833727 0.688687 0.208637
H16   H     H_    0.323728 0.986209 0.306672 0.172602
N1    N     N_R   0.523180 0.519350 0.790130 -0.213440
N2    N     N_R   0.476820 0.480650 0.209890 -0.181834
O1    O     O_R   0.506570 0.354460 0.582000 -0.607149
O2    O     O_R   0.490940 0.341410 0.386200 -0.585430
O3    O     O_R   0.327470 0.506530 0.597920 -0.589426
O4    O     O_R   0.311840 0.493480 0.402120 -0.582348
O5    O     O_R   0.509060 0.658590 0.613800 -0.539278
O6    O     O_R   0.493430 0.645540 0.418000 -0.568706
O7    O     O_R   0.688160 0.506520 0.597880 -0.565209
O8    O     O_R   0.672530 0.493470 0.402080 -0.586846
O9    O     O_3   0.678543 0.651880 0.799268 -0.567190
C33   C     C_3   0.807510 0.637214 0.819543 0.054053
H17   H     H_    0.831601 0.553971 0.794431 0.158162
H18   H     H_    0.839109 0.663430 0.912020 0.126630
C34   C     C_3   0.878579 0.702295 0.746959 -0.770594
H19   H     H_    0.864443 0.786358 0.777169 0.230460
H20   H     H_    0.979472 0.686055 0.755567 0.208076
H21   H     H_    0.845176 0.683650 0.654115 0.249954
O10   O     O_3   0.373595 0.806653 0.351916 -0.579592
C35   C     C_3   0.437754 0.794800 0.248719 0.078127
H22   H     H_    0.523052 0.748848 0.257825 0.148643
H23   H     H_    0.466491 0.870609 0.225033 0.123855
C36   C     C_3   0.352506 0.738749 0.149115 -0.761101
H24   H     H_    0.268300 0.785405 0.136769 0.234366
H25   H     H_    0.401740 0.727995 0.067598 0.205362
H26   H     H_    0.323611 0.661402 0.168331 0.260956

loop_
_geom_bond_atom_site_label_1
_geom_bond_atom_site_label_2
_ccdc_geom_bond_type
Cu1   O3    S    
C23   O6    A    
C6    C32   A    
C21   C26   A    
Cu2   O4    S    
C1    C8    S    
C36   H24   S    
C9    C14   A    
C33   H17   S    
C10   H3    S    
C28   C29   A    
C27   O8    A    
C5    C6    A    
C24   H5    S    
C2    C32   A    
C18   C19   A    
C18   H6    S    
C1    O1    A    
C3    C12   S    
C19   N2    A    
C31   C32   A    
C16   C17   A    
C34   H20   S    
C33   H18   S    
C35   H22   S    
C17   H2    S    
C9    C10   A    
C19   H8    S    
C24   N1    A    
C7    C15   A    
C4    H1    S    
Cu1   O7    S    
C31   H13   S    
C21   C22   A    
Cu2   O8    S    
C36   H25   S    
O9    C33   S    
Cu1   O1    S    
C15   O10   S    
C5    H14   S    
C16   H15   S    
C25   C26   A    
C28   H10   S    
C29   H11   S    
C11   H4    S    
C1    O2    A    
C25   N1    A    
C29   C30   A    
C6    C27   S    
C34   H21   S    
C35   C36   S    
Cu1   Cu2   S    
C25   O9    S    
C12   O4    A    
C7    C16   A    
Cu2   O2    S    
C36   H26   S    
C22   C24   A    
C3    C4    A    
C20   H9    S    
C23   O5    A    
Cu1   O5    S    
C33   C34   S    
C18   C22   A    
C30   H12   S    
C9    H16   S    
C4    C5    A    
C35   H23   S    
Cu1   N1    S    
Cu2   N2    S    
C13   C17   A    
C2    C3    A    
C20   N2    A    
C27   O7    A    
C11   C13   A    
C30   C31   A    
C8    C11   A    
C7    C23   S    
O10   C35   S    
C12   O3    A    
C20   C21   A    
C8    C10   A    
C34   H19   S    
Cu2   O6    S    
C14   C15   A    
C2    C28   A    
C13   C14   A    
C26   H7    S    
