data_mof_unit_52016.cif
_audit_creation_date              2012-10-26T19:41:10-0400
_audit_creation_method            fapswitch 2.2
_symmetry_space_group_name_H-M    P1
_symmetry_Int_Tables_number       1
_space_group_crystal_system       triclinic
_cell_length_a                    11.694924
_cell_length_b                    11.072902
_cell_length_c                    9.793132
_cell_angle_alpha                 110.118945
_cell_angle_beta                  98.157486
_cell_angle_gamma                 90.866372
_cell_volume                      1175.95518025

loop_
_atom_site_label
_atom_site_type_symbol
_atom_type_description
_atom_site_fract_x
_atom_site_fract_y
_atom_site_fract_z
_atom_type_partial_charge
C1    C     C_R   0.488168 0.255682 0.442997 0.532876
C2    C     C_2   0.504742 0.883861 0.578811 -0.011071
C3    C     C_2   0.515439 0.044673 0.459097 -0.065440
C4    C     C_2   0.467757 0.921092 0.461240 -0.029787
C5    C     C_2   0.509866 0.510738 0.080909 -0.008851
C6    C     C_2   0.490756 0.488560 0.918930 -0.031586
C7    C     C_R   0.383880 0.838945 0.328629 0.090871
C8    C     C_R   0.283702 0.777067 0.346498 0.000797
C9    C     C_R   0.205393 0.701528 0.223909 -0.090447
C10   C     C_R   0.224869 0.688393 0.082238 -0.107023
C11   C     C_R   0.322203 0.751618 0.062951 -0.110026
C12   C     C_R   0.503696 0.745590 0.557001 0.563502
C13   C     C_R   0.401100 0.826835 0.185140 -0.103473
C14   C     C_R   0.644514 0.065946 0.479684 0.011185
C15   C     C_R   0.705713 0.165184 0.602083 -0.071390
C16   C     C_R   0.826083 0.183815 0.618324 -0.101710
C17   C     C_R   0.886922 0.102410 0.514315 -0.093792
C18   C     C_R   0.827554 0.001399 0.394663 -0.095841
C19   C     C_R   0.707118 0.982696 0.377718 -0.080094
C20   C     C_2   0.554974 0.980051 0.724916 0.220618
C21   C     C_2   0.315404 0.113194 0.403378 0.211157
C22   C     C_R   0.284063 0.500027 0.501077 0.533430
C23   C     C_R   0.715924 0.499542 0.498839 0.561424
C24   C     C_1   0.162640 0.499977 0.502651 -0.030914
C25   C     C_1   0.837347 0.498864 0.497154 -0.014545
C26   C     C_1   0.060016 0.499501 0.501272 -0.046003
C27   C     C_1   0.939967 0.498921 0.498494 -0.040020
C28   C     C_2   0.444011 0.127861 0.423392 0.004939
Cu1   Cu    Cu3+1 0.519790 0.521810 0.644910 0.958016
Cu2   Cu    Cu3+1 0.480210 0.478190 0.355090 0.946170
H1    H     H_    0.425479 0.415124 0.846586 0.155731
H2    H     H_    0.661166 0.226951 0.686572 0.135456
H3    H     H_    0.872290 0.260941 0.712214 0.117202
H4    H     H_    0.980139 0.116855 0.527154 0.144582
H5    H     H_    0.874894 0.937398 0.314978 0.121486
H6    H     H_    0.663142 0.903384 0.284759 0.102106
H7    H     H_    0.539505 0.081211 0.750410 0.110534
H8    H     H_    0.264523 0.152452 0.328871 0.111866
H9    H     H_    0.575325 0.583988 0.153209 0.147133
H10   H     H_    0.610553 0.624201 0.933901 0.213069
H11   H     H_    0.388609 0.376721 0.066340 0.207405
H12   H     H_    0.266487 0.787207 0.455554 0.108949
H13   H     H_    0.129430 0.653361 0.238887 0.108861
H14   H     H_    0.164195 0.629817 0.987393 0.116369
H15   H     H_    0.336746 0.742111 0.953091 0.142217
H16   H     H_    0.475271 0.875324 0.167063 0.108872
N1    N     N_2   0.450460 0.445430 0.137370 -0.343571
N2    N     N_2   0.549540 0.554570 0.862630 -0.357266
O1    O     O_R   0.510560 0.332330 0.577400 -0.509716
O2    O     O_2   0.265586 0.066852 0.477175 -0.537406
O3    O     O_R   0.489440 0.667670 0.422600 -0.513529
O4    O     O_R   0.477140 0.295500 0.332650 -0.493957
O5    O     O_R   0.522860 0.704500 0.667350 -0.440388
O6    O     O_R   0.353910 0.518430 0.622380 -0.499650
O7    O     O_R   0.646090 0.481570 0.377620 -0.488018
O8    O     O_R   0.320490 0.481600 0.377630 -0.496438
O9    O     O_R   0.679510 0.518400 0.622370 -0.484074
O10   O     O_2   0.612991 0.947433 0.818559 -0.490792

loop_
_geom_bond_atom_site_label_1
_geom_bond_atom_site_label_2
_ccdc_geom_bond_type
C8    C9    A    
C1    C28   S    
C2    C4    D    
Cu2   O3    S    
C23   O7    A    
Cu1   Cu2   S    
C16   H3    S    
C25   C27   T    
C11   C13   A    
C18   H5    S    
C12   O5    A    
C7    C13   A    
Cu1   O6    S    
C2    C12   S    
Cu2   O8    S    
C23   C25   S    
C17   C18   A    
H11   N1    S    
C10   C11   A    
C15   H2    S    
C22   O6    A    
Cu1   O1    S    
C20   H7    S    
C5    N1    D    
C24   C26   T    
C26   C27   S    
C5    C6    S    
C3    C14   S    
Cu1   O5    S    
C4    C7    S    
C9    C10   A    
C1    O1    A    
C3    C28   D    
C21   C28   S    
C8    H12   S    
C6    H1    S    
C19   H6    S    
C5    H9    S    
C13   H16   S    
C1    O4    A    
C22   C24   S    
C11   H15   S    
C9    H13   S    
C17   H4    S    
Cu1   N2    S    
C10   H14   S    
C3    C4    S    
Cu2   N1    S    
C7    C8    A    
C12   O3    A    
H10   N2    S    
C18   C19   A    
Cu2   O7    S    
C23   O9    A    
Cu2   O4    S    
C14   C15   A    
C21   O2    D    
C20   O10   D    
C22   O8    A    
C2    C20   S    
C14   C19   A    
C21   H8    S    
C15   C16   A    
Cu1   O9    S    
C16   C17   A    
C6    N2    D    
