data_mof_unit_38801.cif
_audit_creation_date              2012-12-11T15:52:27-0500
_audit_creation_method            fapswitch 2.2
_symmetry_space_group_name_H-M    P1
_symmetry_Int_Tables_number       1
_space_group_crystal_system       triclinic
_cell_length_a                    11.164453
_cell_length_b                    11.247689
_cell_length_c                    18.698387
_cell_angle_alpha                 90.254412
_cell_angle_beta                  89.946754
_cell_angle_gamma                 120.064533
_cell_volume                      2032.11357999

loop_
_atom_site_label
_atom_site_type_symbol
_atom_type_description
_atom_site_fract_x
_atom_site_fract_y
_atom_site_fract_z
_atom_type_partial_charge
C1    C     C_R   0.520116 0.458823 0.148499 0.534595
C2    C     C_3   0.014612 0.737669 0.454025 -0.271161
C3    C     C_3   0.722055 0.986787 0.460954 -0.273809
C4    C     C_3   0.264423 0.275994 0.461838 -0.273957
C5    C     C_R   0.521457 0.453748 0.355284 0.547077
C6    C     C_R   0.546964 0.069669 0.355777 0.544046
C7    C     C_R   0.938335 0.481075 0.353022 0.559618
C8    C     C_R   0.457783 0.517968 0.647362 0.549613
C9    C     C_R   0.066324 0.545563 0.645303 0.539130
C10   C     C_R   0.482041 0.939222 0.647185 0.545360
C11   C     C_R   0.467475 0.917350 0.934661 -0.005883
C12   C     C_R   0.541067 0.061088 0.148132 0.531232
C13   C     C_R   0.012048 0.515978 0.923605 0.013420
C14   C     C_R   0.475655 0.517864 0.930687 -0.002659
C15   C     C_R   0.917902 0.470040 0.064582 -0.000510
C16   C     C_R   0.492126 0.993745 0.079182 0.010045
C17   C     C_R   0.505734 0.506978 0.079188 0.011810
C18   C     C_R   0.446712 0.024380 0.956053 -0.010547
C19   C     C_R   0.901067 0.389409 0.941622 -0.005692
C20   C     C_R   0.607460 0.572360 0.960969 -0.009672
C21   C     C_R   0.851537 0.364099 0.012490 -0.014627
C22   C     C_R   0.454195 0.058722 0.027946 0.021600
C23   C     C_R   0.876248 0.454370 0.139741 0.564242
C24   C     C_R   0.621514 0.565890 0.034069 0.034807
C25   C     C_R   0.502391 0.879903 0.059018 -0.181740
C26   C     C_R   0.042255 0.587320 0.046673 -0.179842
C27   C     C_R   0.375653 0.463655 0.050030 -0.187483
C28   C     C_R   0.087071 0.611822 0.976641 -0.174710
C29   C     C_R   0.491151 0.842449 0.986847 -0.192143
C30   C     C_R   0.360409 0.468217 0.976380 -0.177503
C31   C     C_3   0.318852 0.031781 0.943604 -0.122972
C32   C     C_3   0.909546 0.262682 0.934490 -0.122133
C33   C     C_3   0.735441 0.712578 0.957057 -0.135985
C34   C     C_R   0.452193 0.524860 0.855143 0.533613
C35   C     C_3   0.856078 0.231347 0.010087 -0.122403
C36   C     C_3   0.322859 0.065053 0.023151 -0.110780
C37   C     C_3   0.757526 0.698975 0.037415 -0.118914
C38   C     C_R   0.512539 0.013379 0.580294 0.014340
C39   C     C_R   0.031716 0.522408 0.570304 0.025960
C40   C     C_R   0.501614 0.488966 0.579838 0.016543
C41   C     C_R   0.007424 0.504798 0.421298 0.014916
C42   C     C_R   0.526025 0.040482 0.431484 0.023146
C43   C     C_R   0.511293 0.476103 0.430693 0.022770
C44   C     C_R   0.633921 0.043965 0.543453 0.017453
C45   C     C_R   0.066103 0.545931 0.852602 0.527390
C46   C     C_R   0.068792 0.638633 0.528778 0.053945
C47   C     C_R   0.412284 0.367386 0.543109 0.025423
C48   C     C_R   0.058658 0.631509 0.455820 0.017986
C49   C     C_R   0.639189 0.056227 0.470656 0.044374
C50   C     C_R   0.417403 0.362523 0.470210 0.049273
C51   C     C_R   0.414795 0.036593 0.468913 -0.151114
C52   C     C_R   0.991385 0.391469 0.461215 -0.163350
C53   C     C_R   0.616415 0.589561 0.467577 -0.166374
C54   C     C_R   0.001906 0.399807 0.535758 -0.170732
C55   C     C_R   0.408983 0.024864 0.543601 -0.153076
C56   C     C_R   0.454528 0.877004 0.860015 0.555637
C57   C     C_R   0.613403 0.594495 0.542373 -0.169447
C58   C     C_3   0.342864 0.146997 0.891526 -0.240286
C59   C     C_3   0.204704 0.126215 0.861667 -0.283058
C60   C     C_3   0.203500 0.125495 0.779695 -0.411004
C61   C     C_3   0.813589 0.164275 0.876809 -0.270117
C62   C     C_3   0.877368 0.215098 0.802626 -0.301089
C63   C     C_3   0.795752 0.119292 0.742626 -0.398315
C64   C     C_3   0.848444 0.720307 0.906727 -0.272702
C65   C     C_3   0.817522 0.740854 0.828869 -0.288009
C66   C     C_3   0.937581 0.785848 0.777212 -0.416697
C67   C     C_3   0.717546 0.972907 0.541256 -0.270563
C68   C     C_3   0.959148 0.237039 0.065636 -0.249962
C69   C     C_3   0.044256 0.171688 0.048561 -0.347176
C70   C     C_3   0.112127 0.169325 0.119101 -0.459443
C71   C     C_3   0.194093 0.949637 0.062087 -0.283307
C72   C     C_3   0.206073 0.942567 0.144096 -0.290540
C73   C     C_3   0.071653 0.854894 0.183021 -0.449791
C74   C     C_3   0.774928 0.822836 0.083882 -0.288509
C75   C     C_3   0.735083 0.795716 0.163712 -0.285246
C76   C     C_3   0.776693 0.921248 0.211045 -0.428572
C77   C     C_3   0.022781 0.741961 0.534647 -0.268070
C78   C     C_3   0.257078 0.278998 0.542362 -0.270463
Cr1   Cr    Cr6+3 0.769160 0.541570 0.250690 0.952997
Cr2   Cr    Cr6+3 0.458430 0.227590 0.250690 0.972114
Cr3   Cr    Cr6+3 0.772410 0.230840 0.250690 0.965075
Cr4   Cr    Cr6+3 0.541570 0.769160 0.749310 0.942554
Cr5   Cr    Cr6+3 0.227590 0.458430 0.749310 0.949627
Cr6   Cr    Cr6+3 0.230840 0.772410 0.749310 0.955504
H1    H     H_    0.518298 0.820625 0.099094 0.127166
H2    H     H_    0.751946 0.138624 0.014682 0.148364
H3    H     H_    0.344975 0.171067 0.033324 0.148832
H4    H     H_    0.842671 0.677150 0.047152 0.147893
H5    H     H_    0.330951 0.037220 0.440534 0.121097
H6    H     H_    0.957583 0.293153 0.435918 0.133809
H7    H     H_    0.696673 0.675805 0.438751 0.115186
H8    H     H_    0.981752 0.309963 0.566178 0.113508
H9    H     H_    0.319133 0.013091 0.571620 0.116044
H10   H     H_    0.690469 0.685486 0.569960 0.114634
H11   H     H_    0.657588 0.864261 0.558009 0.171728
H12   H     H_    0.107336 0.656867 0.088136 0.147292
H13   H     H_    0.103818 0.841923 0.556142 0.136216
H14   H     H_    0.202794 0.333156 0.560804 0.173701
H15   H     H_    0.907631 0.698407 0.434881 0.166278
H16   H     H_    0.827607 0.056290 0.440104 0.132910
H17   H     H_    0.231314 0.172291 0.439900 0.132232
H18   H     H_    0.820597 0.034538 0.567061 0.118045
H19   H     H_    0.920300 0.699725 0.561069 0.131894
H20   H     H_    0.221052 0.177031 0.567245 0.118233
H21   H     H_    0.093497 0.834704 0.428547 0.121803
H22   H     H_    0.663674 0.886771 0.432353 0.133138
H23   H     H_    0.286986 0.427951 0.084396 0.131937
H24   H     H_    0.218284 0.331530 0.434823 0.138383
H25   H     H_    0.289004 0.222742 0.758260 0.200470
H26   H     H_    0.217674 0.040920 0.758700 0.144285
H27   H     H_    0.103615 0.111389 0.759756 0.109005
H28   H     H_    0.115012 0.029365 0.880781 0.130875
H29   H     H_    0.185835 0.207875 0.882158 0.171838
H30   H     H_    0.401741 0.248861 0.917822 0.143244
H31   H     H_    0.409618 0.147861 0.847052 0.169818
H32   H     H_    0.787497 0.017622 0.750348 0.180822
H33   H     H_    0.693093 0.112153 0.741092 0.198498
H34   H     H_    0.184094 0.702789 0.963817 0.124106
H35   H     H_    0.848893 0.162344 0.690984 0.120515
H36   H     H_    0.879492 0.312755 0.791246 0.184848
H37   H     H_    0.982712 0.228186 0.801041 0.182674
H38   H     H_    0.802512 0.061900 0.886773 0.163361
H39   H     H_    0.710634 0.156912 0.879545 0.177432
H40   H     H_    0.037807 0.845439 0.804883 0.183861
H41   H     H_    0.931155 0.694176 0.751231 0.197572
H42   H     H_    0.930618 0.850011 0.734235 0.098397
H43   H     H_    0.733844 0.641091 0.808316 0.189129
H44   H     H_    0.785062 0.819529 0.827229 0.177365
H45   H     H_    0.496987 0.753343 0.971936 0.133618
H46   H     H_    0.949455 0.808009 0.924003 0.132736
H47   H     H_    0.853274 0.624681 0.910447 0.172872
H48   H     H_    0.215331 0.187100 0.108523 0.185509
H49   H     H_    0.127523 0.251933 0.157345 0.153408
H50   H     H_    0.048010 0.071944 0.146450 0.146789
H51   H     H_    0.980969 0.070753 0.022882 0.151473
H52   H     H_    0.126083 0.233613 0.009711 0.152904
H53   H     H_    0.038260 0.344091 0.079495 0.176578
H54   H     H_    0.896682 0.186648 0.113069 0.204401
H55   H     H_    0.990545 0.797445 0.143315 0.188577
H56   H     H_    0.259065 0.438074 0.955036 0.134109
H57   H     H_    0.083615 0.785401 0.220638 0.192377
H58   H     H_    0.042699 0.917411 0.216967 0.105743
H59   H     H_    0.270415 0.895533 0.155694 0.175165
H60   H     H_    0.248751 0.045134 0.168337 0.216444
H61   H     H_    0.103677 0.959029 0.047454 0.139003
H62   H     H_    0.172978 0.851465 0.039896 0.142862
H63   H     H_    0.832920 0.016653 0.180911 0.175703
H64   H     H_    0.683387 0.914003 0.236394 0.189559
H65   H     H_    0.844879 0.926010 0.255565 0.102260
H66   H     H_    0.621542 0.729107 0.168534 0.170556
H67   H     H_    0.231564 0.929819 0.926861 0.153761
H68   H     H_    0.791043 0.748396 0.187519 0.215237
H69   H     H_    0.886004 0.894236 0.083881 0.130340
H70   H     H_    0.728435 0.878008 0.058378 0.157929
H71   H     H_    0.017584 0.285060 0.927806 0.147753
H72   H     H_    0.710886 0.794791 0.945496 0.141866
O1    O     O_R   0.911480 0.572650 0.170990 -0.560283
O2    O     O_R   0.528970 0.640340 0.824320 -0.534690
O3    O     O_R   0.111370 0.471030 0.824320 -0.529044
O4    O     O_R   0.359660 0.888630 0.824320 -0.514120
O5    O     O_R   0.909980 0.572450 0.331530 -0.531238
O6    O     O_R   0.427550 0.337530 0.331530 -0.520636
O7    O     O_R   0.662470 0.090020 0.331530 -0.531895
O8    O     O_R   0.572450 0.909980 0.668470 -0.545379
O9    O     O_R   0.337530 0.427550 0.668470 -0.535775
O10   O     O_R   0.090020 0.662470 0.668470 -0.536563
O11   O     O_R   0.638950 0.528780 0.324500 -0.512058
O12   O     O_R   0.427350 0.338830 0.170990 -0.541629
O13   O     O_R   0.471220 0.110170 0.324500 -0.508659
O14   O     O_R   0.889830 0.361050 0.324500 -0.502476
O15   O     O_R   0.528780 0.638950 0.675500 -0.508472
O16   O     O_R   0.110170 0.471220 0.675500 -0.510301
O17   O     O_R   0.361050 0.889830 0.675500 -0.501476
O18   O     O_3   0.666667 0.333333 0.250560 -0.256239
O19   O     O_3   0.333333 0.666667 0.749440 -0.252204
O20   O     O_R   0.661170 0.088520 0.170990 -0.555777
O21   O     O_R   0.572650 0.911480 0.829010 -0.557996
O22   O     O_R   0.338830 0.427350 0.829010 -0.542612
O23   O     O_R   0.088520 0.661170 0.829010 -0.551646
O24   O     O_R   0.640340 0.528970 0.175680 -0.535808
O25   O     O_R   0.471030 0.111370 0.175680 -0.522563
O26   O     O_R   0.888630 0.359660 0.175680 -0.523527

loop_
_geom_bond_atom_site_label_1
_geom_bond_atom_site_label_2
_ccdc_geom_bond_type
C44   C49   A    
C40   C47   A    
C37   C74   S    
C11   C18   A    
Cr5   O19   S    
C72   H59   S    
C37   H4    S    
C52   H6    S    
C45   O3    A    
C55   H9    S    
C54   H8    S    
C3    C49   S    
C33   H72   S    
C73   H57   S    
C38   C44   A    
C4    H24   S    
Cr2   O13   S    
C31   C58   S    
C9    O10   A    
C19   C21   A    
C14   C30   A    
C32   C61   S    
C31   C36   S    
C63   H33   S    
C1    O24   A    
C39   C54   A    
C75   H66   S    
C9    C39   S    
C63   H35   S    
C74   H70   S    
C25   C29   A    
C20   C33   S    
C60   H25   S    
C68   H54   S    
C3    H16   S    
C43   C53   A    
C29   H45   S    
C38   C55   A    
C20   C24   A    
C76   H63   S    
C68   C69   S    
Cr4   O21   S    
C78   H14   S    
C70   H49   S    
C16   C22   A    
C13   C28   A    
C77   H13   S    
C77   H19   S    
Cr6   O19   S    
C61   H39   S    
C41   C52   A    
C62   H36   S    
C8    O15   A    
C42   C51   A    
C56   O21   A    
C76   H65   S    
C10   O17   A    
C15   C23   S    
C5    C43   S    
C59   C60   S    
C69   H51   S    
C4    H17   S    
C27   C30   A    
C67   H11   S    
Cr3   O7    S    
Cr1   O18   S    
C68   H53   S    
C61   C62   S    
Cr3   O26   S    
Cr1   O5    S    
C19   C32   S    
C70   H48   S    
C52   C54   A    
C24   C37   S    
C47   C50   A    
C73   H58   S    
C36   H3    S    
C26   H12   S    
C46   C48   A    
C17   C24   A    
C30   H56   S    
C74   C75   S    
C13   C19   A    
C78   H20   S    
C17   C27   A    
C32   C35   S    
C12   C16   S    
C60   H26   S    
C23   O26   A    
C53   C57   A    
C15   C26   A    
C73   H55   S    
C1    O12   A    
C2    C48   S    
C58   C59   S    
Cr2   O25   S    
C33   C37   S    
C66   H42   S    
C74   H69   S    
C4    C50   S    
C61   H38   S    
Cr6   O23   S    
C75   C76   S    
C65   H44   S    
C4    C78   S    
C62   C63   S    
C14   C20   A    
C32   H71   S    
C31   H67   S    
C12   O25   A    
C64   H47   S    
C27   H23   S    
C75   H68   S    
C59   H29   S    
Cr5   O16   S    
C25   H1    S    
C59   H28   S    
Cr3   O14   S    
Cr4   O19   S    
Cr5   O9    S    
Cr2   O6    S    
C39   C46   A    
C53   H7    S    
C34   O2    A    
C71   H61   S    
C64   H46   S    
C2    H15   S    
C69   H52   S    
C57   H10   S    
C58   H31   S    
C66   H40   S    
C34   O22   A    
C63   H32   S    
Cr6   O17   S    
C65   H43   S    
C7    O5    A    
C70   H50   S    
Cr3   O20   S    
C16   C25   A    
C72   H60   S    
Cr4   O15   S    
C10   O8    A    
C40   C57   A    
Cr5   O22   S    
C18   C22   A    
C26   C28   A    
C3    C67   S    
C72   C73   S    
C9    O16   A    
C14   C34   S    
Cr1   O1    S    
C46   C77   S    
Cr6   O4    S    
C43   C50   A    
C21   C35   S    
C22   C36   S    
C2    H21   S    
C1    C17   S    
C66   H41   S    
C12   O20   A    
C10   C38   S    
Cr3   O18   S    
C36   C71   S    
C3    H22   S    
Cr2   O18   S    
C71   C72   S    
C56   O4    A    
C60   H27   S    
C28   H34   S    
C5    O6    A    
C11   C29   A    
C13   C45   S    
Cr4   O8    S    
C35   C68   S    
C33   C64   S    
Cr4   O2    S    
C23   O1    A    
C64   C65   S    
C35   H2    S    
C41   C48   A    
C51   C55   A    
C5    O11   A    
C69   C70   S    
C7    C41   S    
Cr6   O10   S    
C8    O9    A    
C45   O23   A    
C42   C49   A    
C15   C21   A    
C71   H62   S    
Cr5   O3    S    
C6    O7    A    
C76   H64   S    
C65   C66   S    
C6    C42   S    
C7    O14   A    
C58   H30   S    
C2    C77   S    
Cr1   O24   S    
C44   C67   S    
C18   C31   S    
C8    C40   S    
C47   C78   S    
Cr1   O11   S    
Cr2   O12   S    
C62   H37   S    
C51   H5    S    
C11   C56   S    
C67   H18   S    
C6    O13   A    
