data_mof_unit_44667.cif
_audit_creation_date              2012-12-10T17:27:52-0500
_audit_creation_method            fapswitch 2.2
_symmetry_space_group_name_H-M    P1
_symmetry_Int_Tables_number       1
_space_group_crystal_system       triclinic
_cell_length_a                    10.629289
_cell_length_b                    12.014231
_cell_length_c                    12.865213
_cell_angle_alpha                 93.506967
_cell_angle_beta                  90.419051
_cell_angle_gamma                 86.077356
_cell_volume                      1635.99656385

loop_
_atom_site_label
_atom_site_type_symbol
_atom_type_description
_atom_site_fract_x
_atom_site_fract_y
_atom_site_fract_z
_atom_type_partial_charge
C1    C     C_R   0.497609 0.522229 0.700353 0.880319
C2    C     C_R   0.938596 0.432273 0.410889 0.102420
C3    C     C_R   0.871697 0.498951 0.489015 -0.096637
C4    C     C_R   0.931031 0.567677 0.562175 -0.189735
C5    C     C_R   0.059493 0.567576 0.562324 -0.178807
C6    C     C_R   0.128294 0.498771 0.489315 -0.089674
C7    C     C_R   0.499339 0.463088 0.187798 -0.152810
C8    C     C_R   0.497290 0.535948 0.811677 -0.057718
C9    C     C_R   0.543632 0.641509 0.970452 -0.177828
C10   C     C_R   0.533283 0.634991 0.862918 -0.194323
C11   C     C_R   0.467463 0.445143 0.866937 -0.234452
C12   C     C_R   0.739477 0.499554 0.496583 0.861695
C13   C     C_R   0.478754 0.450434 0.973550 0.113805
C14   C     C_R   0.517799 0.549012 0.025685 0.181964
C15   C     C_R   0.528993 0.554060 0.132327 -0.321432
C16   C     C_R   0.463847 0.363099 0.136249 0.465972
C17   C     C_R   0.451948 0.358291 0.028379 -0.306891
C18   C     C_R   0.378813 0.957477 0.408673 -0.320903
C19   C     C_R   0.390504 0.841543 0.414621 0.325826
C20   C     C_R   0.553747 0.857032 0.540620 -0.057701
C21   C     C_R   0.546138 0.975249 0.535672 0.036186
C22   C     C_R   0.456653 0.025021 0.468232 0.017918
C23   C     C_R   0.501091 0.477598 0.299483 0.903286
C24   C     C_R   0.446705 0.141907 0.461357 -0.048589
C25   C     C_R   0.610238 0.161979 0.585372 -0.009660
C26   C     C_R   0.623874 0.045726 0.595315 0.056303
C27   C     C_R   0.260526 0.499529 0.496856 0.877690
C28   C     C_R   0.877756 0.368759 0.331574 -0.175263
C29   C     C_R   0.947845 0.305339 0.255065 -0.140973
C30   C     C_R   0.078787 0.305263 0.255274 -0.113319
C31   C     C_R   0.140043 0.368672 0.331955 -0.164124
C32   C     C_R   0.070500 0.432208 0.411058 0.088133
H1    H     H_    0.877694 0.619459 0.620765 0.162522
H2    H     H_    0.419870 0.283495 0.988020 0.154762
H3    H     H_    0.556597 0.705549 0.819932 0.171316
H4    H     H_    0.437513 0.369265 0.826828 0.164658
H5    H     H_    0.378447 0.180621 0.409452 0.153426
H6    H     H_    0.669766 0.216261 0.630692 0.163007
H7    H     H_    0.308849 0.994516 0.357252 0.166642
H8    H     H_    0.620481 0.815912 0.591862 0.167933
H9    H     H_    0.776185 0.368724 0.326765 0.143249
H10   H     H_    0.900294 0.257077 0.194810 0.138711
H11   H     H_    0.133036 0.256935 0.195215 0.160099
H12   H     H_    0.241493 0.368663 0.327518 0.180193
H13   H     H_    0.105761 0.619303 0.621001 0.161876
H14   H     H_    0.558799 0.630065 0.172294 0.189626
H15   H     H_    0.572971 0.717708 0.010100 0.147616
N1    N     N_R   0.523130 0.207800 0.519340 -0.120373
N2    N     N_R   0.476870 0.792180 0.480660 -0.125606
O1    O     O_R   0.506170 0.421690 0.658830 -0.621885
O2    O     O_R   0.491330 0.609320 0.646410 -0.624486
O3    O     O_R   0.690660 0.406170 0.506210 -0.626732
O4    O     O_R   0.675810 0.593790 0.493790 -0.615841
O5    O     O_R   0.508670 0.390680 0.353590 -0.608312
O6    O     O_R   0.493830 0.578310 0.341170 -0.603141
O7    O     O_R   0.324190 0.406210 0.506210 -0.627598
O8    O     O_R   0.309340 0.593830 0.493790 -0.586089
Zn1   Zn    Zn3+2 0.509910 0.374720 0.508290 0.950327
Zn2   Zn    Zn3+2 0.490090 0.625280 0.491710 0.976768
I1    I     I_    0.762768 0.984823 0.700919 -0.430582
I2    I     I_    0.268020 0.752040 0.315053 -0.346699
O9    O     O_3   0.425404 0.276380 0.191802 -0.657480
C33   C     C_3   0.508504 0.179675 0.175252 0.071981
H16   H     H_    0.557633 0.164064 0.250040 0.174064
H17   H     H_    0.583236 0.186359 0.115703 0.124419
C34   C     C_3   0.431705 0.080038 0.143251 -0.339131
H18   H     H_    0.352969 0.076346 0.198887 0.227626
H19   H     H_    0.390484 0.091293 0.064656 0.220226
C35   C     C_3   0.512815 0.970046 0.141257 -0.930119
H20   H     H_    0.590397 0.970831 0.083994 0.267134
H21   H     H_    0.453849 0.899696 0.118386 0.274990
H22   H     H_    0.553508 0.956334 0.219595 0.270230

loop_
_geom_bond_atom_site_label_1
_geom_bond_atom_site_label_2
_ccdc_geom_bond_type
C35   H22   S    
C6    C32   A    
C9    C14   A    
C33   H17   S    
N1    Zn1   S    
C20   N2    A    
C3    C12   S    
C1    O1    A    
O6    Zn2   S    
C25   H6    S    
C1    C8    S    
C11   C13   A    
C9    C10   A    
C19   N2    A    
C34   H19   S    
C12   O4    A    
N2    Zn2   S    
C20   H8    S    
C13   C17   A    
C30   C31   A    
C18   H7    S    
C31   H12   S    
O9    C33   S    
C7    C15   A    
C24   H5    S    
O4    Zn2   S    
C33   C34   S    
C25   C26   A    
C13   C14   A    
C23   O6    A    
C1    O2    A    
C25   N1    A    
C29   C30   A    
C26   I1    S    
O3    Zn1   S    
C19   I2    S    
C8    C11   A    
C7    C23   S    
C8    C10   A    
C11   H4    S    
C12   O3    A    
C21   C26   A    
O7    Zn1   S    
C21   C22   A    
C2    C3    A    
C35   H20   S    
O5    Zn1   S    
C5    C6    A    
C29   H10   S    
C10   H3    S    
C22   C24   A    
C30   H11   S    
O8    Zn2   S    
C34   C35   S    
O2    Zn2   S    
C17   H2    S    
C4    H1    S    
C33   H16   S    
O1    Zn1   S    
C28   H9    S    
C34   H18   S    
C20   C21   A    
C23   O5    A    
C2    C32   A    
C18   C19   A    
C27   O8    A    
C35   H21   S    
C27   O7    A    
C28   C29   A    
C2    C28   A    
C14   C15   A    
C15   H14   S    
C9    H15   S    
C18   C22   A    
C5    H13   S    
C16   O9    S    
C31   C32   A    
C7    C16   A    
C3    C4    A    
C6    C27   S    
C16   C17   A    
C4    C5    A    
C24   N1    A    
