data_mof_unit_28703.cif
_audit_creation_date              2012-12-10T19:00:10-0500
_audit_creation_method            fapswitch 2.2
_symmetry_space_group_name_H-M    P1
_symmetry_Int_Tables_number       1
_space_group_crystal_system       triclinic
_cell_length_a                    9.534684
_cell_length_b                    10.814027
_cell_length_c                    13.44349
_cell_angle_alpha                 90.682395
_cell_angle_beta                  72.179296
_cell_angle_gamma                 90.091255
_cell_volume                      1319.5307803

loop_
_atom_site_label
_atom_site_type_symbol
_atom_type_description
_atom_site_fract_x
_atom_site_fract_y
_atom_site_fract_z
_atom_type_partial_charge
C1    C     C_R   0.502821 0.737357 0.494099 0.794264
C2    C     C_R   0.432626 0.483884 0.979719 0.090356
C3    C     C_R   0.469385 0.453945 0.871694 0.084849
C4    C     C_R   0.541962 0.469062 0.030968 0.080859
C5    C     C_R   0.680607 0.416166 0.975915 0.078808
C6    C     C_R   0.706750 0.373041 0.873942 -0.216098
C7    C     C_R   0.601554 0.388976 0.823374 -0.205776
C8    C     C_R   0.518661 0.506434 0.135006 -0.351529
C9    C     C_R   0.763788 0.439790 0.128297 0.625701
C10   C     C_R   0.372304 0.489228 0.815210 -0.106765
C11   C     C_R   0.374580 0.935341 0.512691 0.063487
C12   C     C_R   0.421000 0.493814 0.700163 0.787848
C13   C     C_R   0.507365 0.870302 0.480784 -0.124063
C14   C     C_R   0.639535 0.937435 0.434967 0.115105
C15   C     C_R   0.634574 0.067106 0.441690 -0.217601
C16   C     C_R   0.501938 0.129329 0.490672 -0.149337
C17   C     C_R   0.371454 0.061738 0.518732 0.060737
C18   C     C_3   0.235991 0.063071 0.612769 -0.039898
C19   C     C_3   0.241369 0.921686 0.605481 -0.500092
C20   C     C_R   0.958529 0.437152 0.424543 0.262054
C21   C     C_R   0.895721 0.570009 0.569667 -0.099323
C22   C     C_R   0.044533 0.569729 0.569918 -0.086194
C23   C     C_R   0.499608 0.262361 0.500177 0.814260
C24   C     C_R   0.107090 0.439183 0.422115 0.126431
C25   C     C_3   0.125887 0.303562 0.392784 -0.220246
C26   C     C_3   0.961452 0.301998 0.403582 0.360650
C27   C     C_R   0.579221 0.499702 0.299650 0.826757
C28   C     C_R   0.791154 0.404834 0.024089 -0.297531
C29   C     C_R   0.624671 0.485967 0.185449 -0.179339
C30   C     C_R   0.230651 0.532627 0.869531 -0.233183
C31   C     C_R   0.188112 0.548293 0.977175 -0.108748
C32   C     C_R   0.288126 0.527193 0.031784 -0.160523
Cu1   Cu    Cu3+1 0.359330 0.500020 0.500010 0.930743
Cu2   Cu    Cu3+1 0.640670 0.499980 0.499990 0.974579
H1    H     H_    0.734820 0.118926 0.409447 0.214338
H2    H     H_    0.138610 0.100526 0.593830 0.156165
H3    H     H_    0.267062 0.873941 0.670676 0.185122
H4    H     H_    0.147329 0.881370 0.583674 0.184914
H5    H     H_    0.815153 0.624939 0.627307 0.151029
H6    H     H_    0.075673 0.624184 0.627792 0.138396
H7    H     H_    0.151288 0.246181 0.453096 0.154178
H8    H     H_    0.809243 0.326865 0.832833 0.141670
H9    H     H_    0.894885 0.248684 0.471999 0.046241
H10   H     H_    0.897973 0.366417 0.981583 0.167644
H11   H     H_    0.417576 0.550549 0.179668 0.173062
H12   H     H_    0.153360 0.557506 0.828453 0.155808
H13   H     H_    0.247585 0.543892 0.114802 0.136893
H14   H     H_    0.078258 0.581365 0.018263 0.167749
H15   H     H_    0.624853 0.347465 0.746552 0.165399
N1    N     N_R   0.852320 0.499070 0.499340 -0.219443
N2    N     N_R   0.148230 0.499110 0.499340 -0.187929
O1    O     O_R   0.381190 0.680360 0.500000 -0.573664
O2    O     O_R   0.618780 0.680320 0.499990 -0.580967
O3    O     O_R   0.323230 0.500000 0.650990 -0.590869
O4    O     O_R   0.560820 0.499960 0.650980 -0.590379
O5    O     O_R   0.381220 0.319680 0.500010 -0.582469
O6    O     O_R   0.618810 0.319640 0.500000 -0.579740
O7    O     O_R   0.439180 0.500040 0.349020 -0.588821
O8    O     O_R   0.676770 0.500000 0.349010 -0.502418
F1    F     F_    0.871652 0.424612 0.173382 -0.622433
C33   C     C_3   0.257876 0.116343 0.714431 -0.335469
C34   C     C_3   0.155096 0.225813 0.756048 -0.872181
H16   H     H_    0.171659 0.297959 0.695644 0.278917
H17   H     H_    0.038637 0.194706 0.778642 0.239628
H18   H     H_    0.177294 0.266025 0.826081 0.255578
H19   H     H_    0.232751 0.045408 0.776534 0.210414
H20   H     H_    0.373430 0.146375 0.701940 0.194135
C35   C     C_3   0.226218 0.278195 0.279260 -0.234392
C36   C     C_3   0.368841 0.211535 0.274780 -0.832693
H21   H     H_    0.438838 0.269562 0.308102 0.274305
H22   H     H_    0.344323 0.122932 0.317469 0.244275
H23   H     H_    0.431905 0.190901 0.192046 0.238234
H24   H     H_    0.169793 0.216793 0.236884 0.258281
H25   H     H_    0.252470 0.365438 0.234725 0.209784
F2    F     F_    0.926702 0.276273 0.312862 -0.619750
C37   C     C_3   0.786024 0.877435 0.377928 -0.360232
C38   C     C_3   0.887842 0.875522 0.446285 -0.794676
H26   H     H_    0.833677 0.828770 0.521275 0.255742
H27   H     H_    0.990763 0.824812 0.404951 0.239310
H28   H     H_    0.917090 0.971325 0.463135 0.232042
H29   H     H_    0.772247 0.782666 0.350023 0.213605
H30   H     H_    0.840393 0.930427 0.306043 0.204425

loop_
_geom_bond_atom_site_label_1
_geom_bond_atom_site_label_2
_ccdc_geom_bond_type
Cu1   O7    S    
C27   C29   S    
C4    C8    A    
C23   O5    A    
C38   H26   S    
Cu1   O1    S    
C11   C19   S    
C8    C29   A    
C3    C7    A    
C30   C31   A    
C35   H25   S    
C15   C16   A    
C2    C32   A    
C18   C19   S    
C36   H22   S    
C10   C30   A    
C8    H11   S    
C20   N1    A    
C19   H3    S    
C33   H19   S    
C20   C24   A    
C16   C17   A    
Cu2   O6    S    
C34   H17   S    
C9    C29   A    
C24   N2    A    
Cu2   O4    S    
C13   C14   A    
C1    O2    A    
C36   H21   S    
C25   C35   S    
C15   H1    S    
C21   N1    A    
C26   H9    S    
C17   C18   S    
C38   H27   S    
Cu2   N1    S    
C37   C38   S    
C7    H15   S    
C37   H30   S    
C35   C36   S    
C25   C26   S    
C28   H10   S    
C14   C37   S    
C36   H23   S    
C2    C4    A    
C34   H16   S    
C19   H4    S    
C5    C28   A    
C33   H20   S    
C31   C32   A    
C21   H5    S    
C22   H6    S    
C26   F2    S    
C24   C25   S    
C10   C12   S    
C16   C23   S    
C31   H14   S    
Cu2   O8    S    
C32   H13   S    
C1    C13   S    
C25   H7    S    
C38   H28   S    
Cu1   O3    S    
C23   O6    A    
C11   C17   A    
C34   H18   S    
C30   H12   S    
C4    C5    A    
C27   O7    A    
C37   H29   S    
C18   C33   S    
C6    C7    A    
Cu1   N2    S    
C9    F1    S    
C2    C3    A    
C35   H24   S    
C3    C10   A    
C27   O8    A    
C11   C13   A    
C5    C6    A    
C20   C26   S    
Cu1   O5    S    
Cu1   Cu2   S    
C33   C34   S    
C1    O1    A    
C12   O4    A    
Cu2   O2    S    
C6    H8    S    
C14   C15   A    
C21   C22   A    
C18   H2    S    
C12   O3    A    
C9    C28   A    
C22   N2    A    
