data_mof_unit_37926.cif
_audit_creation_date              2012-12-11T16:50:53-0500
_audit_creation_method            fapswitch 2.2
_symmetry_space_group_name_H-M    P1
_symmetry_Int_Tables_number       1
_space_group_crystal_system       triclinic
_cell_length_a                    6.918184
_cell_length_b                    28.841637
_cell_length_c                    32.114881
_cell_angle_alpha                 100.989581
_cell_angle_beta                  89.691786
_cell_angle_gamma                 90.059919
_cell_volume                      6290.33780352

loop_
_atom_site_label
_atom_site_type_symbol
_atom_type_description
_atom_site_fract_x
_atom_site_fract_y
_atom_site_fract_z
_atom_type_partial_charge
O1    O     O_R   0.494350 0.453170 0.452520 -0.541222
O2    O     O_R   0.820980 0.455850 0.538220 -0.544197
O3    O     O_R   0.994300 0.546830 0.547480 -0.538963
C1    C     C_R   0.651466 0.445027 0.551224 0.711975
O4    O     O_R   0.823860 0.447590 0.452270 -0.538297
O5    O     O_R   0.997200 0.538510 0.460920 -0.536715
C2    C     C_R   0.655712 0.433953 0.436969 0.698797
O6    O     O_R   0.491440 0.461490 0.539080 -0.536094
O7    O     O_3   0.661790 0.529840 0.502940 -0.362358
V1    V     V_3+5 0.935470 0.494460 0.499450 1.398829
O8    O     O_R   0.327090 0.544150 0.461780 -0.540740
C3    C     C_R   0.158358 0.554165 0.448175 0.745835
O9    O     O_R   0.324210 0.552410 0.547730 -0.539233
C4    C     C_R   0.154897 0.565311 0.563441 0.731743
V2    V     V_3+5 0.435840 0.505540 0.500550 1.411260
O10   O     O_3   0.159650 0.470160 0.497060 -0.372125
C5    C     C_R   0.070981 0.908595 0.858505 0.563483
C6    C     C_R   0.084749 0.872842 0.822365 -0.288606
H1    H     H_    0.099197 0.882501 0.791529 0.195206
C7    C     C_R   0.078640 0.825028 0.825858 -0.227444
C8    C     C_R   0.051871 0.813602 0.866222 0.599862
C9    C     C_R   0.035705 0.849420 0.902404 0.477829
C10   C     C_R   0.046702 0.897114 0.898772 -0.386505
C11   C     C_R   0.941517 0.755455 0.776694 -0.133343
H2    H     H_    0.813365 0.758452 0.796558 0.155008
C12   C     C_R   0.950137 0.719670 0.740583 -0.094242
H3    H     H_    0.829793 0.695402 0.734092 0.164705
C13   C     C_R   0.112811 0.714781 0.713671 0.079738
C14   C     C_R   0.268851 0.746046 0.724514 -0.155653
H4    H     H_    0.395582 0.742741 0.704203 0.161968
C15   C     C_R   0.262937 0.781896 0.761092 0.158880
C16   C     C_R   0.095555 0.787203 0.787254 0.191408
C17   C     C_R   0.295679 0.651813 0.663567 -0.175603
H5    H     H_    0.422842 0.659449 0.683190 0.177285
C18   C     C_R   0.306967 0.616203 0.627266 -0.131898
H6    H     H_    0.442785 0.597768 0.619777 0.144976
C19   C     C_R   0.144163 0.603879 0.601505 -0.149339
C20   C     C_R   0.970476 0.628548 0.612680 -0.225503
H7    H     H_    0.843023 0.620321 0.593217 0.154534
C21   C     C_R   0.959598 0.664794 0.648563 0.631981
C22   C     C_R   0.122141 0.676669 0.674843 -0.025290
C23   C     C_R   0.236550 0.670128 0.291396 0.697565
N1    N     N_R   0.110387 0.675911 0.324962 -0.551182
C24   C     C_R   0.968340 0.709645 0.329225 0.631214
C25   C     C_R   0.940200 0.737521 0.297583 -0.029108
C26   C     C_R   0.077983 0.734002 0.264543 -0.111514
C27   C     C_R   0.227763 0.699988 0.261380 -0.182389
C28   C     C_R   0.781472 0.769096 0.298298 0.130191
C29   C     C_R   0.781772 0.802771 0.271192 0.134362
C30   C     C_R   0.918434 0.798533 0.237169 -0.049101
C31   C     C_R   0.065517 0.763867 0.234171 -0.044012
C32   C     C_R   0.203718 0.759440 0.201069 -0.113574
C33   C     C_R   0.352262 0.725997 0.198707 -0.201081
C34   C     C_R   0.364704 0.696623 0.228278 0.657154
C35   C     C_R   0.913562 0.827212 0.205465 0.578331
N2    N     N_R   0.050796 0.822368 0.174021 -0.553332
C36   C     C_R   0.192532 0.788965 0.171089 0.616284
O11   O     O_2   0.369786 0.635394 0.287026 -0.453035
O12   O     O_2   0.860506 0.717423 0.364968 -0.485963
O13   O     O_2   0.771675 0.859059 0.205098 -0.534382
O14   O     O_2   0.323203 0.784553 0.139256 -0.522625
H8    H     H_    0.460930 0.722470 0.173887 0.193665
C37   C     C_R   0.920579 0.845843 0.109196 0.113281
C38   C     C_R   0.917373 0.876871 0.080561 -0.211203
H9    H     H_    0.818236 0.870020 0.054051 0.172587
C39   C     C_R   0.042173 0.915721 0.084766 -0.121729
C40   C     C_R   0.171640 0.924706 0.119674 0.086938
C41   C     C_R   0.173403 0.893893 0.149572 0.130483
C42   C     C_R   0.048742 0.854048 0.143944 0.354109
C43   C     C_R   0.966478 0.617371 0.363240 -0.131643
H10   H     H_    0.834472 0.618074 0.345392 0.200279
C44   C     C_R   0.977279 0.588158 0.393305 -0.195608
H11   H     H_    0.852443 0.566982 0.397934 0.150896
C45   C     C_R   0.147625 0.585786 0.416606 -0.146218
C46   C     C_R   0.306322 0.613777 0.409279 -0.272307
H12   H     H_    0.439021 0.613048 0.426886 0.165271
C47   C     C_R   0.294481 0.643689 0.379668 0.681244
C48   C     C_R   0.124471 0.645517 0.356051 0.234593
C49   C     C_R   0.615323 0.225343 0.839545 0.576669
N3    N     N_R   0.606154 0.177299 0.826158 -0.555057
C50   C     C_R   0.608698 0.157746 0.783741 0.586718
C51   C     C_R   0.618810 0.186748 0.753075 -0.027101
C52   C     C_R   0.625621 0.236255 0.766362 -0.018106
C53   C     C_R   0.624691 0.255659 0.809908 -0.065396
C54   C     C_R   0.620241 0.167369 0.709536 -0.136232
C55   C     C_R   0.627185 0.196592 0.679607 -0.135942
C56   C     C_R   0.632586 0.245994 0.692395 -0.021327
C57   C     C_R   0.632424 0.266215 0.736038 -0.046237
C58   C     C_R   0.638208 0.316030 0.749269 -0.042349
C59   C     C_R   0.639219 0.335263 0.793734 0.122387
C60   C     C_R   0.632392 0.304795 0.823075 -0.131111
C61   C     C_R   0.637816 0.275564 0.662346 0.571834
N4    N     N_R   0.641382 0.323615 0.675065 -0.554491
C62   C     C_R   0.641639 0.344180 0.717287 0.573857
O15   O     O_2   0.616058 0.243793 0.881443 -0.523166
O16   O     O_2   0.598660 0.110425 0.771194 -0.507701
H13   H     H_    0.615340 0.129503 0.698385 0.176458
H14   H     H_    0.627491 0.180251 0.646315 0.174300
O17   O     O_2   0.640366 0.256376 0.620595 -0.521001
O18   O     O_2   0.642662 0.391674 0.727876 -0.526669
H15   H     H_    0.632414 0.319743 0.856698 0.172687
C63   C     C_R   0.802751 0.381670 0.639060 -0.091068
H16   H     H_    0.927725 0.381235 0.659145 0.135174
C64   C     C_R   0.802557 0.410968 0.609064 -0.241814
H17   H     H_    0.927804 0.433015 0.607164 0.139096
C65   C     C_R   0.642532 0.412655 0.582418 -0.066971
C66   C     C_R   0.480268 0.383296 0.586373 0.098708
C67   C     C_R   0.482719 0.354144 0.616957 -0.086253
H18   H     H_    0.359331 0.332022 0.620508 0.127691
C68   C     C_R   0.642684 0.353229 0.643404 0.343165
C69   C     C_R   0.734855 0.115175 0.861893 -0.084259
H19   H     H_    0.864207 0.113107 0.842486 0.148019
C70   C     C_R   0.716001 0.085788 0.891644 -0.216483
H20   H     H_    0.831638 0.061162 0.894009 0.167844
C71   C     C_R   0.549961 0.087453 0.917561 -0.064180
C72   C     C_R   0.400922 0.120206 0.912945 0.110838
C73   C     C_R   0.422353 0.149369 0.882677 -0.078927
H21   H     H_    0.309328 0.174128 0.878716 0.128963
C74   C     C_R   0.588084 0.147078 0.857108 0.329642
C75   C     C_R   0.711384 0.129888 0.112112 -0.215256
H22   H     H_    0.837512 0.123389 0.091712 0.192168
C76   C     C_R   0.719782 0.165578 0.148259 -0.163462
H23   H     H_    0.851367 0.185922 0.154918 0.143189
C77   C     C_R   0.561265 0.174745 0.175963 0.077392
C78   C     C_R   0.389030 0.148494 0.166422 0.095506
C79   C     C_R   0.379712 0.113399 0.129252 0.586195
C80   C     C_R   0.541779 0.103363 0.102059 -0.200865
C81   C     C_R   0.563951 0.259405 0.212513 -0.252246
H24   H     H_    0.544803 0.269735 0.182093 0.159010
C82   C     C_R   0.572794 0.294222 0.249280 -0.186206
H25   H     H_    0.563356 0.330988 0.246464 0.150757
C83   C     C_R   0.596002 0.282048 0.289314 0.004655
C84   C     C_R   0.608268 0.233536 0.292050 0.030841
C85   C     C_R   0.602852 0.198853 0.254632 0.629266
C86   C     C_R   0.578347 0.211595 0.214925 -0.039560
C87   C     C_R   0.779384 0.324545 0.352341 -0.134872
H26   H     H_    0.894566 0.298999 0.343746 0.125575
C88   C     C_R   0.798025 0.360525 0.388497 0.139754
C89   C     C_R   0.647002 0.394415 0.399295 -0.065152
C90   C     C_R   0.482091 0.390331 0.373263 -0.200583
H27   H     H_    0.365462 0.415682 0.380156 0.130530
C91   C     C_R   0.465408 0.354032 0.337743 -0.145160
H28   H     H_    0.336204 0.351840 0.318557 0.128063
C92   C     C_R   0.613091 0.320635 0.327179 0.084525
O19   O     O_R   0.699170 0.038480 0.960880 -0.547632
O20   O     O_R   0.366800 0.052460 0.047690 -0.509036
O21   O     O_R   0.193520 0.961530 0.039110 -0.535487
C93   C     C_R   0.534815 0.065205 0.063580 0.739871
O22   O     O_R   0.369630 0.044100 0.961740 -0.539034
O23   O     O_R   0.196370 0.953120 0.952550 -0.532964
C94   C     C_R   0.538590 0.054915 0.948666 0.714387
O24   O     O_R   0.696320 0.046890 0.047450 -0.543903
O25   O     O_3   0.528890 0.970170 0.997080 -0.369355
V3    V     V_3+5 0.255190 0.005530 0.000540 1.515744
O26   O     O_R   0.866460 0.947530 0.952310 -0.535320
C95   C     C_R   0.035716 0.934896 0.936785 0.893240
O27   O     O_R   0.863630 0.955880 0.038270 -0.545121
C96   C     C_R   0.032328 0.946692 0.052504 0.762745
V4    V     V_3+5 0.754830 0.994440 0.999470 1.492421
O28   O     O_3   0.031000 0.029830 0.002920 -0.374996
F1    F     F_    0.079938 0.954464 0.854178 -0.669529
F2    F     F_    0.791467 0.689138 0.656620 -0.714948
C97   C     C_3   0.601765 0.763724 0.324290 -0.601511
H29   H     H_    0.618757 0.783373 0.357314 0.238128
H30   H     H_    0.469753 0.776205 0.310349 0.165565
H31   H     H_    0.572554 0.725890 0.324026 0.277049
C98   C     C_3   0.643370 0.844363 0.280663 -0.676328
H32   H     H_    0.722595 0.877853 0.280686 0.236439
H33   H     H_    0.524742 0.839783 0.257081 0.224623
H34   H     H_    0.578744 0.849271 0.312853 0.193386
F3    F     F_    0.513520 0.665410 0.224443 -0.629146
C99   C     C_3   0.785115 0.804207 0.101327 -0.601727
H35   H     H_    0.814883 0.782497 0.069513 0.219479
H36   H     H_    0.799314 0.780997 0.124951 0.215237
H37   H     H_    0.633827 0.817120 0.102215 0.238253
C100  C     C_3   0.302316 0.967765 0.125088 -0.679969
H38   H     H_    0.215567 0.999467 0.122763 0.245363
H39   H     H_    0.377185 0.975974 0.155910 0.209116
H40   H     H_    0.415964 0.962409 0.100118 0.204592
C101  C     C_3   0.306875 0.903730 0.187515 -0.672896
H41   H     H_    0.269626 0.938295 0.207668 0.206995
H42   H     H_    0.297321 0.877298 0.208295 0.204329
H43   H     H_    0.459099 0.904152 0.176489 0.244056
F4    F     F_    0.447922 0.671384 0.374545 -0.662315
C102  C     C_3   0.647688 0.387629 0.811545 -0.641266
H44   H     H_    0.650121 0.395335 0.846775 0.184446
H45   H     H_    0.781671 0.402928 0.800591 0.234611
H46   H     H_    0.517940 0.405389 0.801760 0.237306
F5    F     F_    0.044667 0.767747 0.870637 -0.613572
C103  C     C_3   0.305994 0.381263 0.558074 -0.719044
H47   H     H_    0.351621 0.373151 0.524259 0.205042
H48   H     H_    0.202371 0.353449 0.563294 0.200717
H49   H     H_    0.227995 0.415465 0.564824 0.215236
C104  C     C_3   0.220783 0.125871 0.940116 -0.716883
H50   H     H_    0.260449 0.133165 0.974202 0.200210
H51   H     H_    0.129724 0.155680 0.934299 0.201133
H52   H     H_    0.131463 0.093411 0.932792 0.219696
C105  C     C_3   0.215607 0.158114 0.195544 -0.674152
H53   H     H_    0.252366 0.151271 0.227401 0.239389
H54   H     H_    0.170440 0.195542 0.198541 0.177274
H55   H     H_    0.090418 0.135375 0.183854 0.259713
F6    F     F_    0.012115 0.837611 0.941069 -0.632965
F7    F     F_    0.213485 0.088517 0.120076 -0.715666
C106  C     C_3   0.620331 0.217168 0.333880 -0.677300
H56   H     H_    0.764986 0.201576 0.336949 0.224276
H57   H     H_    0.594526 0.245888 0.361569 0.194884
H58   H     H_    0.508200 0.189893 0.335202 0.237890
F8    F     F_    0.618269 0.152421 0.256935 -0.679096
C107  C     C_3   0.977295 0.360696 0.415085 -0.739038
H59   H     H_    0.070012 0.329380 0.403637 0.197214
H60   H     H_    0.065482 0.392475 0.413622 0.215459
H61   H     H_    0.936523 0.360061 0.448464 0.207026
C108  C     C_3   0.438336 0.812730 0.772344 -0.744149
H62   H     H_    0.405624 0.849637 0.769626 0.223123
H63   H     H_    0.483924 0.811752 0.805268 0.218560
H64   H     H_    0.562226 0.800630 0.750886 0.213486

loop_
_geom_bond_atom_site_label_1
_geom_bond_atom_site_label_2
_ccdc_geom_bond_type
C83   C92   S    
C104  H51   S    
C35   N2    A    
C21   C22   A    
C103  H47   S    
C3    C45   S    
C43   C48   A    
O2    C1    A    
C97   H29   S    
C1    O6    A    
C81   H24   S    
C23   O11   S    
C102  H45   S    
C64   C65   A    
C50   C51   A    
C102  H44   S    
C75   C80   A    
C98   H33   S    
C28   C97   S    
C54   C55   A    
N2    C36   A    
N1    C48   S    
V3    O28   S    
N2    C42   S    
C35   O13   S    
C12   H3    S    
O27   C96   A    
C36   O14   S    
C52   C53   A    
C13   C14   A    
C97   H30   S    
C90   C91   A    
C29   C98   S    
O22   C94   A    
O5    C3    A    
C49   C53   A    
O19   V4    S    
C108  H64   S    
C104  H52   S    
C65   C66   A    
C24   O12   S    
V2    O10   S    
C13   C22   S    
C47   F4    S    
C67   H18   S    
C69   C74   A    
C6    H1    S    
C58   C62   A    
O21   V3    S    
C103  H49   S    
C17   C18   A    
O8    V2    S    
C100  H40   S    
C69   H19   S    
C75   C76   A    
C41   C42   A    
C66   C67   A    
C43   H10   S    
O1    V2    S    
C53   C60   A    
C14   H4    S    
O7    V1    S    
C101  H43   S    
N4    C68   S    
C44   H11   S    
C72   C104  S    
C57   C58   A    
C84   C106  S    
C100  H39   S    
C104  H50   S    
N3    C74   S    
O27   V4    S    
O22   V3    S    
O23   C95   A    
O9    C4    A    
C60   H15   S    
C64   H17   S    
C99   H36   S    
C107  H59   S    
C98   H34   S    
O20   C93   A    
C76   H23   S    
C108  H63   S    
C20   H7    S    
C45   C46   A    
C9    F6    S    
O26   V4    S    
C40   C41   A    
C37   C42   A    
C8    F5    S    
C97   H31   S    
C11   H2    S    
C87   C88   A    
C88   C89   A    
C81   C86   A    
C98   H32   S    
O4    C2    A    
C50   O16   S    
C55   C56   A    
C83   C84   A    
C102  H46   S    
C30   C31   A    
C47   C48   A    
C1    C65   S    
C26   C31   A    
C41   C101  S    
C31   C32   A    
O19   C94   A    
C18   H6    S    
C38   C39   A    
C49   O15   S    
O25   V4    S    
C82   C83   A    
C46   H12   S    
C11   C16   A    
C21   F2    S    
C19   C20   A    
C33   H8    S    
C85   F8    S    
V4    O28   S    
O20   V3    S    
C106  H58   S    
C62   O18   S    
C40   C100  S    
C89   C90   A    
C7    C8    A    
C105  H55   S    
C5    C6    A    
C69   C70   A    
N4    C62   A    
C5    C10   A    
C32   C33   A    
C90   H27   S    
C63   C64   A    
C46   C47   A    
C105  H53   S    
O3    C4    A    
C5    F1    S    
C27   C34   A    
C44   C45   A    
C100  H38   S    
C106  H57   S    
C78   C105  S    
C51   C52   A    
O6    V2    S    
O9    V2    S    
N1    C24   A    
C84   C85   A    
C91   C92   A    
C49   N3    A    
C63   C68   A    
C23   N1    A    
C76   C77   A    
C99   H35   S    
O2    V1    S    
C39   C96   S    
C56   C61   A    
C75   H22   S    
C70   H20   S    
C7    C16   S    
C25   C28   A    
C26   C27   A    
C28   C29   A    
C103  H48   S    
C101  H42   S    
C77   C86   S    
C18   C19   A    
O1    C2    A    
C37   C99   S    
C34   F3    S    
C15   C16   A    
C24   C25   A    
C93   O24   A    
C11   C12   A    
N3    C50   A    
C81   C82   A    
O5    V1    S    
C105  H54   S    
O8    C3    A    
C99   H37   S    
C33   C34   A    
C85   C86   A    
C15   C108  S    
C59   C102  S    
C79   F7    S    
C51   C54   A    
C80   C93   S    
C88   C107  S    
C12   C13   A    
C30   C35   A    
C17   C22   A    
C38   H9    S    
C73   C74   A    
C82   H25   S    
C58   C59   A    
O4    V1    S    
C14   C15   A    
O3    V1    S    
V1    O10   S    
C73   H21   S    
C4    C19   S    
C2    C89   S    
O21   C96   A    
C59   C60   A    
C78   C79   A    
C67   C68   A    
C20   C21   A    
C79   C80   A    
C108  H62   S    
C66   C103  S    
C61   N4    A    
C107  H60   S    
C17   H5    S    
C72   C73   A    
C39   C40   A    
C6    C7    A    
C23   C27   A    
O7    V2    S    
C63   H16   S    
C55   H14   S    
O24   V4    S    
C54   H13   S    
C32   C36   A    
C37   C38   A    
C25   C26   A    
C10   C95   S    
C106  H56   S    
C56   C57   A    
C87   C92   A    
C29   C30   A    
O23   V3    S    
C71   C94   S    
O26   C95   A    
C91   H28   S    
C9    C10   A    
C87   H26   S    
C43   C44   A    
O25   V3    S    
C8    C9    A    
C52   C57   A    
C107  H61   S    
C101  H41   S    
C71   C72   A    
C61   O17   S    
C77   C78   A    
C70   C71   A    
