data_mof_unit_27644.cif
_audit_creation_date              2012-12-10T17:11:32-0500
_audit_creation_method            fapswitch 2.2
_symmetry_space_group_name_H-M    P1
_symmetry_Int_Tables_number       1
_space_group_crystal_system       triclinic
_cell_length_a                    15.008161
_cell_length_b                    13.078274
_cell_length_c                    11.790937
_cell_angle_alpha                 99.097395
_cell_angle_beta                  92.636164
_cell_angle_gamma                 92.711398
_cell_volume                      2279.30752216

loop_
_atom_site_label
_atom_site_type_symbol
_atom_type_description
_atom_site_fract_x
_atom_site_fract_y
_atom_site_fract_z
_atom_type_partial_charge
C1    C     C_R   0.500130 0.299373 0.479751 0.803378
C2    C     C_R   0.500233 0.700070 0.520288 0.823588
C3    C     C_R   0.045376 0.317425 0.486630 -0.211967
C4    C     C_R   0.954081 0.687535 0.530924 -0.211290
C5    C     C_R   0.502726 0.812795 0.529620 -0.126640
C6    C     C_R   0.501927 0.185743 0.470111 -0.135859
C7    C     C_R   0.493295 0.018115 0.345134 0.464640
C8    C     C_R   0.543490 0.980405 0.645924 0.455426
C9    C     C_R   0.506745 0.126249 0.361063 -0.351336
C10   C     C_R   0.541187 0.872081 0.630599 -0.363192
C11   C     C_R   0.500625 0.135221 0.567837 0.131971
C12   C     C_R   0.474227 0.861326 0.436165 0.139538
C13   C     C_R   0.512897 0.028355 0.553349 -0.020490
C14   C     C_R   0.492967 0.968634 0.443467 -0.033121
C15   C     C_R   0.422489 0.390440 0.024708 0.010455
C16   C     C_R   0.573893 0.611262 0.975106 -0.038700
C17   C     C_R   0.422155 0.409334 0.147614 0.539552
C18   C     C_R   0.576036 0.591440 0.853025 0.538600
C19   C     C_R   0.541583 0.537482 0.154050 0.537833
C20   C     C_R   0.457041 0.464736 0.846034 0.537413
C21   C     C_R   0.529469 0.537471 0.032736 -0.211508
C22   C     C_R   0.470576 0.461610 0.966969 -0.193145
C23   C     C_R   0.329489 0.503591 0.501673 0.801387
C24   C     C_R   0.670472 0.497740 0.498793 0.821341
C25   C     C_R   0.815603 0.587934 0.524693 -0.308251
C26   C     C_R   0.183711 0.415917 0.489482 -0.280683
C27   C     C_R   0.766592 0.494083 0.497248 -0.064148
C28   C     C_R   0.233288 0.509382 0.505637 -0.031285
C29   C     C_R   0.808788 0.399496 0.473286 0.112369
C30   C     C_R   0.191799 0.604796 0.528661 0.118404
C31   C     C_R   0.903786 0.400888 0.488867 0.092962
C32   C     C_R   0.096204 0.604017 0.519634 0.090889
C33   C     C_R   0.952835 0.499256 0.505026 -0.016943
C34   C     C_R   0.047004 0.505695 0.505745 -0.020100
C35   C     C_R   0.907700 0.591653 0.521491 0.077290
C36   C     C_R   0.091850 0.413034 0.492690 0.075505
C37   C     C_R   0.952526 0.309783 0.489383 0.176788
C38   C     C_R   0.046770 0.695465 0.524044 0.184417
Cu1   Cu    Cu3+1 0.506660 0.507730 0.615930 0.988784
Cu2   Cu    Cu3+1 0.493340 0.492270 0.384070 0.995422
H1    H     H_    0.780875 0.659237 0.541489 0.142731
H2    H     H_    0.217728 0.344389 0.481999 0.128974
H3    H     H_    0.082474 0.247816 0.483048 0.143294
H4    H     H_    0.916695 0.757123 0.538438 0.148408
H5    H     H_    0.569957 0.833372 0.696891 0.197488
H6    H     H_    0.519383 0.163784 0.287827 0.161182
N1    N     N_R   0.516670 0.519360 0.790130 -0.266589
N2    N     N_R   0.483330 0.480640 0.209870 -0.270824
O1    O     O_R   0.504720 0.354460 0.582000 -0.563902
O2    O     O_R   0.495280 0.645540 0.418000 -0.552582
O3    O     O_R   0.493480 0.341410 0.386200 -0.590437
O4    O     O_R   0.506520 0.658590 0.613800 -0.558535
O5    O     O_R   0.375880 0.506510 0.597910 -0.563671
O6    O     O_R   0.624120 0.493490 0.402090 -0.566251
O7    O     O_R   0.364640 0.493450 0.402110 -0.524361
O8    O     O_R   0.635360 0.506550 0.597890 -0.569486
C39   C     C_3   0.377522 0.291717 0.958228 -0.828602
H7    H     H_    0.403128 0.223642 0.991807 0.175846
H8    H     H_    0.303979 0.293483 0.961778 0.238191
H9    H     H_    0.394472 0.276109 0.868112 0.272781
C40   C     C_3   0.606992 0.716985 0.038722 -0.718616
H10   H     H_    0.604296 0.776365 0.981215 0.220119
H11   H     H_    0.563886 0.742904 0.110576 0.263832
H12   H     H_    0.676815 0.716141 0.072300 0.232256
C41   C     C_3   0.752996 0.302402 0.420101 -0.877827
H13   H     H_    0.787198 0.260051 0.347064 0.236548
H14   H     H_    0.737965 0.252761 0.485490 0.243423
H15   H     H_    0.688004 0.319475 0.381181 0.225648
C42   C     C_3   0.249471 0.702056 0.575966 -0.903461
H16   H     H_    0.221444 0.742198 0.655285 0.236932
H17   H     H_    0.318106 0.686070 0.603569 0.222856
H18   H     H_    0.256633 0.753493 0.510610 0.235703
C43   C     C_3   0.911588 0.206319 0.508309 -0.857590
H19   H     H_    0.864319 0.217710 0.578242 0.242312
H20   H     H_    0.879178 0.162558 0.427758 0.237527
H21   H     H_    0.962951 0.156112 0.537127 0.220136
C44   C     C_3   0.086073 0.800489 0.507800 -0.869880
H22   H     H_    0.123502 0.840343 0.586751 0.235624
H23   H     H_    0.127971 0.792215 0.432155 0.236191
H24   H     H_    0.033406 0.853247 0.488825 0.220942
C45   C     C_3   0.413588 0.803276 0.338013 -0.727866
H25   H     H_    0.369410 0.743630 0.367768 0.205198
H26   H     H_    0.366906 0.855856 0.304256 0.210383
H27   H     H_    0.453847 0.766131 0.267884 0.266279
C46   C     C_3   0.471396 0.188740 0.682283 -0.726357
H28   H     H_    0.412007 0.233453 0.667943 0.235917
H29   H     H_    0.448134 0.132683 0.737467 0.211198
H30   H     H_    0.526835 0.239716 0.729388 0.259422
O9    O     O_3   0.496912 0.959371 0.236485 -0.572894
C47   C     C_3   0.432724 0.989668 0.158393 0.049389
H31   H     H_    0.457362 0.060762 0.126767 0.134946
H32   H     H_    0.367391 0.003314 0.197780 0.129053
C48   C     C_3   0.416913 0.903961 0.055081 -0.824034
H33   H     H_    0.390267 0.831632 0.082542 0.245706
H34   H     H_    0.368017 0.927907 0.992103 0.199121
H35   H     H_    0.480474 0.888592 0.012851 0.245745
O10   O     O_3   0.590029 0.041474 0.739668 -0.570100
C49   C     C_3   0.573034 0.007336 0.844872 0.056080
H36   H     H_    0.614774 0.941427 0.856553 0.158881
H37   H     H_    0.501006 0.984501 0.849980 0.135334
C50   C     C_3   0.599118 0.095355 0.943123 -0.812882
H38   H     H_    0.669793 0.122583 0.937732 0.257656
H39   H     H_    0.555638 0.161120 0.938632 0.238672
H40   H     H_    0.592002 0.067916 0.026758 0.215887
O11   O     O_3   0.379870 0.420712 0.785712 -0.570200
C51   C     C_3   0.306418 0.479845 0.822165 0.104065
H41   H     H_    0.307986 0.552915 0.785093 0.160942
H42   H     H_    0.305580 0.501547 0.917312 0.133074
C52   C     C_3   0.219471 0.417285 0.781396 -0.788682
H43   H     H_    0.202553 0.363352 0.841881 0.222980
H44   H     H_    0.164054 0.470075 0.776654 0.209420
H45   H     H_    0.226080 0.370578 0.695670 0.261542
O12   O     O_3   0.612128 0.594899 0.217017 -0.544472
C53   C     C_3   0.692831 0.546774 0.188669 0.087511
H46   H     H_    0.702460 0.533375 0.094592 0.112910
H47   H     H_    0.693970 0.470072 0.217978 0.156629
C54   C     C_3   0.771910 0.615741 0.246853 -0.771732
H48   H     H_    0.755043 0.653481 0.333428 0.266072
H49   H     H_    0.831042 0.568857 0.254626 0.209924
H50   H     H_    0.789416 0.677528 0.195964 0.215090
O13   O     O_3   0.626262 0.656649 0.795860 -0.558259
C55   C     C_3   0.718829 0.647018 0.818495 0.066632
H51   H     H_    0.743051 0.583108 0.756255 0.177635
H52   H     H_    0.736693 0.630132 0.906034 0.118042
C56   C     C_3   0.769125 0.747646 0.804564 -0.818312
H53   H     H_    0.751316 0.811246 0.872386 0.238798
H54   H     H_    0.842232 0.738451 0.812225 0.211003
H55   H     H_    0.751453 0.768704 0.719082 0.249953
O14   O     O_3   0.350752 0.372808 0.204712 -0.539315
C57   C     C_3   0.345834 0.263796 0.198759 0.108226
H56   H     H_    0.412561 0.231235 0.194870 0.111806
H57   H     H_    0.302257 0.226604 0.123995 0.140610
C58   C     C_3   0.299347 0.234392 0.301655 -0.792897
H58   H     H_    0.332559 0.274930 0.382935 0.247940
H59   H     H_    0.228507 0.255018 0.296858 0.237492
H60   H     H_    0.300777 0.149622 0.301178 0.179220

loop_
_geom_bond_atom_site_label_1
_geom_bond_atom_site_label_2
_ccdc_geom_bond_type
C48   H33   S    
C27   C29   A    
C15   C39   S    
C43   H19   S    
C24   C27   S    
C24   O8    A    
C18   N1    A    
C30   C42   S    
C6    C9    A    
C45   H25   S    
C47   H31   S    
C44   H22   S    
C3    H3    S    
C50   H38   S    
C19   C21   A    
O12   C53   S    
C54   H49   S    
C39   H8    S    
C51   H41   S    
C19   O12   S    
C24   O6    A    
C7    O9    S    
O10   C49   S    
C42   H17   S    
C40   H11   S    
Cu2   N2    S    
C2    O2    A    
C15   C22   A    
C41   H14   S    
C58   H60   S    
C17   N2    A    
C32   C38   A    
C7    C14   A    
C44   H24   S    
C41   H15   S    
C46   H29   S    
Cu1   O4    S    
C4    C35   A    
C9    H6    S    
C48   H34   S    
C21   C22   A    
C43   H20   S    
C42   H16   S    
C45   H26   S    
C23   O5    A    
C44   H23   S    
C17   O14   S    
C1    C6    S    
C53   C54   S    
C5    C12   A    
C52   H45   S    
C25   H1    S    
C6    C11   A    
C19   N2    A    
C39   H9    S    
C4    H4    S    
C46   H28   S    
C31   C37   A    
Cu2   O6    S    
C32   C34   A    
C42   H18   S    
C57   H57   S    
C8    O10   S    
C56   H54   S    
C56   H55   S    
C58   H58   S    
C47   H32   S    
Cu1   O8    S    
Cu2   O7    S    
C10   H5    S    
C31   C33   A    
C33   C34   A    
C16   C18   A    
C23   C28   S    
C23   O7    A    
C1    O3    A    
O13   C55   S    
C2    O4    A    
C25   C35   A    
C29   C41   S    
C26   C36   A    
Cu1   O1    S    
C12   C14   A    
C49   H36   S    
C48   H35   S    
C49   H37   S    
C56   H53   S    
C43   H21   S    
C54   H50   S    
C57   C58   S    
C25   C27   A    
C16   C40   S    
C55   H52   S    
C49   C50   S    
Cu1   Cu2   S    
C45   H27   S    
C26   H2    S    
C47   C48   S    
Cu1   N1    S    
O14   C57   S    
C50   H39   S    
C46   H30   S    
C15   C17   A    
C37   C43   S    
C20   O11   S    
C20   C22   A    
C53   H47   S    
C16   C21   A    
C53   H46   S    
C38   C44   S    
C50   H40   S    
Cu2   O3    S    
O11   C51   S    
C26   C28   A    
C55   C56   S    
C52   H44   S    
C57   H56   S    
O9    C47   S    
C5    C10   A    
C29   C31   A    
C54   H48   S    
C40   H12   S    
C30   C32   A    
C11   C13   A    
C39   H7    S    
Cu1   O5    S    
C51   H42   S    
C3    C36   A    
C11   C46   S    
Cu2   O2    S    
C28   C30   A    
C33   C35   A    
C12   C45   S    
C34   C36   A    
C40   H10   S    
C20   N1    A    
C18   O13   S    
C2    C5    S    
C8    C13   A    
C7    C9    A    
C3    C37   A    
C8    C10   A    
C41   H13   S    
C52   H43   S    
C58   H59   S    
C4    C38   A    
C55   H51   S    
C13   C14   A    
C1    O1    A    
C51   C52   S    
