data_mof_unit_20269.cif
_audit_creation_date              2013-03-05T16:19:05-0500
_audit_creation_method            fapswitch 2.2
_symmetry_space_group_name_H-M    P1
_symmetry_Int_Tables_number       1
_space_group_crystal_system       triclinic
_cell_length_a                    10.630531
_cell_length_b                    9.722544
_cell_length_c                    18.950419
_cell_angle_alpha                 89.681403
_cell_angle_beta                  89.112916
_cell_angle_gamma                 89.811024
_cell_volume                      1958.360689

loop_
_atom_site_label
_atom_site_type_symbol
_atom_site_description
_atom_site_fract_x
_atom_site_fract_y
_atom_site_fract_z
_atom_type_partial_charge
O1    O     O_R   0.314910 0.616040 0.499990 -0.594212
O2    O     O_R   0.314910 0.383960 0.499990 -0.597088
C1    C     C_R   0.258097 0.500174 0.496056 0.909676
O3    O     O_R   0.500100 0.616080 0.398110 -0.644260
O4    O     O_R   0.500100 0.383920 0.398110 -0.624432
C2    C     C_R   0.503544 0.500569 0.364956 0.899977
Zn1   Zn    Zn3+2 0.500150 0.654960 0.499970 0.960969
Zn2   Zn    Zn3+2 0.500150 0.345040 0.499970 0.965762
O5    O     O_R   0.685320 0.616040 0.499960 -0.627234
O6    O     O_R   0.685320 0.383960 0.499960 -0.637348
O7    O     O_R   0.500130 0.616000 0.601840 -0.592425
O8    O     O_R   0.500130 0.384000 0.601840 -0.612873
C3    C     C_R   0.742154 0.499963 0.496937 0.936553
C4    C     C_R   0.505764 0.499786 0.634789 0.985375
C5    C     C_R   0.561450 0.627272 0.256221 -0.337274
C6    C     C_R   0.524196 0.381763 0.249939 -0.288623
H1    H     H_    0.569683 0.720125 0.287020 0.173425
H2    H     H_    0.499520 0.284884 0.274979 0.172357
C7    C     C_R   0.592032 0.631599 0.184333 0.490783
C8    C     C_R   0.554437 0.383794 0.178092 0.482571
C9    C     C_R   0.590671 0.508666 0.145513 -0.146064
C10   C     C_R   0.526042 0.503382 0.288893 -0.170100
N1    N     N_R   0.671554 0.411429 0.034659 -0.085827
N2    N     N_R   0.556777 0.617088 0.031850 -0.124551
N3    N     N_R   0.675107 0.409717 0.964530 -0.098043
N4    N     N_R   0.560010 0.615284 0.961956 -0.106076
C11   C     C_R   0.617747 0.510835 0.927289 0.405647
C12   C     C_R   0.610956 0.514456 0.069325 0.366709
C13   C     C_R   0.628077 0.618198 0.808643 0.283180
C14   C     C_R   0.550442 0.381675 0.821830 0.298114
C15   C     C_R   0.590805 0.617274 0.738520 -0.155399
C16   C     C_R   0.520568 0.381575 0.750521 -0.225977
H3    H     H_    0.609087 0.706873 0.705750 0.198878
H4    H     H_    0.480770 0.290038 0.727885 0.230654
C17   C     C_R   0.535851 0.500268 0.709557 -0.149265
C18   C     C_R   0.604022 0.501113 0.851272 -0.172967
C19   C     C_3   0.072074 0.479743 0.571594 -0.468621
C20   C     C_3   0.075019 0.382061 0.446496 -0.485212
H5    H     H_    0.119016 0.554122 0.606358 0.200855
H6    H     H_    0.107739 0.399186 0.391221 0.177178
H7    H     H_    0.102882 0.376893 0.591066 0.211043
H8    H     H_    0.115039 0.281233 0.462896 0.210222
C21   C     C_3   0.924992 0.484785 0.573411 0.314232
C22   C     C_3   0.931038 0.374249 0.452517 0.347144
H9    H     H_    0.894410 0.381669 0.592873 0.103814
H10   H     H_    0.912625 0.282113 0.486311 0.107271
H11   H     H_    0.106403 0.726759 0.493995 0.245635
H12   H     H_    0.106091 0.651192 0.408317 0.163135
H13   H     H_    0.897434 0.726031 0.500820 0.211279
H14   H     H_    0.891756 0.666766 0.413939 0.162049
C23   C     C_3   0.072142 0.637681 0.463792 -0.415311
C24   C     C_3   0.121734 0.499901 0.494609 0.036043
C25   C     C_3   0.878206 0.500386 0.495960 -0.045517
C26   C     C_3   0.928988 0.639926 0.466422 -0.412112
C27   C     C_3   0.421961 0.081883 0.440803 -0.242696
C28   C     C_3   0.413857 0.920414 0.444629 -0.253318
H15   H     H_    0.463952 0.111659 0.388759 0.145559
H16   H     H_    0.438638 0.877717 0.391884 0.146052
H17   H     H_    0.327372 0.129433 0.440049 0.197209
H18   H     H_    0.315437 0.888399 0.454608 0.206980
H19   H     H_    0.669287 0.124838 0.436090 0.217251
H20   H     H_    0.657051 0.885499 0.427235 0.179891
C29   C     C_3   0.628402 0.081032 0.485700 -0.341163
C30   C     C_3   0.626824 0.918468 0.481060 -0.352527
C31   C     C_3   0.455075 0.081605 0.567909 0.216887
C32   C     C_3   0.465206 0.919205 0.569700 0.223486
N5    N     N_3   0.499750 0.138610 0.498490 -0.105080
N6    N     N_3   0.499750 0.861390 0.498490 -0.098206
H21   H     H_    0.520874 0.119125 0.608789 0.077441
H22   H     H_    0.544940 0.895159 0.605508 0.063850
H23   H     H_    0.692191 0.113043 0.528584 0.161356
H24   H     H_    0.697740 0.875682 0.517749 0.176204
N7    N     N_R   0.329392 0.133877 0.588587 0.258028
O9    O     O_R   0.313507 0.192150 0.649688 -0.378864
O10   O     O_R   0.230655 0.112347 0.550613 -0.407833
N8    N     N_R   0.354763 0.853271 0.603062 0.256327
O11   O     O_R   0.359045 0.818928 0.669471 -0.360371
O12   O     O_R   0.247050 0.847793 0.571956 -0.401689
O13   O     O_3   0.635867 0.751650 0.152567 -0.581994
C33   C     C_3   0.545538 0.857777 0.159392 -0.205350
H25   H     H_    0.448586 0.821701 0.147926 0.142870
H26   H     H_    0.568983 0.939534 0.120368 0.233134
H27   H     H_    0.548833 0.905089 0.212541 0.143673
O14   O     O_3   0.551538 0.262754 0.140173 -0.594455
C34   C     C_3   0.426084 0.236835 0.121232 -0.242356
H28   H     H_    0.386631 0.323163 0.089488 0.185324
H29   H     H_    0.365628 0.216560 0.168628 0.135433
H30   H     H_    0.424482 0.143447 0.087896 0.215641
N9    N     N_R   0.691228 0.737561 0.835434 0.221997
O15   O     O_R   0.671448 0.858115 0.807458 -0.322515
O16   O     O_R   0.780144 0.724210 0.881442 -0.347921
N10   N     N_R   0.518553 0.263100 0.864040 0.230028
O17   O     O_R   0.535167 0.140407 0.838373 -0.292210
O18   O     O_R   0.451953 0.277100 0.921771 -0.374968
O19   O     O_3   0.860854 0.579507 0.619359 -0.626444
C35   C     C_3   0.934943 0.682536 0.649893 -0.173016
H31   H     H_    0.991303 0.740303 0.609948 0.183774
H32   H     H_    0.994583 0.638130 0.691968 0.197720
H33   H     H_    0.870938 0.757970 0.675712 0.196066
O20   O     O_3   0.870894 0.339889 0.388198 -0.600716
C36   C     C_3   0.867079 0.447048 0.337891 -0.238095
H34   H     H_    0.956414 0.505033 0.332960 0.148966
H35   H     H_    0.786216 0.516190 0.349181 0.148663
H36   H     H_    0.849873 0.400971 0.285519 0.198261

loop_
_geom_bond_atom_site_label_1
_geom_bond_atom_site_label_2
_geom_bond_distance
_ccdc_geom_bond_type
C32   N6    1.504525 S    
C27   C28   1.573748 S    
C36   H34   1.108439 S    
C27   H17   1.105586 S    
N7    O9    1.300315 A    
O19   C35   1.408656 S    
C13   N9    1.441350 S    
C5    C10   1.401202 A    
C34   H28   1.114505 S    
C5    C7    1.396106 A    
C13   C18   1.413920 A    
N4    C11   1.352920 A    
H14   C26   1.105699 S    
C30   N6    1.493655 S    
C7    C9    1.407187 A    
N2    N4    1.324646 A    
C20   H8    1.111990 S    
O3    Zn1   1.969025 S    
O4    C2    1.293809 A    
O7    C4    1.289568 A    
C20   C24   1.555616 S    
H13   C26   1.111621 S    
C2    C10   1.457609 S    
C35   H33   1.109331 S    
C31   N7    1.475964 S    
Zn1   O5    2.003266 S    
H19   C29   1.112766 S    
O5    C3    1.279498 A    
O20   C36   1.409203 S    
H20   C30   1.113189 S    
Zn1   N6    2.007057 S    
C22   C25   1.577835 S    
C21   C25   1.563401 S    
H12   C23   1.113410 S    
C31   N5    1.495858 S    
C35   H32   1.110909 S    
C21   O19   1.434424 S    
C15   H3    1.083356 S    
N9    O16   1.301503 A    
C6    C8    1.394150 A    
N1    N3    1.329121 A    
C36   H35   1.108479 S    
N7    O10   1.299970 A    
C33   H27   1.110681 S    
C22   H10   1.114359 S    
C3    C25   1.446157 S    
C34   H29   1.113382 S    
C19   H5    1.106265 S    
C29   N5    1.492899 S    
C23   C24   1.552285 S    
C14   C16   1.392938 A    
C16   C17   1.395738 A    
N8    O11   1.301664 A    
C14   N10   1.437962 S    
C4    C17   1.457399 S    
C19   C24   1.555361 S    
H11   C23   1.106519 S    
C28   N6    1.491226 S    
C28   H18   1.105739 S    
O1    C1    1.283027 A    
C16   H4    1.080464 S    
C19   C21   1.564018 S    
Zn1   O7    1.965221 S    
C20   C22   1.535181 S    
Zn2   O8    1.969355 S    
C32   N8    1.471924 S    
C35   H31   1.109461 S    
N10   O18   1.301428 A    
N1    C12   1.356420 A    
O14   C34   1.410311 S    
C7    O13   1.388867 S    
C21   H9    1.114062 S    
Zn2   O6    2.005717 S    
C9    C12   1.457309 S    
C29   H23   1.112839 S    
C36   H36   1.109167 S    
C27   H15   1.113454 S    
C15   C17   1.399254 A    
O13   C33   1.412292 S    
O3    C2    1.290037 A    
C34   H30   1.109322 S    
C5    H1    1.082246 S    
C6    C10   1.397787 A    
O1    Zn1   2.006447 S    
O2    Zn2   2.003996 S    
N2    C12   1.353792 A    
N8    O12   1.297339 A    
C33   H25   1.114750 S    
O6    C3    1.281813 A    
O4    Zn2   1.964899 S    
C27   N5    1.490231 S    
C1    C24   1.450307 S    
C25   C26   1.559603 S    
C11   C18   1.453790 S    
N3    C11   1.355757 A    
C14   C18   1.416196 A    
C23   C26   1.521944 S    
C8    O14   1.382944 S    
O2    C1    1.281777 A    
O8    C4    1.292343 A    
C13   C15   1.392620 A    
C20   H6    1.110449 S    
C22   O20   1.426920 S    
C32   H22   1.117277 S    
C31   H21   1.115387 S    
N10   O17   1.301210 A    
C33   H26   1.109003 S    
C28   H16   1.111995 S    
C30   H24   1.111638 S    
C19   H7    1.113927 S    
C29   C30   1.583626 S    
C8    C9    1.410991 A    
Zn2   N5    2.007397 S    
C6    H2    1.083502 S    
C31   C32   1.582474 S    
N9    O15   1.301534 A    
