data_mof_unit_51262.cif
_audit_creation_date              2012-12-11T15:44:55-0500
_audit_creation_method            fapswitch 2.2
_symmetry_space_group_name_H-M    P1
_symmetry_Int_Tables_number       1
_space_group_crystal_system       triclinic
_cell_length_a                    19.060852
_cell_length_b                    10.918096
_cell_length_c                    18.735582
_cell_angle_alpha                 90.24095
_cell_angle_beta                  90.184524
_cell_angle_gamma                 89.841512
_cell_volume                      3898.9590017

loop_
_atom_site_label
_atom_site_type_symbol
_atom_type_description
_atom_site_fract_x
_atom_site_fract_y
_atom_site_fract_z
_atom_type_partial_charge
C1    C     C_R   0.760058 0.535536 0.646579 0.526104
C2    C     C_R   0.174033 0.088721 0.552180 -0.161200
C3    C     C_R   0.519392 0.951140 0.958699 -0.000669
C4    C     C_R   0.012854 0.230915 0.957462 -0.186218
C5    C     C_R   0.013310 0.230812 0.032151 -0.183923
C6    C     C_R   0.512856 0.730916 0.957462 -0.186179
C7    C     C_R   0.513313 0.730813 0.032151 -0.183911
C8    C     C_3   0.983155 0.567543 0.039772 -0.240633
C9    C     C_3   0.980636 0.571230 0.959293 -0.234373
C10   C     C_3   0.483157 0.067544 0.039771 -0.240644
C11   C     C_3   0.480637 0.071230 0.959292 -0.234365
C12   C     C_R   0.760885 0.530779 0.853015 0.545130
C13   C     C_R   0.218222 0.509650 0.479755 -0.127409
C14   C     C_R   0.237000 0.523928 0.144639 0.553708
C15   C     C_R   0.260885 0.030779 0.853015 0.545141
C16   C     C_R   0.736999 0.023926 0.144638 0.553702
C17   C     C_R   0.771872 0.122807 0.851953 0.555211
C18   C     C_R   0.227771 0.125820 0.147029 0.556025
C19   C     C_R   0.271872 0.622809 0.851954 0.555235
C20   C     C_R   0.727771 0.625819 0.147029 0.556023
C21   C     C_R   0.971645 0.347211 0.852647 0.544766
C22   C     C_R   0.031410 0.346876 0.145096 0.542984
C23   C     C_R   0.471645 0.847211 0.852647 0.544757
C24   C     C_R   0.674036 0.588762 0.552183 -0.161135
C25   C     C_R   0.531410 0.846876 0.145096 0.542971
C26   C     C_R   0.747664 0.079179 0.424572 0.033734
C27   C     C_R   0.240680 0.107252 0.583439 0.004568
C28   C     C_R   0.247665 0.579133 0.424581 0.033774
C29   C     C_R   0.740694 0.607229 0.583429 0.004582
C30   C     C_R   0.797512 0.167959 0.440488 0.011472
C31   C     C_R   0.289247 0.176608 0.545286 0.013078
C32   C     C_R   0.297402 0.668129 0.440476 0.011365
C33   C     C_R   0.789276 0.676539 0.545268 0.013104
C34   C     C_R   0.811003 0.198438 0.510932 0.013521
C35   C     C_3   0.798804 0.298824 0.417718 -0.277376
C36   C     C_R   0.277711 0.202413 0.473764 0.025049
C37   C     C_R   0.310916 0.698592 0.510922 0.013393
C38   C     C_R   0.777735 0.702362 0.473749 0.025129
C39   C     C_3   0.366071 0.159172 0.534391 -0.256178
C40   C     C_3   0.298446 0.799044 0.417748 -0.277280
C41   C     C_3   0.866093 0.659033 0.534361 -0.256185
C42   C     C_3   0.813325 0.331823 0.494974 -0.283081
C43   C     C_3   0.353106 0.184028 0.455741 -0.262027
C44   C     C_3   0.313028 0.832011 0.494990 -0.283023
C45   C     C_R   0.239174 0.534884 0.353191 0.534979
C46   C     C_3   0.853122 0.683926 0.455714 -0.262056
C47   C     C_R   0.776481 0.138574 0.566111 0.033624
C48   C     C_R   0.217174 0.161628 0.438414 -0.001326
C49   C     C_R   0.276491 0.638557 0.566110 0.033623
C50   C     C_R   0.717181 0.661631 0.438411 -0.001306
C51   C     C_R   0.003747 0.346923 0.429057 -0.046178
C52   C     C_R   0.010258 0.329566 0.579144 -0.041810
C53   C     C_R   0.503676 0.846942 0.429026 -0.046133
C54   C     C_R   0.510209 0.829591 0.579112 -0.041766
C55   C     C_R   0.968554 0.130094 0.422407 -0.085646
C56   C     C_R   0.260053 0.035548 0.646585 0.526088
C57   C     C_R   0.993275 0.104955 0.568023 -0.083183
C58   C     C_R   0.468474 0.630136 0.422373 -0.085613
C59   C     C_R   0.493221 0.604977 0.567984 -0.083222
C60   C     C_R   0.961579 0.016192 0.454527 -0.119713
C61   C     C_R   0.975324 0.003058 0.526925 -0.131676
C62   C     C_R   0.461501 0.516234 0.454489 -0.119696
C63   C     C_R   0.475258 0.503089 0.526885 -0.131665
C64   C     C_R   0.997897 0.222838 0.537231 0.007688
C65   C     C_R   0.990370 0.233487 0.462306 -0.009532
C66   C     C_R   0.497832 0.722865 0.537199 0.007687
C67   C     C_R   0.739175 0.034890 0.353189 0.534976
C68   C     C_R   0.490292 0.733518 0.462275 -0.009476
C69   C     C_R   0.031037 0.438068 0.545560 -0.000764
C70   C     C_R   0.016565 0.453244 0.472593 0.003611
C71   C     C_R   0.530956 0.938110 0.545522 -0.000794
C72   C     C_R   0.516474 0.953271 0.472557 0.003590
C73   C     C_R   0.791439 0.170864 0.638814 0.558766
C74   C     C_R   0.208234 0.172784 0.361051 0.558434
C75   C     C_R   0.291441 0.670864 0.638813 0.558753
C76   C     C_R   0.708234 0.672786 0.361050 0.558438
C77   C     C_R   0.060607 0.535914 0.585158 -0.083053
C78   C     C_R   0.733101 0.038701 0.550557 -0.127472
C79   C     C_R   0.015974 0.575382 0.446338 -0.075608
C80   C     C_R   0.560512 0.035984 0.585109 -0.083125
C81   C     C_R   0.515865 0.075402 0.446292 -0.075640
C82   C     C_R   0.067174 0.651794 0.555363 -0.117599
C83   C     C_R   0.042448 0.672449 0.486755 -0.131802
C84   C     C_R   0.567050 0.151863 0.555308 -0.117627
C85   C     C_R   0.542320 0.172490 0.486699 -0.131756
C86   C     C_R   0.740969 0.046042 0.068352 -0.038145
C87   C     C_R   0.253753 0.061375 0.927893 -0.046666
C88   C     C_R   0.240969 0.546043 0.068353 -0.038178
C89   C     C_R   0.162699 0.114628 0.480101 -0.166825
C90   C     C_R   0.753752 0.561375 0.927893 -0.046659
C91   C     C_R   0.796895 0.993831 0.031789 0.026959
C92   C     C_R   0.213738 0.981628 0.969109 0.056395
C93   C     C_R   0.296897 0.493837 0.031790 0.026911
C94   C     C_R   0.713737 0.481629 0.969109 0.056430
C95   C     C_R   0.802089 0.003010 0.958895 0.007499
C96   C     C_R   0.212017 0.990586 0.042402 0.041634
C97   C     C_R   0.302094 0.503038 0.958897 0.007883
C98   C     C_R   0.712017 0.490586 0.042402 0.041644
C99   C     C_R   0.688164 0.097764 0.953578 -0.112173
C100  C     C_R   0.233232 0.538499 0.550566 -0.127414
C101  C     C_R   0.296759 0.154281 0.036927 -0.168133
C102  C     C_R   0.188163 0.597767 0.953579 -0.112225
C103  C     C_R   0.796759 0.654282 0.036927 -0.168122
C104  C     C_R   0.683127 0.087821 0.028182 -0.102716
C105  C     C_R   0.298370 0.144265 0.962502 -0.179925
C106  C     C_R   0.183126 0.587821 0.028183 -0.102733
C107  C     C_R   0.798369 0.644266 0.962501 -0.179934
C108  C     C_3   0.873226 0.012413 0.044407 0.316441
C109  C     C_3   0.136914 0.957919 0.963550 0.304667
C110  C     C_3   0.373228 0.512424 0.044410 0.316335
C111  C     C_R   0.662695 0.614689 0.480107 -0.166819
C112  C     C_3   0.636914 0.457918 0.963550 0.304630
C113  C     C_3   0.879742 0.022374 0.964328 0.150709
C114  C     C_3   0.135151 0.963028 0.044103 0.160076
C115  C     C_3   0.379742 0.522433 0.964332 0.150811
C116  C     C_3   0.635152 0.463026 0.044103 0.160077
C117  C     C_R   0.751437 0.067971 0.919678 -0.036464
C118  C     C_R   0.249665 0.082882 0.077133 -0.040671
C119  C     C_R   0.251438 0.567983 0.919680 -0.036463
C120  C     C_R   0.749664 0.582882 0.077133 -0.040674
C121  C     C_R   0.973805 0.344031 0.648402 0.521691
C122  C     C_R   0.718085 0.009883 0.479741 -0.127472
C123  C     C_R   0.029102 0.347783 0.354141 0.519710
C124  C     C_R   0.473796 0.844034 0.648394 0.521713
C125  C     C_R   0.529083 0.847785 0.354128 0.519705
C126  C     C_R   0.014337 0.341891 0.069941 0.017526
C127  C     C_R   0.007530 0.342197 0.920782 0.017598
C128  C     C_R   0.514339 0.841891 0.069940 0.017523
C129  C     C_R   0.507531 0.842198 0.920781 0.017612
C130  C     C_R   0.022090 0.449939 0.031669 0.012388
C131  C     C_R   0.019391 0.451139 0.958700 -0.000663
C132  C     C_R   0.522092 0.949940 0.031668 0.012387
Cr1   Cr    Cr6+3 0.885860 0.491680 0.749630 1.014040
Cr2   Cr    Cr6+3 0.112430 0.179310 0.249850 1.023497
Cr3   Cr    Cr6+3 0.387570 0.679310 0.750150 0.997396
Cr4   Cr    Cr6+3 0.612430 0.679310 0.249850 1.023505
Cr5   Cr    Cr6+3 0.114140 0.491680 0.250370 1.027096
Cr6   Cr    Cr6+3 0.385860 0.991680 0.749630 1.014092
Cr7   Cr    Cr6+3 0.614140 0.991680 0.250370 1.027102
Cr8   Cr    Cr6+3 0.730490 0.332970 0.748720 1.044572
Cr9   Cr    Cr6+3 0.269510 0.332970 0.251280 1.042980
Cr10  Cr    Cr6+3 0.230490 0.832970 0.748720 1.044554
Cr11  Cr    Cr6+3 0.769510 0.832970 0.251280 1.043012
Cr12  Cr    Cr6+3 0.887570 0.179310 0.750150 0.997370
F1    F     F_    0.905379 0.909168 0.072242 -0.614341
F2    F     F_    0.122115 0.843985 0.935607 -0.625109
F3    F     F_    0.405387 0.409168 0.072222 -0.614378
F4    F     F_    0.622115 0.343985 0.935607 -0.625147
H1    H     H_    0.709888 0.985367 0.592951 0.129042
H2    H     H_    0.327815 0.224974 0.062112 0.228047
H3    H     H_    0.144926 0.634742 0.923211 0.207425
H4    H     H_    0.827815 0.724974 0.062112 0.228054
H5    H     H_    0.635432 0.115699 0.054417 0.189432
H6    H     H_    0.332633 0.203262 0.932151 0.184276
H7    H     H_    0.135429 0.615694 0.054418 0.189432
H8    H     H_    0.832632 0.703262 0.932150 0.184195
H9    H     H_    0.885064 0.098221 0.074156 0.069019
H10   H     H_    0.108291 0.033123 0.936632 0.076941
H11   H     H_    0.385063 0.598216 0.074175 0.069035
H12   H     H_    0.113546 0.088123 0.455772 0.158123
H13   H     H_    0.608290 0.533121 0.936634 0.076880
H14   H     H_    0.895300 0.114643 0.946139 0.090872
H15   H     H_    0.102784 0.038083 0.065693 0.103636
H16   H     H_    0.395279 0.614730 0.946164 0.090642
H17   H     H_    0.602785 0.538079 0.065695 0.103621
H18   H     H_    0.008363 0.145084 0.928986 0.136409
H19   H     H_    0.009380 0.145266 0.060310 0.141060
H20   H     H_    0.508363 0.645085 0.928986 0.136201
H21   H     H_    0.509383 0.645267 0.060309 0.141043
H22   H     H_    0.015400 0.641508 0.063690 0.174417
H23   H     H_    0.210100 0.485047 0.592965 0.129062
H24   H     H_    0.926531 0.563656 0.938431 0.177006
H25   H     H_    0.515402 0.141509 0.063689 0.174421
H26   H     H_    0.426532 0.063656 0.938431 0.177009
H27   H     H_    0.930969 0.554730 0.064878 0.151271
H28   H     H_    0.012082 0.646965 0.936334 0.195391
H29   H     H_    0.430971 0.054730 0.064879 0.151266
H30   H     H_    0.512082 0.146965 0.936333 0.195386
H31   H     H_    0.683645 0.933556 0.467905 0.121854
H32   H     H_    0.133327 0.040544 0.580591 0.141233
H33   H     H_    0.183883 0.433172 0.467927 0.121750
H34   H     H_    0.613527 0.588246 0.455788 0.158104
H35   H     H_    0.633319 0.540636 0.580606 0.141217
H36   H     H_    0.246498 0.832008 0.398405 0.158009
H37   H     H_    0.884277 0.564522 0.545498 0.159365
H38   H     H_    0.746954 0.332031 0.398277 0.157993
H39   H     H_    0.384283 0.064687 0.545542 0.159424
H40   H     H_    0.843676 0.318582 0.381846 0.136593
H41   H     H_    0.397125 0.232013 0.561227 0.143683
H42   H     H_    0.343237 0.819097 0.381810 0.136642
H43   H     H_    0.897177 0.731833 0.561202 0.143708
H44   H     H_    0.866369 0.370279 0.503715 0.135410
H45   H     H_    0.088880 0.726476 0.586468 0.124411
H46   H     H_    0.377862 0.269461 0.436744 0.139472
H47   H     H_    0.366038 0.870681 0.503654 0.135350
H48   H     H_    0.877898 0.769351 0.436728 0.139461
H49   H     H_    0.769659 0.382993 0.520347 0.147850
H50   H     H_    0.361660 0.102234 0.421229 0.141391
H51   H     H_    0.269320 0.882951 0.520448 0.147958
H52   H     H_    0.861656 0.602142 0.421191 0.141445
H53   H     H_    0.946669 0.937857 0.422623 0.109328
H54   H     H_    0.972192 0.913735 0.551425 0.104951
H55   H     H_    0.446587 0.437912 0.422582 0.109339
H56   H     H_    0.043413 0.763930 0.464776 0.108973
H57   H     H_    0.472128 0.413768 0.551383 0.104943
H58   H     H_    0.955273 0.136814 0.366391 0.134930
H59   H     H_    0.006687 0.089081 0.623314 0.132661
H60   H     H_    0.455196 0.636869 0.366356 0.134915
H61   H     H_    0.506647 0.589090 0.623271 0.132662
H62   H     H_    0.992557 0.599200 0.395703 0.141113
H63   H     H_    0.077671 0.522937 0.639833 0.127949
H64   H     H_    0.492452 0.099190 0.395649 0.141082
H65   H     H_    0.577592 0.023028 0.639781 0.127967
H66   H     H_    0.928600 0.948461 0.884797 0.332176
H67   H     H_    0.588744 0.226563 0.586407 0.124384
H68   H     H_    0.070633 0.841086 0.077238 0.353702
H69   H     H_    0.428925 0.448854 0.884904 0.332126
H70   H     H_    0.570635 0.341101 0.077259 0.353677
H71   H     H_    0.543268 0.263966 0.464711 0.109010
H72   H     H_    0.644928 0.134745 0.923210 0.207421
O1    O     O_R   0.957020 0.451640 0.669920 -0.517340
O2    O     O_R   0.168040 0.093290 0.169870 -0.501284
O3    O     O_R   0.331960 0.593290 0.830130 -0.534057
O4    O     O_R   0.668040 0.593290 0.169870 -0.501292
O5    O     O_R   0.945600 0.250580 0.824860 -0.515066
O6    O     O_R   0.054400 0.250580 0.175140 -0.505677
O7    O     O_R   0.445600 0.750580 0.824860 -0.515128
O8    O     O_R   0.554400 0.750580 0.175140 -0.505686
O9    O     O_3   0.834640 0.334650 0.749500 -0.266834
O10   O     O_3   0.165360 0.334650 0.250500 -0.279338
O11   O     O_3   0.334640 0.834650 0.749500 -0.266843
O12   O     O_R   0.042980 0.451640 0.330080 -0.525034
O13   O     O_3   0.665360 0.834650 0.250500 -0.279344
O14   O     O_R   0.821450 0.543440 0.674610 -0.498211
O15   O     O_R   0.178550 0.543440 0.325390 -0.498567
O16   O     O_R   0.321450 0.043440 0.674610 -0.498199
O17   O     O_R   0.678550 0.043440 0.325390 -0.498564
O18   O     O_R   0.715320 0.458650 0.668100 -0.538410
O19   O     O_R   0.284680 0.458650 0.331900 -0.525626
O20   O     O_R   0.215320 0.958650 0.668100 -0.538455
O21   O     O_R   0.784680 0.958650 0.331900 -0.525595
O22   O     O_R   0.737170 0.209590 0.674530 -0.512652
O23   O     O_R   0.457020 0.951640 0.669920 -0.517351
O24   O     O_R   0.262830 0.209590 0.325470 -0.501123
O25   O     O_R   0.237170 0.709590 0.674530 -0.512663
O26   O     O_R   0.762830 0.709590 0.325470 -0.501122
O27   O     O_R   0.832710 0.092740 0.669580 -0.511955
O28   O     O_R   0.167290 0.092740 0.330420 -0.515369
O29   O     O_R   0.332710 0.592740 0.669580 -0.511968
O30   O     O_R   0.667290 0.592740 0.330420 -0.515332
O31   O     O_R   0.946290 0.250060 0.676040 -0.521545
O32   O     O_R   0.053710 0.250060 0.323960 -0.518797
O33   O     O_R   0.446290 0.750060 0.676040 -0.521554
O34   O     O_R   0.542980 0.951640 0.330080 -0.525028
O35   O     O_R   0.553710 0.750060 0.323960 -0.518788
O36   O     O_R   0.956270 0.452200 0.830470 -0.521266
O37   O     O_R   0.043730 0.452200 0.169530 -0.516053
O38   O     O_R   0.456270 0.952200 0.830470 -0.521252
O39   O     O_R   0.543730 0.952200 0.169530 -0.516060
O40   O     O_R   0.820760 0.543950 0.823440 -0.505467
O41   O     O_R   0.179240 0.543950 0.176560 -0.494928
O42   O     O_R   0.320760 0.043950 0.823440 -0.505441
O43   O     O_R   0.679240 0.043950 0.176560 -0.494933
O44   O     O_R   0.714570 0.459210 0.828640 -0.472473
O45   O     O_R   0.736470 0.210100 0.823360 -0.460639
O46   O     O_R   0.285430 0.459210 0.171360 -0.478389
O47   O     O_R   0.214570 0.959210 0.828640 -0.472467
O48   O     O_R   0.785430 0.959210 0.171360 -0.478371
O49   O     O_3   0.917664 0.924555 0.934515 -0.644179
O50   O     O_3   0.122409 0.849359 0.075667 -0.659554
O51   O     O_3   0.417667 0.424641 0.934493 -0.644112
O52   O     O_3   0.622412 0.349357 0.075666 -0.659551
O53   O     O_R   0.263530 0.210100 0.176640 -0.493112
O54   O     O_R   0.236470 0.710100 0.823360 -0.460673
O55   O     O_R   0.763530 0.710100 0.176640 -0.493108
O56   O     O_R   0.831960 0.093290 0.830130 -0.534276

loop_
_geom_bond_atom_site_label_1
_geom_bond_atom_site_label_2
_ccdc_geom_bond_type
C58   C62   A    
C79   H62   S    
C66   C68   A    
Cr6   O38   S    
Cr7   O43   S    
Cr7   O17   S    
C121  O1    A    
C51   C123  S    
Cr4   O35   S    
C69   C77   A    
C103  C120  A    
C34   C42   S    
C3    C11   S    
Cr9   O53   S    
C80   C84   A    
C86   C104  A    
C110  H11   S    
C67   O21   A    
C8    H27   S    
C102  C119  A    
C101  C118  A    
C95   C117  A    
C98   C120  A    
Cr10  O20   S    
C112  H13   S    
C54   C66   A    
Cr3   O7    S    
C30   C35   S    
C57   C64   A    
C43   H46   S    
C26   C67   S    
Cr2   O6    S    
C12   C90   S    
Cr6   O11   S    
C63   H57   S    
C25   C128  S    
C113  O49   S    
C90   C107  A    
C15   O47   A    
C86   C91   A    
Cr5   O12   S    
C59   C66   A    
C12   O44   A    
C39   H41   S    
C115  O51   S    
C92   C109  S    
C22   C126  S    
C19   O54   A    
Cr5   O15   S    
C94   C98   A    
Cr10  O11   S    
C116  H17   S    
C29   C33   A    
C101  H2    S    
C92   C96   A    
C74   O28   A    
C23   C129  S    
C9    H28   S    
Cr11  O48   S    
C51   C65   A    
Cr2   O28   S    
C115  H16   S    
C125  O35   A    
C53   C68   A    
C24   C29   A    
C82   H45   S    
C17   O45   A    
C52   C69   A    
C40   H36   S    
C113  H14   S    
C59   H61   S    
C16   O43   A    
Cr6   O16   S    
Cr8   O45   S    
Cr1   O40   S    
C73   O22   A    
Cr6   O42   S    
C23   O38   A    
C31   C39   S    
C8    C9    S    
Cr2   O2    S    
Cr7   O39   S    
C5    C126  A    
Cr7   O13   S    
Cr1   O1    S    
C41   C46   S    
C49   C75   S    
C13   C28   A    
C102  C106  A    
C2    C27   A    
C51   C70   A    
Cr2   O32   S    
C7    C128  A    
C21   C127  S    
C18   C118  S    
C75   O29   A    
C72   C81   A    
C75   O25   A    
C84   H67   S    
C17   C117  S    
C93   C110  S    
C18   O53   A    
C74   O24   A    
C10   H25   S    
Cr2   O10   S    
C105  H6    S    
Cr4   O8    S    
C76   O30   A    
Cr8   O9    S    
Cr9   O19   S    
Cr3   O11   S    
C55   C60   A    
C100  H23   S    
C16   C86   S    
Cr4   O30   S    
C69   C70   A    
C24   C111  A    
C2    H32   S    
Cr11  O55   S    
C6    C129  A    
C18   O2    A    
C109  H10   S    
C128  C132  A    
Cr1   O36   S    
H68   O50   S    
C71   C80   A    
C55   C65   A    
C8    H22   S    
C90   C94   A    
C6    C7    A    
C10   C132  S    
C9    C131  S    
C22   O37   A    
C101  C105  A    
C122  H31   S    
C6    H20   S    
C28   C45   S    
Cr9   O24   S    
C38   C46   S    
C38   C50   A    
C41   H43   S    
C27   C31   A    
C3    C132  A    
C48   C74   S    
Cr12  O9    S    
C114  O50   S    
Cr7   O34   S    
C19   O3    A    
C84   C85   A    
C47   C73   S    
C52   C64   A    
C30   C34   A    
C27   C56   S    
C83   H56   S    
C98   C116  S    
C39   C43   S    
C108  H9    S    
C14   C88   S    
C95   C113  S    
C21   O36   A    
Cr9   O10   S    
H69   O51   S    
C91   C95   A    
C67   O17   A    
C111  H34   S    
H70   O52   S    
C112  F4    S    
H66   O49   S    
C60   C61   A    
C108  C113  S    
C97   C119  A    
C2    C89   A    
C45   O19   A    
C62   C63   A    
C14   O41   A    
C50   C76   S    
C61   H54   S    
C99   C117  A    
C88   C106  A    
C52   C121  S    
C46   H52   S    
Cr4   O4    S    
C28   C32   A    
C1    O14   A    
Cr5   O10   S    
Cr10  O25   S    
Cr4   O13   S    
Cr8   O18   S    
Cr8   O44   S    
C20   O4    A    
C41   H37   S    
C11   H30   S    
C32   C37   A    
Cr3   O33   S    
C124  O23   A    
C46   H48   S    
C4    C5    A    
C12   O40   A    
C37   C49   A    
C16   O48   A    
C53   C125  S    
C109  C114  S    
C87   C105  A    
C22   O6    A    
C103  H4    S    
C58   C68   A    
Cr12  O31   S    
C57   H59   S    
C106  H7    S    
C13   H33   S    
C48   C89   A    
C7    H21   S    
C8    C130  S    
C104  H5    S    
Cr12  O5    S    
C97   C115  S    
C1    C29   S    
C110  F3    S    
C93   C97   A    
C20   C120  S    
C17   O56   A    
C21   O5    A    
C44   H47   S    
C89   H12   S    
C15   C87   S    
C108  F1    S    
C96   C118  A    
C55   H58   S    
C54   C124  S    
C88   C93   A    
C123  O12   A    
C11   H26   S    
C99   C104  A    
C4    C127  A    
C70   C79   A    
C3    C129  A    
C10   H29   S    
C91   C108  S    
C56   O20   A    
C42   H49   S    
C76   O26   A    
C45   O15   A    
C124  O33   A    
C9    H24   S    
Cr1   O9    S    
C23   O7    A    
Cr10  O47   S    
C112  C116  S    
C57   C61   A    
C80   H65   S    
C73   O27   A    
Cr5   O37   S    
C1    O18   A    
Cr3   O3    S    
C102  H3    S    
C25   O8    A    
C59   C63   A    
C33   C38   A    
Cr11  O26   S    
Cr12  O56   S    
C33   C41   S    
Cr9   O46   S    
Cr11  O13   S    
C13   C100  A    
C130  C131  A    
C85   H71   S    
C20   O55   A    
C58   H60   S    
C123  O32   A    
C15   O42   A    
C116  O52   S    
C64   C65   A    
C49   C100  A    
C79   C83   A    
C35   H40   S    
C114  H15   S    
C39   H39   S    
C77   C82   A    
C37   C44   S    
C35   H38   S    
Cr10  O54   S    
C54   C71   A    
C94   C112  S    
C50   C111  A    
C35   C42   S    
C4    H18   S    
C36   C48   A    
C43   H50   S    
Cr8   O22   S    
Cr1   O14   S    
C32   C40   S    
C125  O34   A    
C78   C122  A    
C127  C131  A    
C62   H55   S    
C96   C114  S    
C109  F2    S    
C121  O31   A    
C10   C11   S    
C77   H63   S    
C107  H8    S    
C19   C119  S    
C25   O39   A    
C42   H44   S    
C60   H53   S    
C40   C44   S    
C81   H64   S    
C40   H42   S    
C99   H72   S    
C44   H51   S    
C82   C83   A    
Cr3   O29   S    
Cr12  O27   S    
Cr11  O21   S    
C126  C130  A    
C31   C36   A    
C56   O16   A    
C36   C43   S    
C103  C107  A    
C34   C47   A    
C26   C122  A    
C47   C78   A    
C71   C72   A    
C5    H19   S    
C87   C92   A    
C53   C72   A    
C110  C115  S    
C81   C85   A    
Cr6   O23   S    
C14   O46   A    
C78   H1    S    
C24   H35   S    
C26   C30   A    
Cr5   O41   S    
