data_mof_unit_56347.cif
_audit_creation_date              2012-10-26T17:11:23-0400
_audit_creation_method            fapswitch 2.2
_symmetry_space_group_name_H-M    P1
_symmetry_Int_Tables_number       1
_space_group_crystal_system       triclinic
_cell_length_a                    27.988998
_cell_length_b                    18.731247
_cell_length_c                    16.875707
_cell_angle_alpha                 89.862918
_cell_angle_beta                  62.488057
_cell_angle_gamma                 89.794867
_cell_volume                      7846.84133448

loop_
_atom_site_label
_atom_site_type_symbol
_atom_type_description
_atom_site_fract_x
_atom_site_fract_y
_atom_site_fract_z
_atom_type_partial_charge
C1    C     C_R   0.295045 0.728308 0.329666 0.554489
C2    C     C_R   0.597242 0.999563 0.513493 0.024393
C3    C     C_R   0.690727 0.713281 0.903508 -0.009192
C4    C     C_R   0.926468 0.903209 0.066668 0.554059
C5    C     C_R   0.073532 0.096790 0.933332 0.554060
C6    C     C_R   0.073490 0.903104 0.933430 0.554343
C7    C     C_R   0.926510 0.096895 0.066570 0.554343
C8    C     C_R   0.426468 0.403209 0.066668 0.554059
C9    C     C_R   0.573532 0.596791 0.933332 0.554060
C10   C     C_R   0.573490 0.403104 0.933430 0.554344
C11   C     C_R   0.426510 0.596896 0.066570 0.554343
C12   C     C_R   0.069204 0.618350 0.440166 0.011518
C13   C     C_R   0.902757 0.500438 0.486510 0.024393
C14   C     C_R   0.930794 0.381650 0.559839 0.011518
C15   C     C_R   0.971698 0.619622 0.428878 0.013497
C16   C     C_R   0.028301 0.380378 0.571127 0.013497
C17   C     C_R   0.569205 0.118351 0.440164 0.011518
C18   C     C_R   0.430795 0.881649 0.559836 0.011517
C19   C     C_R   0.471698 0.119623 0.428876 0.013497
C20   C     C_R   0.528302 0.880378 0.571125 0.013497
C21   C     C_R   0.055761 0.676739 0.401915 -0.130297
C22   C     C_R   0.944238 0.323261 0.598089 -0.130296
C23   C     C_R   0.007322 0.677518 0.396726 -0.128629
C24   C     C_R   0.097241 0.499563 0.513496 0.024392
C25   C     C_R   0.992677 0.322481 0.603277 -0.128628
C26   C     C_R   0.555762 0.176739 0.401912 -0.130296
C27   C     C_R   0.444240 0.823259 0.598084 -0.130297
C28   C     C_R   0.507322 0.177519 0.396724 -0.128628
C29   C     C_R   0.492679 0.822481 0.603273 -0.128628
C30   C     C_R   0.985609 0.559921 0.464960 0.023369
C31   C     C_R   0.014389 0.440080 0.535047 0.023369
C32   C     C_R   0.034312 0.559489 0.471191 0.023784
C33   C     C_R   0.965686 0.440511 0.528816 0.023785
C34   C     C_R   0.485610 0.059921 0.464957 0.023369
C35   C     C_R   0.577560 0.879189 0.574258 -0.115978
C36   C     C_R   0.514389 0.940080 0.535045 0.023369
C37   C     C_R   0.534313 0.059490 0.471188 0.023785
C38   C     C_R   0.465687 0.940511 0.528814 0.023785
C39   C     C_R   0.451315 0.000322 0.493489 -0.006507
C40   C     C_R   0.548685 0.999679 0.506513 -0.006507
C41   C     C_R   0.951314 0.500322 0.493491 -0.006507
C42   C     C_R   0.048683 0.499679 0.506516 -0.006507
C43   C     C_R   0.370437 0.938422 0.509083 -0.002393
C44   C     C_R   0.629564 0.061577 0.490915 -0.002394
C45   C     C_R   0.613792 0.937162 0.541853 -0.001219
C46   C     C_R   0.422440 0.120812 0.425743 -0.115976
C47   C     C_R   0.386208 0.062838 0.458147 -0.001218
C48   C     C_R   0.870435 0.438423 0.509087 -0.002394
C49   C     C_R   0.129563 0.561577 0.490918 -0.002394
C50   C     C_R   0.113792 0.437162 0.541855 -0.001219
C51   C     C_R   0.886207 0.562838 0.458149 -0.001218
C52   C     C_R   0.326133 0.936314 0.489149 -0.023957
C53   C     C_R   0.673868 0.063686 0.510849 -0.023958
C54   C     C_R   0.666106 0.935467 0.536809 -0.026878
C55   C     C_R   0.333895 0.064533 0.463190 -0.026878
C56   C     C_R   0.826132 0.436314 0.489152 -0.023958
C57   C     C_R   0.383213 0.881594 0.551679 -0.117304
C58   C     C_R   0.173867 0.563686 0.510851 -0.023958
C59   C     C_R   0.166105 0.435467 0.536810 -0.026878
C60   C     C_R   0.833894 0.564533 0.463191 -0.026878
C61   C     C_R   0.307055 0.000152 0.471231 -0.162239
C62   C     C_R   0.692945 0.999848 0.528768 -0.162238
C63   C     C_R   0.807054 0.500152 0.471232 -0.162238
C64   C     C_R   0.192945 0.499848 0.528769 -0.162238
C65   C     C_R   0.616788 0.118405 0.448318 -0.117305
C66   C     C_R   0.077560 0.379188 0.574259 -0.115977
C67   C     C_R   0.922440 0.620811 0.425743 -0.115977
C68   C     C_R   0.883211 0.381595 0.551684 -0.117306
C69   C     C_R   0.704955 0.271692 0.670334 0.554489
C70   C     C_R   0.116788 0.618405 0.448320 -0.117302
C71   C     C_R   0.221106 0.766827 0.952634 0.031505
C72   C     C_R   0.778894 0.233172 0.047366 0.031505
C73   C     C_R   0.778935 0.767353 0.047171 0.029918
C74   C     C_R   0.221065 0.232647 0.952829 0.029918
C75   C     C_R   0.721106 0.266828 0.952634 0.031505
C76   C     C_R   0.278894 0.733172 0.047366 0.031505
C77   C     C_R   0.278935 0.267353 0.047171 0.029918
C78   C     C_R   0.721065 0.732647 0.952829 0.029918
C79   C     C_R   0.277621 0.770996 0.910524 -0.109983
C80   C     C_R   0.704993 0.728227 0.670271 0.554195
C81   C     C_R   0.722379 0.229004 0.089476 -0.109983
C82   C     C_R   0.722338 0.770562 0.089555 -0.109115
C83   C     C_R   0.277662 0.229438 0.910445 -0.109115
C84   C     C_R   0.777621 0.270996 0.910524 -0.109983
C85   C     C_R   0.222379 0.729003 0.089476 -0.109983
C86   C     C_R   0.222338 0.270562 0.089555 -0.109115
C87   C     C_R   0.777662 0.729438 0.910445 -0.109115
C88   C     C_R   0.306227 0.754273 0.957418 -0.110737
C89   C     C_R   0.693773 0.245727 0.042583 -0.110738
C90   C     C_R   0.693716 0.753316 0.042910 -0.110284
C91   C     C_R   0.295007 0.271773 0.329729 0.554195
C92   C     C_R   0.306283 0.246683 0.957090 -0.110284
C93   C     C_R   0.806227 0.254273 0.957417 -0.110738
C94   C     C_R   0.193773 0.745727 0.042582 -0.110738
C95   C     C_R   0.193716 0.253317 0.042910 -0.110284
C96   C     C_R   0.806284 0.746683 0.957090 -0.110284
C97   C     C_R   0.144675 0.829227 0.943604 -0.118359
C98   C     C_R   0.855324 0.170773 0.056396 -0.118358
C99   C     C_R   0.855271 0.829785 0.056376 -0.117306
C100  C     C_R   0.144728 0.170215 0.943624 -0.117306
C101  C     C_R   0.644675 0.329227 0.943604 -0.118359
C102  C     C_R   0.795045 0.228308 0.329666 0.554490
C103  C     C_R   0.355324 0.670773 0.056396 -0.118359
C104  C     C_R   0.355271 0.329785 0.056376 -0.117306
C105  C     C_R   0.644729 0.670215 0.943624 -0.117306
C106  C     C_R   0.117833 0.851663 0.895130 -0.013916
C107  C     C_R   0.882167 0.148337 0.104870 -0.013916
C108  C     C_R   0.882086 0.851953 0.104943 -0.013625
C109  C     C_R   0.117914 0.148047 0.895057 -0.013625
C110  C     C_R   0.617833 0.351663 0.895130 -0.013916
C111  C     C_R   0.382167 0.648337 0.104870 -0.013916
C112  C     C_R   0.382086 0.351953 0.104943 -0.013625
C113  C     C_R   0.204955 0.771692 0.670334 0.554490
C114  C     C_R   0.617914 0.648047 0.895057 -0.013625
C115  C     C_R   0.136395 0.829513 0.807002 -0.137097
C116  C     C_R   0.863605 0.170487 0.192998 -0.137097
C117  C     C_R   0.863501 0.829642 0.193066 -0.139667
C118  C     C_R   0.136499 0.170357 0.806934 -0.139666
C119  C     C_R   0.636395 0.329513 0.807002 -0.137097
C120  C     C_R   0.363605 0.670486 0.192998 -0.137097
C121  C     C_R   0.363501 0.329642 0.193066 -0.139667
C122  C     C_R   0.636499 0.670357 0.806934 -0.139666
C123  C     C_R   0.182466 0.787350 0.765790 -0.014582
C124  C     C_R   0.204993 0.228227 0.670271 0.554195
C125  C     C_R   0.817534 0.212650 0.234210 -0.014582
C126  C     C_R   0.817537 0.787543 0.234195 -0.014549
C127  C     C_R   0.182463 0.212457 0.765805 -0.014549
C128  C     C_R   0.682466 0.287350 0.765790 -0.014582
C129  C     C_R   0.317534 0.712650 0.234210 -0.014582
C130  C     C_R   0.317537 0.287543 0.234195 -0.014549
C131  C     C_R   0.682463 0.712457 0.765805 -0.014549
C132  C     C_R   0.209294 0.765005 0.814370 -0.120222
C133  C     C_R   0.790706 0.234995 0.185630 -0.120223
C134  C     C_R   0.790844 0.765386 0.185493 -0.116887
C135  C     C_R   0.795007 0.771772 0.329729 0.554195
C136  C     C_R   0.209156 0.234614 0.814507 -0.116887
C137  C     C_R   0.709294 0.265005 0.814370 -0.120223
C138  C     C_R   0.290706 0.734995 0.185630 -0.120223
C139  C     C_R   0.290844 0.265386 0.185493 -0.116887
C140  C     C_R   0.709156 0.734614 0.814507 -0.116887
C141  C     C_R   0.200664 0.630911 0.513786 0.554973
C142  C     C_R   0.799336 0.369089 0.486215 0.554974
C143  C     C_R   0.803399 0.631744 0.472355 0.549689
C144  C     C_R   0.196601 0.368256 0.527645 0.549689
C145  C     C_R   0.700664 0.130911 0.513785 0.554973
C146  C     C_R   0.402758 0.000438 0.486507 0.024392
C147  C     C_R   0.299336 0.869089 0.486214 0.554974
C148  C     C_R   0.303399 0.131744 0.472355 0.549690
C149  C     C_R   0.696601 0.868256 0.527645 0.549689
C150  C     C_R   0.190755 0.786134 0.903370 -0.008504
C151  C     C_R   0.809245 0.213866 0.096630 -0.008504
C152  C     C_R   0.809273 0.786719 0.096492 -0.009192
C153  C     C_R   0.190727 0.213281 0.903508 -0.009192
C154  C     C_R   0.690755 0.286134 0.903370 -0.008504
C155  C     C_R   0.309245 0.713866 0.096630 -0.008504
C156  C     C_R   0.309273 0.286719 0.096492 -0.009192
Cu1   Cu    Cu3+1 0.209920 0.785290 0.495070 0.914488
Cu2   Cu    Cu3+1 0.504760 0.500000 0.075850 0.921041
Cu3   Cu    Cu3+1 0.995240 0.000000 0.924150 0.921041
Cu4   Cu    Cu3+1 0.004760 0.000000 0.075850 0.921042
Cu5   Cu    Cu3+1 0.790080 0.214710 0.504930 0.914487
Cu6   Cu    Cu3+1 0.790080 0.785290 0.504930 0.918305
Cu7   Cu    Cu3+1 0.209920 0.214710 0.495070 0.918304
Cu8   Cu    Cu3+1 0.709920 0.285290 0.495070 0.914487
Cu9   Cu    Cu3+1 0.290080 0.714710 0.504930 0.914486
Cu10  Cu    Cu3+1 0.290080 0.285290 0.504930 0.918304
Cu11  Cu    Cu3+1 0.709920 0.714710 0.495070 0.918304
Cu12  Cu    Cu3+1 0.495240 0.500000 0.924150 0.921041
H1    H     H_    0.502443 0.776313 0.631898 0.105181
H2    H     H_    0.730132 0.999952 0.533880 0.159696
H3    H     H_    0.769868 0.500047 0.466119 0.159695
H4    H     H_    0.230132 0.499952 0.533881 0.159696
H5    H     H_    0.586145 0.833832 0.605414 0.136703
H6    H     H_    0.413855 0.166168 0.394586 0.136703
H7    H     H_    0.355717 0.837875 0.582271 0.142568
H8    H     H_    0.644285 0.162124 0.417727 0.142567
H9    H     H_    0.086144 0.333832 0.605415 0.136703
H10   H     H_    0.913855 0.666167 0.394586 0.136703
H11   H     H_    0.855715 0.337875 0.582273 0.142568
H12   H     H_    0.497559 0.223684 0.368095 0.105181
H13   H     H_    0.144286 0.662121 0.417724 0.142564
H14   H     H_    0.131190 0.847715 0.011404 0.130186
H15   H     H_    0.868810 0.152285 0.988596 0.130186
H16   H     H_    0.868752 0.848394 0.988573 0.131357
H17   H     H_    0.131248 0.151606 0.011427 0.131357
H18   H     H_    0.631190 0.347715 0.011404 0.130186
H19   H     H_    0.368810 0.652285 0.988596 0.130186
H20   H     H_    0.368752 0.348394 0.988573 0.131357
H21   H     H_    0.631248 0.651606 0.011427 0.131357
H22   H     H_    0.116195 0.847563 0.769131 0.155554
H23   H     H_    0.417641 0.777641 0.622810 0.101331
H24   H     H_    0.883805 0.152437 0.230869 0.155553
H25   H     H_    0.883630 0.847493 0.230973 0.152939
H26   H     H_    0.116370 0.152507 0.769027 0.152939
H27   H     H_    0.616195 0.347563 0.769131 0.155554
H28   H     H_    0.383805 0.652437 0.230869 0.155553
H29   H     H_    0.383630 0.347493 0.230973 0.152939
H30   H     H_    0.616370 0.652507 0.769027 0.152939
H31   H     H_    0.245129 0.732099 0.782691 0.127515
H32   H     H_    0.754871 0.267901 0.217308 0.127515
H33   H     H_    0.755182 0.732414 0.217114 0.131075
H34   H     H_    0.582363 0.222355 0.377178 0.101331
H35   H     H_    0.244818 0.267586 0.782886 0.131075
H36   H     H_    0.745129 0.232099 0.782691 0.127515
H37   H     H_    0.254871 0.767901 0.217308 0.127515
H38   H     H_    0.255182 0.232413 0.217114 0.131075
H39   H     H_    0.744818 0.767586 0.782886 0.131075
H40   H     H_    0.150281 0.741316 0.076331 0.105113
H41   H     H_    0.849719 0.258683 0.923669 0.105113
H42   H     H_    0.849822 0.742919 0.923037 0.107593
H43   H     H_    0.150178 0.257081 0.076963 0.107593
H44   H     H_    0.650281 0.241317 0.076331 0.105113
H45   H     H_    0.002440 0.276315 0.631906 0.105181
H46   H     H_    0.349719 0.758683 0.923669 0.105113
H47   H     H_    0.349822 0.242918 0.923037 0.107593
H48   H     H_    0.650178 0.757081 0.076963 0.107593
H49   H     H_    0.299676 0.788406 0.841719 0.102779
H50   H     H_    0.700324 0.211594 0.158282 0.102778
H51   H     H_    0.700183 0.787600 0.158457 0.109673
H52   H     H_    0.299817 0.212400 0.841543 0.109673
H53   H     H_    0.799676 0.288405 0.841718 0.102778
H54   H     H_    0.200324 0.711594 0.158281 0.102778
H55   H     H_    0.200183 0.287600 0.158457 0.109673
H56   H     H_    0.997559 0.723683 0.368096 0.105181
H57   H     H_    0.799817 0.712400 0.841543 0.109673
H58   H     H_    0.917637 0.277645 0.622822 0.101331
H59   H     H_    0.082362 0.722354 0.377182 0.101332
H60   H     H_    0.269868 0.000048 0.466118 0.159695
O1    O     O_R   0.255040 0.869590 0.478480 -0.507848
O2    O     O_R   0.817950 0.203450 0.375560 -0.508381
O3    O     O_R   0.817950 0.796550 0.375560 -0.515537
O4    O     O_R   0.182050 0.203450 0.624440 -0.515537
O5    O     O_R   0.682050 0.296550 0.624440 -0.508381
O6    O     O_R   0.317950 0.703450 0.375560 -0.508381
O7    O     O_R   0.317950 0.296550 0.375560 -0.515537
O8    O     O_R   0.682050 0.703450 0.624440 -0.515537
O9    O     O_R   0.250530 0.763330 0.367210 -0.522125
O10   O     O_R   0.749470 0.236670 0.632790 -0.522125
O11   O     O_R   0.749470 0.763330 0.632790 -0.510992
O12   O     O_R   0.744960 0.130410 0.521520 -0.507848
O13   O     O_R   0.250530 0.236670 0.367210 -0.510992
O14   O     O_R   0.750530 0.263330 0.367210 -0.522125
O15   O     O_R   0.249470 0.736670 0.632790 -0.522125
O16   O     O_R   0.249470 0.263330 0.632790 -0.510992
O17   O     O_R   0.750530 0.736670 0.367210 -0.510992
O18   O     O_R   0.177260 0.690030 0.513710 -0.516246
O19   O     O_R   0.822740 0.309970 0.486290 -0.516248
O20   O     O_R   0.822740 0.690030 0.486290 -0.513551
O21   O     O_R   0.177260 0.309970 0.513710 -0.513551
O22   O     O_R   0.677260 0.190030 0.513710 -0.516248
O23   O     O_R   0.744960 0.869590 0.521520 -0.507113
O24   O     O_R   0.322740 0.809970 0.486290 -0.516249
O25   O     O_R   0.322740 0.190030 0.486290 -0.513551
O26   O     O_R   0.677260 0.809970 0.513710 -0.513552
O27   O     O_R   0.051640 0.926880 0.885090 -0.511476
O28   O     O_R   0.948360 0.073120 0.114910 -0.511476
O29   O     O_R   0.948360 0.926880 0.114910 -0.512752
O30   O     O_R   0.051640 0.073120 0.885090 -0.512752
O31   O     O_R   0.551640 0.426880 0.885090 -0.511476
O32   O     O_R   0.448360 0.573120 0.114910 -0.511476
O33   O     O_R   0.448360 0.426880 0.114910 -0.512752
O34   O     O_R   0.255040 0.130410 0.478480 -0.507113
O35   O     O_R   0.551640 0.573120 0.885090 -0.512752
O36   O     O_R   0.940620 0.926560 0.986760 -0.513129
O37   O     O_R   0.059380 0.073440 0.013240 -0.513129
O38   O     O_R   0.059380 0.926560 0.013240 -0.514247
O39   O     O_R   0.940620 0.073440 0.986760 -0.514247
O40   O     O_R   0.440620 0.426560 0.986760 -0.513129
O41   O     O_R   0.559380 0.573440 0.013240 -0.513129
O42   O     O_R   0.559380 0.426560 0.013240 -0.514248
O43   O     O_R   0.440620 0.573440 0.986760 -0.514247
O44   O     O_R   0.755040 0.369590 0.478480 -0.507848
O45   O     O_R   0.244960 0.630410 0.521520 -0.507848
O46   O     O_R   0.244960 0.369590 0.521520 -0.507113
O47   O     O_R   0.755040 0.630410 0.478480 -0.507113
O48   O     O_R   0.182050 0.796550 0.624440 -0.508380

loop_
_geom_bond_atom_site_label_1
_geom_bond_atom_site_label_2
_ccdc_geom_bond_type
C100  C153  A    
C5    O37   A    
C31   C42   A    
C132  C150  A    
C133  C151  A    
C74   C83   A    
C102  C125  S    
C14   C33   A    
C90   H48   S    
C19   C46   A    
C3    C105  A    
C16   C31   A    
C120  H28   S    
C9    C114  S    
C1    C129  S    
C52   C61   A    
C77   C156  S    
Cu9   O24   S    
Cu10  O16   S    
C144  O46   A    
C98   H15   S    
C131  C140  A    
C13   C51   A    
C44   C53   A    
C91   O13   A    
Cu3   O36   S    
C113  O15   A    
C97   C150  A    
C46   H6    S    
C124  O16   A    
C85   H54   S    
Cu6   O3    S    
C119  C128  A    
C116  H24   S    
C47   C146  A    
C100  C109  A    
C58   C64   A    
Cu12  O40   S    
C113  O48   A    
C138  H37   S    
C109  C118  A    
C89   H44   S    
C62   H2    S    
C147  O24   A    
C115  C123  A    
C105  H21   S    
C94   H40   S    
C127  C136  A    
Cu5   O10   S    
C101  C110  A    
C120  C129  A    
Cu8   O22   S    
C139  H38   S    
C105  C114  A    
C70   H13   S    
C36   C40   A    
C72   C151  S    
C6    C106  S    
C28   H12   S    
C124  O4    A    
C124  C127  S    
C50   C59   A    
C35   C45   A    
C140  H39   S    
C15   C30   A    
C16   C25   A    
C82   C90   A    
C137  H36   S    
C76   C155  S    
C106  C115  A    
C84   H53   S    
C25   H45   S    
C18   C38   A    
C136  C153  A    
C147  O1    A    
C58   C141  S    
Cu4   O29   S    
C6    O27   A    
C119  H27   S    
C84   C93   A    
C117  H25   S    
C86   C95   A    
C2    C40   A    
C126  C134  A    
C102  O2    A    
C10   O31   A    
C29   H1    S    
C76   C85   A    
C78   C87   A    
C144  O21   A    
Cu4   O38   S    
C123  C132  A    
C27   C29   A    
C80   O8    A    
C141  O45   A    
C121  C130  A    
Cu1   O48   S    
C71   C79   A    
Cu1   O1    S    
Cu5   O12   S    
C99   C108  A    
Cu2   O41   S    
Cu12  O31   S    
C77   C86   A    
C37   C40   A    
C60   C143  S    
C38   C39   A    
C43   C52   A    
C79   H49   S    
C71   C150  S    
C91   O7    A    
C143  O20   A    
Cu7   O34   S    
C92   H47   S    
C85   C94   A    
C69   O5    A    
Cu10  O46   S    
C57   H7    S    
C20   C35   A    
C82   H51   S    
C69   C128  S    
C2    C44   A    
C22   C25   A    
C6    O38   A    
C30   C41   A    
C102  O14   A    
C44   C65   A    
C118  H26   S    
C2    C45   A    
C24   C50   A    
C104  H20   S    
C66   H9    S    
C96   H42   S    
C34   C39   A    
C35   H5    S    
Cu7   O4    S    
Cu12  O43   S    
Cu1   Cu9   S    
C104  C112  A    
C1    O9    A    
Cu6   O23   S    
C4    O36   A    
C15   C67   A    
C51   C67   A    
C122  H30   S    
C7    O39   A    
C19   C28   A    
C116  C125  A    
C73   C152  S    
C7    C107  S    
C118  C127  A    
C122  C131  A    
C134  H33   S    
Cu1   O18   S    
C12   C70   A    
C32   C42   A    
C11   O43   A    
C108  C117  A    
C67   H10   S    
C110  C119  A    
C45   C54   A    
C22   H58   S    
C52   C147  S    
C99   C152  A    
C68   H11   S    
Cu3   O30   S    
C95   H43   S    
C14   C22   A    
C100  H17   S    
C81   C89   A    
C112  C121  A    
Cu6   O11   S    
C55   C148  S    
C101  C154  A    
Cu2   O32   S    
C55   C61   A    
Cu7   O13   S    
C107  C116  A    
C75   C89   A    
C142  O19   A    
C86   H55   S    
C51   C60   A    
C8    O33   A    
C136  H35   S    
C138  C155  A    
C4    O29   A    
C34   C37   A    
C24   C42   A    
C135  O17   A    
Cu3   O27   S    
Cu8   O14   S    
C13   C41   A    
Cu2   Cu12  S    
C97   H14   S    
C78   C90   A    
C4    C108  S    
C80   O11   A    
Cu5   O19   S    
C8    C112  S    
C7    O28   A    
C145  O12   A    
Cu10  O7    S    
Cu10  O25   S    
C103  C111  A    
C9    O41   A    
C69   O10   A    
C72   C81   A    
C56   C142  S    
Cu9   O6    S    
C80   C131  S    
C135  O3    A    
C143  O47   A    
C21   H59   S    
C130  C139  A    
C79   C88   A    
C98   C151  A    
Cu11  O8    S    
C61   H60   S    
C11   C111  S    
Cu7   Cu10  S    
C91   C130  S    
C54   C62   A    
C98   C107  A    
C64   H4    S    
C18   C57   A    
C63   H3    S    
Cu3   Cu4   S    
C113  C123  S    
C148  O34   A    
C1    O6    A    
C134  C152  A    
C53   C145  S    
C103  H19   S    
C48   C68   A    
C72   C93   A    
C103  C155  A    
C126  C135  S    
C49   C70   A    
C21   C23   A    
C65   H8    S    
C16   C66   A    
C73   C82   A    
Cu5   Cu8   S    
C46   C47   A    
C17   C65   A    
Cu2   O42   S    
C33   C41   A    
C11   O32   A    
Cu4   O28   S    
C36   C38   A    
C43   C146  A    
C5    C109  S    
C39   C146  A    
C137  C154  A    
C10   C110  S    
Cu6   O20   S    
C75   C84   A    
Cu5   O2    S    
C20   C36   A    
C10   O42   A    
C14   C68   A    
C73   C96   A    
C3    C78   S    
C149  O23   A    
C77   C92   A    
C8    O40   A    
C71   C94   A    
C83   C92   A    
C59   C64   A    
C88   H46   S    
C60   C63   A    
C17   C26   A    
C26   H34   S    
Cu3   O39   S    
C115  H22   S    
C129  C138  A    
C87   H57   S    
C31   C33   A    
C76   C88   A    
Cu1   O9    S    
C15   C23   A    
Cu8   O44   S    
Cu4   O37   S    
Cu11  O26   S    
C12   C32   A    
C27   H23   S    
C54   C149  S    
C20   C29   A    
C145  O22   A    
Cu7   O21   S    
Cu11  O47   S    
C43   C57   A    
C149  O26   A    
Cu11  O17   S    
C12   C21   A    
C132  H31   S    
C49   C58   A    
C74   C153  S    
C111  C120  A    
C128  C137  A    
C53   C62   A    
Cu2   O33   S    
C87   C96   A    
C141  O18   A    
C56   C63   A    
C17   C37   A    
C104  C156  A    
C50   C66   A    
C121  H29   S    
C99   H16   S    
Cu9   O15   S    
C59   C144  S    
C133  H32   S    
C93   H41   S    
C97   C106  A    
C101  H18   S    
C47   C55   A    
C125  C133  A    
C24   C49   A    
C48   C56   A    
Cu8   O5    S    
C74   C95   A    
C18   C27   A    
C19   C34   A    
C13   C48   A    
C26   C28   A    
C30   C32   A    
C83   H52   S    
C75   C154  S    
C139  C156  A    
C81   H50   S    
C9    O35   A    
C5    O30   A    
Cu12  O35   S    
C142  O44   A    
Cu6   Cu11  S    
C114  C122  A    
C148  O25   A    
C23   H56   S    
C117  C126  A    
C3    C140  A    
Cu9   O45   S    
