data_mof_unit_36681.cif
_audit_creation_date              2012-10-26T17:12:30-0400
_audit_creation_method            fapswitch 2.2
_symmetry_space_group_name_H-M    P1
_symmetry_Int_Tables_number       1
_space_group_crystal_system       triclinic
_cell_length_a                    16.779035
_cell_length_b                    16.796584
_cell_length_c                    16.796633
_cell_angle_alpha                 68.258456
_cell_angle_beta                  67.951658
_cell_angle_gamma                 67.951895
_cell_volume                      3918.93129809

loop_
_atom_site_label
_atom_site_type_symbol
_atom_type_description
_atom_site_fract_x
_atom_site_fract_y
_atom_site_fract_z
_atom_type_partial_charge
C1    C     C_R   0.023482 0.829247 0.566018 0.525732
C2    C     C_R   0.023480 0.566019 0.829248 0.525737
C3    C     C_R   0.171911 0.970232 0.435847 0.527799
C4    C     C_R   0.828116 0.029602 0.564180 0.524187
C5    C     C_R   0.454409 0.059651 0.707216 -0.057041
C6    C     C_R   0.546254 0.937923 0.293088 -0.057518
C7    C     C_R   0.070682 0.704123 0.454159 -0.059831
C8    C     C_R   0.948145 0.292355 0.543382 -0.057702
C9    C     C_R   0.706561 0.454700 0.060689 -0.057244
C10   C     C_R   0.293952 0.545497 0.937303 -0.057927
C11   C     C_R   0.293951 0.937311 0.545495 -0.057926
C12   C     C_R   0.971510 0.171823 0.435596 0.525412
C13   C     C_R   0.706558 0.060701 0.454700 -0.057243
C14   C     C_R   0.546256 0.293090 0.937910 -0.057516
C15   C     C_R   0.454411 0.707217 0.059645 -0.057038
C16   C     C_R   0.948170 0.543378 0.292353 -0.057706
C17   C     C_R   0.070662 0.454159 0.704126 -0.059843
C18   C     C_R   0.544755 0.017924 0.544722 -0.039896
C19   C     C_R   0.456270 0.979124 0.455845 -0.039847
C20   C     C_R   0.032462 0.540587 0.540589 -0.040341
C21   C     C_R   0.994052 0.451973 0.451977 -0.039713
C22   C     C_R   0.544758 0.544724 0.017912 -0.039895
C23   C     C_R   0.828116 0.564180 0.029601 0.524191
C24   C     C_R   0.456273 0.455848 0.979110 -0.039846
C25   C     C_R   0.586293 0.012719 0.455580 0.037068
C26   C     C_R   0.414874 0.983991 0.545045 0.037687
C27   C     C_R   0.028795 0.451557 0.581387 0.037658
C28   C     C_R   0.000576 0.540595 0.410281 0.036764
C29   C     C_R   0.455801 0.586354 0.012066 0.037006
C30   C     C_R   0.545348 0.414369 0.984526 0.037299
C31   C     C_R   0.545343 0.984542 0.414365 0.037300
C32   C     C_R   0.455798 0.012079 0.586350 0.037008
C33   C     C_R   0.414878 0.545048 0.983978 0.037687
C34   C     C_R   0.171911 0.435847 0.970232 0.527803
C35   C     C_R   0.586297 0.455583 0.012703 0.037067
C36   C     C_R   0.000557 0.410282 0.540603 0.036766
C37   C     C_R   0.028812 0.581380 0.451556 0.037663
C38   C     C_R   0.408284 0.046543 0.661387 0.277564
C39   C     C_R   0.592719 0.949949 0.339390 0.276454
C40   C     C_R   0.062933 0.656459 0.405914 0.278711
C41   C     C_R   0.964325 0.336878 0.588648 0.274711
C42   C     C_R   0.660710 0.408387 0.047834 0.276407
C43   C     C_R   0.340358 0.592033 0.949013 0.276627
C44   C     C_R   0.340354 0.949026 0.592030 0.276628
C45   C     C_R   0.564143 0.029469 0.828208 0.525800
C46   C     C_R   0.660705 0.047850 0.408385 0.276413
C47   C     C_R   0.592723 0.339395 0.949931 0.276459
C48   C     C_R   0.408286 0.661390 0.046531 0.277564
C49   C     C_R   0.964356 0.588640 0.336872 0.274693
C50   C     C_R   0.062907 0.405913 0.656467 0.278695
C51   C     C_R   0.548131 0.043234 0.678253 -0.033314
C52   C     C_R   0.452417 0.955025 0.321954 -0.032941
C53   C     C_R   0.047097 0.677064 0.548138 -0.036379
C54   C     C_R   0.963481 0.320728 0.450057 -0.033208
C55   C     C_R   0.677930 0.548280 0.043673 -0.033428
C56   C     C_R   0.435949 0.970277 0.171783 0.525369
C57   C     C_R   0.322507 0.451899 0.954819 -0.032659
C58   C     C_R   0.322506 0.954827 0.451898 -0.032659
C59   C     C_R   0.677929 0.043680 0.548279 -0.033429
C60   C     C_R   0.452418 0.321956 0.955016 -0.032942
C61   C     C_R   0.548133 0.678253 0.043229 -0.033315
C62   C     C_R   0.963489 0.450053 0.320730 -0.033208
C63   C     C_R   0.047088 0.548140 0.677065 -0.036374
C64   C     C_R   0.597990 0.046821 0.728889 -0.035903
C65   C     C_R   0.402219 0.952398 0.271126 -0.035731
C66   C     C_R   0.031255 0.732374 0.602744 -0.030439
C67   C     C_R   0.435949 0.171783 0.970276 0.525367
C68   C     C_R   0.956545 0.270919 0.401244 -0.035395
C69   C     C_R   0.728609 0.598170 0.047066 -0.035665
C70   C     C_R   0.271513 0.401838 0.952329 -0.035843
C71   C     C_R   0.271513 0.952332 0.401838 -0.035844
C72   C     C_R   0.728609 0.047069 0.598170 -0.035667
C73   C     C_R   0.402220 0.271126 0.952394 -0.035732
C74   C     C_R   0.597990 0.728888 0.046820 -0.035904
C75   C     C_R   0.956548 0.401245 0.270920 -0.035393
C76   C     C_R   0.031252 0.602745 0.732375 -0.030438
C77   C     C_R   0.684885 0.057643 0.685174 -0.053787
C78   C     C_R   0.564143 0.828207 0.029469 0.525801
C79   C     C_R   0.315140 0.941969 0.314737 -0.055351
C80   C     C_R   0.011456 0.695996 0.695996 -0.053031
C81   C     C_R   0.944936 0.314848 0.314848 -0.054742
C82   C     C_R   0.684886 0.685174 0.057643 -0.053786
C83   C     C_R   0.315139 0.314736 0.941967 -0.055348
C84   C     C_R   0.590824 0.033831 0.590959 0.009506
C85   C     C_R   0.409872 0.964051 0.409372 0.009524
C86   C     C_R   0.041323 0.588933 0.588933 0.007388
C87   C     C_R   0.975112 0.406891 0.406895 0.009637
C88   C     C_R   0.590825 0.590960 0.033823 0.009506
C89   C     C_R   0.971510 0.435597 0.171823 0.525417
C90   C     C_R   0.409875 0.409374 0.964040 0.009524
C91   C     C_1   0.725490 0.089353 0.725994 0.256086
C92   C     C_1   0.274297 0.910687 0.273765 0.252570
C93   C     C_1   0.959753 0.754559 0.754558 0.273679
C94   C     C_1   0.911157 0.275109 0.275110 0.252361
C95   C     C_1   0.725488 0.725992 0.089356 0.256084
C96   C     C_1   0.274296 0.273764 0.910687 0.252572
Cl1   Cl    Cl    0.291597 0.095952 0.687120 -0.416471
Cl2   Cl    Cl    0.291599 0.687126 0.095937 -0.416454
Cl3   Cl    Cl    0.915171 0.705159 0.312901 -0.423826
Cl4   Cl    Cl    0.114969 0.290203 0.681633 -0.420612
Cl5   Cl    Cl    0.709244 0.899000 0.314594 -0.425820
Cl6   Cl    Cl    0.115018 0.681612 0.290212 -0.420631
Cl7   Cl    Cl    0.915117 0.312926 0.705162 -0.423814
Cl8   Cl    Cl    0.685145 0.292343 0.098411 -0.422179
Cl9   Cl    Cl    0.316540 0.707794 0.897229 -0.428024
Cl10  Cl    Cl    0.316533 0.897246 0.707791 -0.428020
Cl11  Cl    Cl    0.685137 0.098435 0.292344 -0.422186
Cl12  Cl    Cl    0.709245 0.314605 0.898972 -0.425800
Cu1   Cu    Cu3+1 0.995180 0.995180 0.424630 1.096709
Cu2   Cu    Cu3+1 0.004820 0.004820 0.575370 1.095261
Cu3   Cu    Cu3+1 0.995180 0.424630 0.995180 1.096701
Cu4   Cu    Cu3+1 0.004820 0.575370 0.004820 1.095258
Cu5   Cu    Cu3+1 0.424630 0.995180 0.995180 1.095652
Cu6   Cu    Cu3+1 0.575370 0.004820 0.004820 1.100807
H1    H     H_    0.414572 0.091428 0.760352 0.182002
H2    H     H_    0.414573 0.760351 0.091424 0.182005
H3    H     H_    0.914334 0.583821 0.241257 0.183215
H4    H     H_    0.099834 0.416592 0.759026 0.180937
H5    H     H_    0.585769 0.906508 0.239627 0.180709
H6    H     H_    0.099861 0.759017 0.416595 0.180926
H7    H     H_    0.914303 0.241263 0.583821 0.183200
H8    H     H_    0.759374 0.415313 0.092686 0.181606
H9    H     H_    0.240767 0.584632 0.905760 0.177641
H10   H     H_    0.240767 0.905765 0.584631 0.177642
H11   H     H_    0.759373 0.092698 0.415314 0.181601
H12   H     H_    0.585769 0.239628 0.906495 0.180704
N1    N     N_1   0.757644 0.115055 0.758326 -0.202060
N2    N     N_1   0.241962 0.885301 0.241322 -0.201191
N3    N     N_1   0.918250 0.801076 0.801074 -0.223518
N4    N     N_1   0.883735 0.243674 0.243677 -0.204141
N5    N     N_1   0.757640 0.758322 0.115063 -0.202067
N6    N     N_1   0.241960 0.241321 0.885302 -0.201196
O1    O     O_R   0.124540 0.978640 0.385460 -0.491566
O2    O     O_R   0.124540 0.385460 0.978640 -0.491566
O3    O     O_R   0.021360 0.875460 0.614540 -0.495325
O4    O     O_R   0.978640 0.124540 0.385460 -0.491773
O5    O     O_R   0.013780 0.867370 0.487190 -0.511568
O6    O     O_R   0.986220 0.132630 0.512810 -0.512379
O7    O     O_R   0.867370 0.487190 0.013780 -0.511943
O8    O     O_R   0.132630 0.512810 0.986220 -0.509884
O9    O     O_R   0.487190 0.013780 0.867370 -0.511203
O10   O     O_R   0.512810 0.986220 0.132630 -0.510591
O11   O     O_R   0.512810 0.132630 0.986220 -0.510588
O12   O     O_R   0.875460 0.021360 0.614540 -0.489357
O13   O     O_R   0.487190 0.867370 0.013780 -0.511203
O14   O     O_R   0.986220 0.512810 0.132630 -0.512386
O15   O     O_R   0.013780 0.487190 0.867370 -0.511580
O16   O     O_R   0.132630 0.986220 0.512810 -0.509886
O17   O     O_R   0.867370 0.013780 0.487190 -0.511939
O18   O     O_R   0.978640 0.385460 0.124540 -0.491771
O19   O     O_R   0.021360 0.614540 0.875460 -0.495326
O20   O     O_R   0.385460 0.124540 0.978640 -0.492741
O21   O     O_R   0.614540 0.875460 0.021360 -0.490456
O22   O     O_R   0.614540 0.021360 0.875460 -0.490458
O23   O     O_R   0.385460 0.978640 0.124540 -0.492738
O24   O     O_R   0.875460 0.614540 0.021360 -0.489357

loop_
_geom_bond_atom_site_label_1
_geom_bond_atom_site_label_2
_ccdc_geom_bond_type
C25   C31   A    
C95   N5    T    
C21   C87   A    
C26   C32   A    
C65   C79   A    
C22   C29   A    
C64   C77   A    
C23   C69   S    
Cu1   O17   S    
C11   H10   S    
C19   C31   A    
C71   C79   A    
Cu2   O3    S    
Cu3   O7    S    
C66   C80   A    
C21   C36   A    
C8    C41   A    
C4    O17   A    
C12   C68   S    
C9    C42   A    
C94   N4    T    
C91   N1    T    
C30   C35   A    
C68   C81   A    
Cu6   O10   S    
C23   O7    A    
C52   C85   A    
C74   C82   A    
C37   C40   A    
C56   O23   A    
C54   C87   A    
C1    O5    A    
C93   N3    T    
C58   C71   A    
C54   C68   A    
C63   C76   A    
C34   O2    A    
C56   C65   S    
C29   C33   A    
C60   C73   A    
Cu1   O5    S    
C43   Cl9   S    
Cu5   O13   S    
C55   C88   A    
C35   C42   A    
C19   C26   A    
Cu4   O8    S    
C69   C82   A    
C78   O13   A    
Cu3   Cu4   S    
C31   C39   A    
C20   C86   A    
C18   C84   A    
C7    C40   A    
C53   C86   A    
C9    C55   A    
C32   C38   A    
C57   C70   A    
C11   C58   A    
C34   C70   S    
Cu6   O21   S    
C27   C50   A    
C59   C72   A    
C96   N6    T    
C20   C37   A    
C13   H11   S    
C67   O20   A    
C67   O11   A    
C3    O16   A    
C5    C38   A    
C5    H1    S    
Cu1   O4    S    
C45   O9    A    
Cu5   O20   S    
C9    H8    S    
C36   C41   A    
C18   C25   A    
C16   C62   A    
C15   C48   A    
Cu5   O23   S    
C38   Cl1   S    
Cu2   O16   S    
C92   N2    T    
C39   Cl5   S    
Cu3   O18   S    
C89   O14   A    
C57   C90   A    
C29   C48   A    
C26   C44   A    
C33   C43   A    
C30   C47   A    
Cu2   O6    S    
C10   C57   A    
C16   C49   A    
C10   H9    S    
C60   C90   A    
C8    C54   A    
C75   C81   A    
C2    O15   A    
Cu1   O1    S    
C41   Cl7   S    
C42   Cl8   S    
C3    O1    A    
C3    C71   S    
C72   C77   A    
C70   C83   A    
C61   C88   A    
Cu3   O15   S    
C49   Cl3   S    
C28   C49   A    
C46   Cl11  S    
C1    C66   S    
C15   C61   A    
Cu4   O19   S    
C11   C44   A    
Cu3   O2    S    
C59   C84   A    
Cu2   O12   S    
C53   C66   A    
C79   C92   S    
C55   C69   A    
C17   H4    S    
C67   C73   S    
C89   O18   A    
C21   C28   A    
C22   C88   A    
C63   C86   A    
Cu4   O24   S    
C61   C74   A    
C12   O6    A    
C62   C75   A    
C18   C32   A    
C7    C53   A    
C58   C85   A    
C6    H5    S    
C4    C72   S    
C2    C76   S    
Cu5   Cu6   S    
C2    O19   A    
C77   C91   S    
C82   C95   S    
C10   C43   A    
C6    C39   A    
C7    H6    S    
C51   C64   A    
C76   C80   A    
C19   C85   A    
C24   C90   A    
C17   C50   A    
C4    O12   A    
C78   O21   A    
C14   C47   A    
C13   C59   A    
C20   C27   A    
C44   Cl10  S    
C27   C36   A    
C14   C60   A    
C62   C87   A    
C45   C64   S    
C50   Cl4   S    
C24   C33   A    
C14   H12   S    
Cu6   O11   S    
C22   C35   A    
C56   O10   A    
C16   H3    S    
C17   C63   A    
C81   C94   S    
C13   C46   A    
C28   C37   A    
C83   C96   S    
C51   C84   A    
C34   O8    A    
Cu4   O14   S    
C48   Cl2   S    
Cu5   O9    S    
Cu6   O22   S    
C8    H7    S    
C24   C30   A    
C75   C89   S    
C40   Cl6   S    
C23   O24   A    
C47   Cl12  S    
C74   C78   S    
C12   O4    A    
Cu1   Cu2   S    
C15   H2    S    
C5    C51   A    
C45   O22   A    
C6    C52   A    
C80   C93   S    
C1    O3    A    
C25   C46   A    
C73   C83   A    
C52   C65   A    
