data_mof_unit_11896.cif
_audit_creation_date              2012-10-26T18:26:31-0400
_audit_creation_method            fapswitch 2.2
_symmetry_space_group_name_H-M    P1
_symmetry_Int_Tables_number       1
_space_group_crystal_system       triclinic
_cell_length_a                    15.829805
_cell_length_b                    8.762832
_cell_length_c                    7.504832
_cell_angle_alpha                 103.10075
_cell_angle_beta                  94.77906
_cell_angle_gamma                 93.313632
_cell_volume                      1007.24619681

loop_
_atom_site_label
_atom_site_type_symbol
_atom_type_description
_atom_site_fract_x
_atom_site_fract_y
_atom_site_fract_z
_atom_type_partial_charge
C1    C     C_R   0.496107 0.200487 0.454071 0.535530
C2    C     C_3   0.979079 0.646454 0.551963 0.017987
C3    C     C_1   0.250523 0.499974 0.503981 0.013147
C4    C     C_1   0.749477 0.500026 0.496019 0.013147
C5    C     C_3   0.036177 0.564554 0.672194 -0.117597
C6    C     C_3   0.963823 0.435445 0.327806 -0.117597
C7    C     C_3   0.083211 0.500244 0.502562 0.021343
C8    C     C_3   0.916788 0.499756 0.497438 0.021343
C9    C     C_1   0.174956 0.500171 0.504275 -0.027490
C10   C     C_1   0.825044 0.499829 0.495725 -0.027490
C11   C     C_1   0.044820 0.191663 0.390786 0.229422
C12   C     C_R   0.503893 0.799513 0.545929 0.535530
C13   C     C_1   0.955180 0.808337 0.609214 0.229422
C14   C     C_1   0.429851 0.949269 0.270089 0.241065
C15   C     C_1   0.570149 0.050731 0.729910 0.241065
C16   C     C_1   0.415640 0.348259 0.928168 0.459939
C17   C     C_1   0.584360 0.651741 0.071832 0.459938
C18   C     C_R   0.340073 0.499630 0.501248 0.554725
C19   C     C_R   0.659927 0.500370 0.498752 0.554725
C20   C     C_2   0.484276 0.033854 0.432707 -0.055914
C21   C     C_2   0.515724 0.966146 0.567293 -0.055914
C22   C     C_3   0.972722 0.415478 0.616815 -0.113483
C23   C     C_3   0.027278 0.584522 0.383185 -0.113483
C24   C     C_3   0.020921 0.353546 0.448037 0.017987
Cu1   Cu    Cu3+1 0.509330 0.517380 0.684380 1.035547
Cu2   Cu    Cu3+1 0.490670 0.482620 0.315620 1.035547
H1    H     H_    0.949337 0.345139 0.711137 0.137791
H2    H     H_    0.050663 0.654861 0.288863 0.137791
H3    H     H_    0.933251 0.381496 0.187238 0.129451
H4    H     H_    0.066749 0.618504 0.812762 0.129451
N1    N     N_2   0.476600 0.456420 0.038510 -0.197005
N2    N     N_2   0.523400 0.543580 0.961490 -0.197005
N3    N     N_1   0.063690 0.064012 0.345630 -0.279608
N4    N     N_1   0.936310 0.935988 0.654370 -0.279608
N5    N     N_1   0.386585 0.882562 0.140619 -0.257532
N6    N     N_1   0.613415 0.117438 0.859380 -0.257532
N7    N     N_1   0.364399 0.257210 0.838119 -0.311005
N8    N     N_1   0.635600 0.742789 0.161881 -0.311005
O1    O     O_R   0.506070 0.286130 0.619780 -0.510346
O2    O     O_R   0.493930 0.713870 0.380220 -0.510346
O3    O     O_R   0.490300 0.256770 0.308360 -0.499003
O4    O     O_R   0.509700 0.743230 0.691640 -0.499003
O5    O     O_R   0.386960 0.514660 0.655680 -0.500880
O6    O     O_R   0.613040 0.485340 0.344320 -0.500880
O7    O     O_R   0.371190 0.485310 0.344260 -0.506084
O8    O     O_R   0.628810 0.514690 0.655740 -0.506084

loop_
_geom_bond_atom_site_label_1
_geom_bond_atom_site_label_2
_ccdc_geom_bond_type
Cu1   O4    S    
C12   O2    A    
C8    C22   S    
C3    C9    T    
C15   N6    T    
N1    N2    D    
C15   C21   S    
C16   N7    T    
C22   H1    S    
C6    C24   S    
Cu1   O5    S    
Cu1   N2    S    
C19   O8    A    
Cu2   O6    S    
C13   N4    T    
C18   O5    A    
Cu1   O1    S    
C16   N1    S    
Cu2   O2    S    
C7    C23   S    
C6    C23   S    
C6    C8    S    
C1    O3    A    
C17   N8    T    
C19   O6    A    
C17   N2    S    
C22   C24   S    
C2    C5    S    
C1    O1    A    
C4    C10   T    
C7    C24   S    
C12   C21   S    
C18   O7    A    
C14   C20   S    
C11   C24   S    
C11   N3    T    
C6    H3    S    
C20   C21   D    
C3    C18   S    
C5    C7    S    
C5    H4    S    
C2    C23   S    
C7    C9    S    
C2    C13   S    
C1    C20   S    
C12   O4    A    
Cu2   O7    S    
Cu1   Cu2   S    
C23   H2    S    
C4    C19   S    
Cu2   N1    S    
Cu1   O8    S    
C14   N5    T    
C8    C10   S    
C2    C8    S    
C5    C22   S    
Cu2   O3    S    
