data_mof_unit_8157.cif
_audit_creation_date              2012-12-11T17:12:46-0500
_audit_creation_method            fapswitch 2.2
_symmetry_space_group_name_H-M    P1
_symmetry_Int_Tables_number       1
_space_group_crystal_system       triclinic
_cell_length_a                    17.240557
_cell_length_b                    6.891737
_cell_length_c                    14.378948
_cell_angle_alpha                 90.008197
_cell_angle_beta                  110.154765
_cell_angle_gamma                 89.992356
_cell_volume                      1603.85145873

loop_
_atom_site_label
_atom_site_type_symbol
_atom_type_description
_atom_site_fract_x
_atom_site_fract_y
_atom_site_fract_z
_atom_type_partial_charge
O1    O     O_R   0.314130 0.635770 0.168990 -0.533845
O2    O     O_R   0.685870 0.364230 0.831010 -0.533847
O3    O     O_R   0.185870 0.135770 0.331010 -0.533956
O4    O     O_R   0.814130 0.864230 0.668990 -0.533938
O5    O     O_R   0.146800 0.302460 0.139760 -0.538450
O6    O     O_R   0.853200 0.697540 0.860240 -0.538433
O7    O     O_R   0.353200 0.802460 0.360240 -0.538451
O8    O     O_R   0.646800 0.197540 0.639760 -0.538456
C1    C     C_R   0.114024 0.475828 0.112809 0.723517
C2    C     C_R   0.885976 0.524171 0.887191 0.723538
C3    C     C_R   0.385977 0.975824 0.387189 0.723746
C4    C     C_R   0.614023 0.024176 0.612811 0.723728
O9    O     O_R   0.311100 0.305780 0.157130 -0.543189
O10   O     O_R   0.688900 0.694220 0.842870 -0.543178
O11   O     O_R   0.188900 0.805780 0.342870 -0.543035
O12   O     O_R   0.811100 0.194220 0.657130 -0.543058
O13   O     O_R   0.351340 0.139640 0.348510 -0.536561
O14   O     O_R   0.648660 0.860360 0.651490 -0.536563
O15   O     O_R   0.148660 0.639640 0.151490 -0.536598
O16   O     O_R   0.851340 0.360360 0.848510 -0.536608
C5    C     C_R   0.332815 0.474479 0.136221 0.688251
C6    C     C_R   0.667182 0.525522 0.863775 0.688275
C7    C     C_R   0.167148 0.974513 0.363727 0.688421
C8    C     C_R   0.832850 0.025488 0.636271 0.688411
C9    C     C_1   0.533582 0.008923 0.533053 -0.150780
C10   C     C_1   0.466418 0.991077 0.466947 -0.150778
C11   C     C_1   0.966418 0.508921 0.966947 -0.150989
C12   C     C_1   0.033582 0.491079 0.033052 -0.150992
O17   O     O_3   0.263010 0.470920 0.312770 -0.367238
O18   O     O_3   0.736990 0.529080 0.687230 -0.367246
O19   O     O_3   0.236990 0.970920 0.187230 -0.367278
O20   O     O_3   0.763010 0.029080 0.812770 -0.367270
V1    V     V_3+5 0.247590 0.194450 0.238360 1.467511
V2    V     V_3+5 0.752410 0.805550 0.761640 1.467567
V3    V     V_3+5 0.252410 0.694450 0.261640 1.467577
V4    V     V_3+5 0.747590 0.305550 0.738360 1.467532
C13   C     C_R   0.116556 0.980803 0.428269 -0.282732
C14   C     C_R   0.883445 0.019197 0.571730 -0.282724
C15   C     C_R   0.383424 0.480589 0.071689 -0.282509
C16   C     C_R   0.616575 0.519411 0.928311 -0.282516
C17   C     C_R   0.896556 0.075850 0.410541 0.473067
C18   C     C_R   0.103439 0.924099 0.589454 0.472979
C19   C     C_R   0.603021 0.579675 0.088996 0.471795
C20   C     C_R   0.396978 0.420362 0.911002 0.471890
C21   C     C_R   0.846368 0.058959 0.469569 -0.155113
C22   C     C_R   0.153631 0.941004 0.530428 -0.155126
C23   C     C_R   0.653379 0.562072 0.030204 -0.154966
C24   C     C_R   0.346623 0.437953 0.969795 -0.154935
C25   C     C_R   0.969911 0.986676 0.613502 0.350192
C26   C     C_R   0.030088 0.013320 0.386497 0.350211
C27   C     C_R   0.530273 0.484524 0.886690 0.350071
C28   C     C_R   0.469726 0.515502 0.113309 0.350069
C29   C     C_R   0.018226 0.975932 0.551007 -0.129133
C30   C     C_R   0.981771 0.024035 0.448989 -0.129101
C31   C     C_R   0.481936 0.474444 0.949170 -0.128829
C32   C     C_R   0.518063 0.525589 0.050828 -0.128837
O21   O     O_3   0.990311 0.026412 0.284820 -0.619371
H1    H     H_    0.027602 0.992427 0.248359 0.288454
O22   O     O_3   0.009688 0.973603 0.715179 -0.619386
H2    H     H_    0.972405 0.007695 0.751638 0.288447
O23   O     O_3   0.509368 0.531473 0.214899 -0.619607
H3    H     H_    0.472285 0.496897 0.251539 0.288596
O24   O     O_3   0.490629 0.468573 0.785100 -0.619586
H4    H     H_    0.527708 0.503190 0.748460 0.288589
C33   C     C_2   0.245079 0.910442 0.574719 0.569018
H5    H     H_    0.282788 0.901911 0.528151 -0.024118
O25   O     O_2   0.280295 0.898755 0.664159 -0.460786
C34   C     C_2   0.754924 0.089523 0.425272 0.568867
H6    H     H_    0.717238 0.098572 0.471853 -0.023978
O26   O     O_2   0.719685 0.100615 0.335815 -0.460819
C35   C     C_2   0.255310 0.405295 0.925544 0.568031
H7    H     H_    0.217542 0.397177 0.972054 -0.023056
O27   O     O_2   0.220247 0.391496 0.836160 -0.460313
C36   C     C_2   0.744697 0.594710 0.074444 0.568192
H8    H     H_    0.782496 0.602183 0.027953 -0.023229
O28   O     O_2   0.779732 0.609240 0.163802 -0.460270
O29   O     O_3   0.861490 0.151904 0.316663 -0.553145
H9    H     H_    0.898020 0.258712 0.310590 0.333862
O30   O     O_3   0.138500 0.848052 0.683334 -0.553091
H10   H     H_    0.101965 0.741260 0.689409 0.333964
O31   O     O_3   0.637630 0.658563 0.182310 -0.552783
H11   H     H_    0.600532 0.764819 0.187563 0.334686
O32   O     O_3   0.362367 0.341441 0.817694 -0.552849
H12   H     H_    0.399474 0.235208 0.812441 0.334590

loop_
_geom_bond_atom_site_label_1
_geom_bond_atom_site_label_2
_ccdc_geom_bond_type
C2    C11   S    
C16   C23   A    
C31   C32   A    
O1    C5    A    
O3    C7    A    
C20   O32   S    
O31   H11   S    
C14   C25   A    
C29   C30   A    
O7    C3    A    
O5    C1    A    
C26   C30   A    
C36   O28   D    
O20   V4    S    
C28   O23   S    
C18   C29   A    
C17   O29   S    
O4    C8    A    
O3    V1    S    
O17   V1    S    
O8    V4    S    
C14   C21   A    
C1    O15   A    
C2    O16   A    
C34   H6    S    
C33   O25   D    
O5    V1    S    
O2    C6    A    
C8    C14   S    
O19   V1    S    
O29   H9    S    
O11   C7    A    
C15   C28   A    
O22   H2    S    
O12   C8    A    
O13   V1    S    
O11   V3    S    
O4    V2    S    
C36   H8    S    
O18   V2    S    
C27   O24   S    
C22   C33   S    
C35   O27   D    
C3    C10   S    
C9    C10   T    
C7    C13   S    
O30   H10   S    
O20   V2    S    
O9    V1    S    
O32   H12   S    
C5    C15   S    
O8    C4    A    
C6    C16   S    
C21   C34   S    
O9    C5    A    
O14   V2    S    
C18   C22   A    
C19   O31   S    
O19   V3    S    
C24   C35   S    
O1    V3    S    
O2    V4    S    
C3    O13   A    
C26   O21   S    
O7    V3    S    
C23   C36   S    
O10   V2    S    
O6    C2    A    
C16   C27   A    
O17   V3    S    
C25   O22   S    
O18   V4    S    
C4    C9    S    
O10   C6    A    
C35   H7    S    
O15   V3    S    
O12   V4    S    
C13   C26   A    
C20   C31   A    
O21   H1    S    
C28   C32   A    
C25   C29   A    
C27   C31   A    
O23   H3    S    
C17   C30   A    
O24   H4    S    
O16   V4    S    
O6    V2    S    
C19   C32   A    
C18   O30   S    
C34   O26   D    
C33   H5    S    
C4    O14   A    
C11   C12   T    
C17   C21   A    
C13   C22   A    
C19   C23   A    
C20   C24   A    
C1    C12   S    
C15   C24   A    
