data_mof_unit_10138.cif
_audit_creation_date              2013-03-05T15:58:57-0500
_audit_creation_method            fapswitch 2.2
_symmetry_space_group_name_H-M    P1
_symmetry_Int_Tables_number       1
_space_group_crystal_system       triclinic
_cell_length_a                    10.644315
_cell_length_b                    12.592682
_cell_length_c                    13.132427
_cell_angle_alpha                 82.346002
_cell_angle_beta                  90.385992
_cell_angle_gamma                 102.392521
_cell_volume                      1703.51094776

loop_
_atom_site_label
_atom_site_type_symbol
_atom_site_description
_atom_site_fract_x
_atom_site_fract_y
_atom_site_fract_z
_atom_type_partial_charge
O1    O     O_R   0.468120 0.366740 0.627160 -0.602264
O2    O     O_R   0.510770 0.544830 0.662520 -0.641577
C1    C     C_R   0.479859 0.438854 0.691161 0.872209
O3    O     O_R   0.663880 0.410950 0.482330 -0.630657
O4    O     O_R   0.706530 0.589040 0.517700 -0.618259
C2    C     C_R   0.741765 0.500495 0.500409 0.908691
Zn1   Zn    Zn3+2 0.471520 0.381090 0.476390 0.974221
Zn2   Zn    Zn3+2 0.528480 0.618910 0.523610 0.947057
O5    O     O_R   0.489230 0.455170 0.337480 -0.608474
O6    O     O_R   0.531880 0.633260 0.372840 -0.635858
O7    O     O_R   0.293470 0.410960 0.482300 -0.621393
O8    O     O_R   0.336120 0.589050 0.517670 -0.649266
C3    C     C_R   0.513197 0.561079 0.308754 0.946787
C4    C     C_R   0.258211 0.499610 0.500356 0.921445
C5    C     C_3   0.903017 0.406180 0.580750 -0.531468
H1    H     H_    0.849005 0.325677 0.561230 0.162828
H2    H     H_    0.866138 0.414338 0.657828 0.227104
C6    C     C_3   0.048242 0.406109 0.582600 0.141898
H3    H     H_    0.059293 0.325935 0.560704 0.116188
H4    H     H_    0.866685 0.399655 0.377155 0.103404
H5    H     H_    0.067426 0.388522 0.386850 0.090867
C7    C     C_3   0.921624 0.482361 0.390950 0.098309
C8    C     C_3   0.956835 0.610280 0.531777 -0.351597
C9    C     C_3   0.878386 0.501265 0.499827 -0.049783
H6    H     H_    0.935412 0.683990 0.484684 0.228205
H7    H     H_    0.930986 0.616402 0.612564 0.199130
C10   C     C_3   0.121622 0.499929 0.499925 -0.125009
C11   C     C_3   0.065692 0.475873 0.392628 0.052979
C12   C     C_3   0.099440 0.612922 0.524077 -0.334220
H8    H     H_    0.144976 0.634297 0.597168 0.214826
H9    H     H_    0.144778 0.681176 0.464802 0.229451
C13   C     C_R   0.413386 0.704565 0.063916 -0.127093
H10   H     H_    0.444526 0.748522 0.215677 0.158524
H11   H     H_    0.326701 0.705099 0.872797 0.158702
H12   H     H_    0.375487 0.776427 0.037219 0.147239
C14   C     C_R   0.502479 0.596670 0.200075 -0.027636
C15   C     C_R   0.492745 0.298642 0.838503 -0.170255
C16   C     C_R   0.501462 0.269082 0.943485 -0.110110
C17   C     C_R   0.489624 0.343012 0.010757 -0.134708
C18   C     C_R   0.462413 0.446589 0.973657 0.077802
C19   C     C_R   0.433181 0.468350 0.869334 0.083993
C20   C     C_R   0.463698 0.529536 0.036470 0.079582
C21   C     C_R   0.415214 0.623910 0.000031 0.157787
C22   C     C_R   0.368028 0.635518 0.900994 -0.217661
C23   C     C_R   0.377099 0.558866 0.836175 -0.104363
C24   C     C_R   0.515122 0.522209 0.133978 -0.180013
C25   C     C_R   0.455185 0.690114 0.164628 -0.112726
C26   C     C_R   0.462932 0.399671 0.800739 -0.061434
H13   H     H_    0.561908 0.456400 0.162116 0.171163
H14   H     H_    0.513087 0.243929 0.786769 0.151509
H15   H     H_    0.498992 0.315967 0.091389 0.143396
H16   H     H_    0.522932 0.190503 0.972586 0.153776
H17   H     H_    0.338352 0.570742 0.760194 0.196956
C27   C     C_R   0.310989 0.087137 0.352295 0.348348
H18   H     H_    0.296743 0.255907 0.335010 0.177808
H19   H     H_    0.293504 0.877208 0.315875 0.202992
N1    N     N_R   0.433240 0.222190 0.444680 -0.141801
C28   C     C_R   0.652018 0.799861 0.629815 0.017605
C29   C     C_R   0.681590 0.904198 0.658913 -0.238065
C30   C     C_R   0.622334 0.985097 0.610537 -0.193402
C31   C     C_R   0.533015 0.961838 0.531890 0.052252
C32   C     C_R   0.506602 0.854179 0.505222 0.228829
C33   C     C_R   0.469072 0.040517 0.479101 -0.043656
C34   C     C_R   0.376965 0.009397 0.403004 0.041480
C35   C     C_R   0.356488 0.903112 0.377005 -0.264201
C36   C     C_R   0.419994 0.827414 0.427484 -0.208514
C37   C     C_R   0.494342 0.150047 0.497904 -0.076122
C38   C     C_R   0.344220 0.194368 0.373515 -0.009958
N2    N     N_R   0.566070 0.776970 0.554790 -0.135339
H20   H     H_    0.562702 0.181351 0.553167 0.135774
H21   H     H_    0.697091 0.736350 0.667435 0.142722
H22   H     H_    0.647865 0.064188 0.636896 0.137711
H23   H     H_    0.749750 0.922241 0.719094 0.165421
H24   H     H_    0.399644 0.748126 0.403412 0.228085
N3    N     N_R   0.890482 0.561791 0.306998 0.247479
O9    O     O_R   0.818111 0.526312 0.233080 -0.399061
O10   O     O_R   0.931166 0.667047 0.305525 -0.349433
N4    N     N_R   0.142682 0.541401 0.304019 0.244210
O11   O     O_R   0.182690 0.491433 0.234134 -0.379193
O12   O     O_R   0.176593 0.647778 0.295416 -0.401871
O13   O     O_3   0.215261 0.062754 0.282418 -0.747044
H25   H     H_    0.165290 0.987344 0.303957 0.348517
N5    N     N_R   0.099628 0.413566 0.686252 0.212462
O14   O     O_R   0.158403 0.339039 0.728866 -0.399442
O15   O     O_R   0.077035 0.487229 0.740253 -0.414804

loop_
_geom_bond_atom_site_label_1
_geom_bond_atom_site_label_2
_geom_bond_distance
_ccdc_geom_bond_type
C5    C6    1.546038 S    
C17   H15   1.079011 S    
C10   C12   1.564098 S    
C21   C22   1.391853 A    
H18   C38   1.082536 S    
Zn1   O7    2.013728 S    
C24   H13   1.079081 S    
Zn2   N2    2.040226 S    
C15   C16   1.387189 A    
C8    C12   1.514900 S    
O4    C2    1.297523 A    
O7    C4    1.301856 A    
N4    O12   1.300072 A    
C28   H21   1.081740 S    
C16   H16   1.082854 S    
C30   H22   1.077046 S    
C5    H1    1.114001 S    
C36   H24   1.064936 S    
C1    C26   1.457019 S    
C14   C25   1.399984 A    
C5    H2    1.113387 S    
C6    H3    1.115605 S    
C20   C24   1.388744 A    
C8    H7    1.114470 S    
C31   C33   1.423235 A    
O5    C3    1.306652 A    
C13   C21   1.404102 A    
C8    C9    1.553885 S    
C14   C24   1.386843 A    
C4    C10   1.454736 S    
C11   N4    1.474248 S    
C29   H23   1.082577 S    
C18   C20   1.412407 A    
C23   H17   1.081331 S    
C29   C30   1.391862 A    
C7    C11   1.552936 S    
C7    N3    1.472923 S    
N1    C37   1.347296 A    
O3    Zn1   2.003771 S    
O13   H25   0.989134 S    
C33   C37   1.402253 A    
C32   C36   1.396891 A    
C13   H12   1.083899 S    
H11   C22   1.084070 S    
C3    C14   1.449204 S    
O3    C2    1.297151 A    
C17   C18   1.418978 A    
N4    O11   1.301426 A    
C28   C29   1.387794 A    
C32   N2    1.363728 A    
C30   C31   1.415711 A    
O1    C1    1.303798 A    
N3    O9    1.301181 A    
C12   H8    1.111426 S    
N5    O14   1.301059 A    
Zn2   O8    2.003771 S    
C2    C9    1.452261 S    
C6    N5    1.470658 S    
C15   C26   1.402965 A    
N3    O10   1.300638 A    
C18   C19   1.407013 A    
N5    O15   1.301729 A    
H5    C11   1.116716 S    
O8    C4    1.293343 A    
H10   C25   1.082354 S    
C13   C25   1.393928 A    
C7    C9    1.568261 S    
C20   C21   1.419892 A    
N1    C38   1.351600 A    
C22   C23   1.387654 A    
Zn1   O5    1.925983 S    
C5    C9    1.556866 S    
O1    Zn1   1.963956 S    
O2    Zn2   1.925983 S    
C6    C10   1.567909 S    
H4    C7    1.116657 S    
O6    C3    1.303061 A    
O4    Zn2   2.013729 S    
C28   N2    1.356880 A    
C37   H20   1.075898 S    
C34   C35   1.396761 A    
O2    C1    1.307734 A    
C12   H9    1.107422 S    
C15   H14   1.083459 S    
C16   C17   1.390682 A    
C27   C34   1.417788 A    
C19   C26   1.410197 A    
C8    H6    1.109985 S    
C31   C32   1.414638 A    
C33   C34   1.428174 A    
C27   C38   1.385669 A    
Zn2   O6    1.963954 S    
C35   C36   1.381034 A    
C10   C11   1.567370 S    
C19   C23   1.414764 A    
Zn1   N1    2.052579 S    
C27   O13   1.379416 S    
H19   C35   1.081198 S    
