data_mof_unit_23085.cif
_audit_creation_date              2012-12-11T16:20:30-0500
_audit_creation_method            fapswitch 2.2
_symmetry_space_group_name_H-M    P1
_symmetry_Int_Tables_number       1
_space_group_crystal_system       triclinic
_cell_length_a                    6.92079
_cell_length_b                    34.367649
_cell_length_c                    38.322547
_cell_angle_alpha                 99.611393
_cell_angle_beta                  89.685849
_cell_angle_gamma                 90.407709
_cell_volume                      8986.80461247

loop_
_atom_site_label
_atom_site_type_symbol
_atom_type_description
_atom_site_fract_x
_atom_site_fract_y
_atom_site_fract_z
_atom_type_partial_charge
O1    O     O_R   0.494320 0.461440 0.460990 -0.544352
O2    O     O_R   0.821450 0.462560 0.532500 -0.541228
O3    O     O_R   0.994330 0.538560 0.539010 -0.542660
C1    C     C_R   0.651876 0.453889 0.543787 0.704981
O4    O     O_R   0.823870 0.456770 0.460860 -0.525087
O5    O     O_R   0.996760 0.532730 0.466860 -0.519835
C2    C     C_R   0.654957 0.446147 0.447859 0.764392
O6    O     O_R   0.491880 0.467270 0.533140 -0.543722
O7    O     O_3   0.661650 0.524930 0.502050 -0.371221
V1    V     V_3+5 0.935500 0.495380 0.499620 1.467612
O8    O     O_R   0.326630 0.537440 0.467500 -0.547772
C3    C     C_R   0.158551 0.544976 0.455211 0.751754
O9    O     O_R   0.324210 0.543230 0.539140 -0.543288
C4    C     C_R   0.155296 0.553903 0.552102 0.695185
V2    V     V_3+5 0.435810 0.504620 0.500380 1.427452
O10   O     O_3   0.159790 0.475070 0.497950 -0.368904
C5    C     C_R   0.204140 0.825139 0.803037 0.592984
N1    N     N_R   0.046758 0.824812 0.824892 -0.538567
C6    C     C_R   0.904273 0.796989 0.817327 0.611570
C7    C     C_R   0.917903 0.767603 0.787155 0.022937
C8    C     C_R   0.076940 0.767663 0.763785 0.011183
C9    C     C_R   0.219923 0.797475 0.770906 -0.111160
C10   C     C_R   0.774690 0.738312 0.779901 -0.127577
C11   C     C_R   0.789818 0.708815 0.750417 -0.121460
C12   C     C_R   0.947364 0.708033 0.727071 0.021629
C13   C     C_R   0.090792 0.737862 0.733319 0.012992
C14   C     C_R   0.245585 0.737867 0.709086 -0.110067
C15   C     C_R   0.384537 0.769132 0.715124 -0.061431
C16   C     C_R   0.372032 0.798687 0.745857 -0.055066
C17   C     C_R   0.962899 0.677992 0.697454 0.592374
N2    N     N_R   0.113888 0.677640 0.674157 -0.547192
C18   C     C_R   0.253908 0.706552 0.679412 0.572285
O11   O     O_2   0.345120 0.851976 0.812762 -0.530553
O12   O     O_2   0.750696 0.797406 0.839239 -0.531963
H1    H     H_    0.650393 0.737901 0.797142 0.160194
H2    H     H_    0.676510 0.686664 0.745914 0.161157
O13   O     O_2   0.828762 0.648919 0.692311 -0.532256
O14   O     O_2   0.400367 0.704816 0.655888 -0.533875
C19   C     C_R   0.969463 0.639425 0.619626 -0.083099
H3    H     H_    0.840911 0.657413 0.623857 0.160337
C20   C     C_R   0.978698 0.609191 0.590212 -0.207271
H4    H     H_    0.856170 0.604387 0.572515 0.136265
C21   C     C_R   0.145442 0.585928 0.583371 -0.054373
C22   C     C_R   0.301759 0.593313 0.606917 -0.201800
H5    H     H_    0.431600 0.575721 0.602552 0.134680
C23   C     C_R   0.290504 0.622893 0.636839 -0.082449
H6    H     H_    0.411241 0.627371 0.654952 0.165181
C24   C     C_R   0.124713 0.646514 0.643447 0.356378
C25   C     C_R   0.161331 0.854612 0.884483 -0.196123
H7    H     H_    0.265408 0.831030 0.882748 0.144215
C26   C     C_R   0.154789 0.884614 0.914675 0.371960
C27   C     C_R   0.009753 0.913702 0.917074 -0.126876
C28   C     C_R   0.876510 0.912527 0.889368 -0.310887
H8    H     H_    0.764874 0.934678 0.890802 0.151109
C29   C     C_R   0.888187 0.883356 0.859254 -0.083439
H9    H     H_    0.786128 0.883400 0.837943 0.176399
C30   C     C_R   0.031613 0.854395 0.856434 0.314177
C31   C     C_R   0.071434 0.866313 0.180891 0.689322
O15   O     O_2   0.088380 0.905894 0.188766 -0.495431
N3    N     N_R   0.045820 0.849612 0.146331 -0.545803
C32   C     C_R   0.051520 0.809709 0.135841 0.634868
C33   C     C_R   0.185102 0.880225 0.098456 -0.128483
C34   C     C_R   0.175610 0.905845 0.073850 -0.192473
C35   C     C_R   0.843226 0.920574 0.090743 -0.274330
C36   C     C_R   0.851512 0.895149 0.115947 0.022879
C37   C     C_R   0.025720 0.874865 0.119943 0.377461
C38   C     C_R   0.089650 0.800830 0.197443 -0.070534
C39   C     C_R   0.086810 0.842457 0.207668 -0.100328
C40   C     C_R   0.114648 0.858688 0.243825 -0.104603
C41   C     C_R   0.075751 0.784127 0.160959 -0.037483
C42   C     C_R   0.004699 0.926327 0.069695 -0.036541
H10   H     H_    0.710492 0.936236 0.087755 0.123161
C43   C     C_R   0.151197 0.571141 0.427791 -0.075659
C44   C     C_R   0.135029 0.766943 0.286029 0.069556
C45   C     C_R   0.102707 0.708712 0.238972 -0.077734
C46   C     C_R   0.124268 0.725291 0.275278 0.015192
C47   C     C_R   0.134420 0.781460 0.322941 -0.176738
C48   C     C_R   0.144725 0.756518 0.347913 -0.163574
C49   C     C_R   0.145361 0.715686 0.337507 -0.006973
C50   C     C_R   0.130154 0.699943 0.301287 -0.049806
C51   C     C_R   0.117738 0.658780 0.291236 -0.103546
C52   C     C_R   0.129259 0.634176 0.317095 0.597586
N4    N     N_R   0.144788 0.650056 0.352255 -0.553910
C53   C     C_R   0.152127 0.690162 0.362743 0.569558
C54   C     C_R   0.303770 0.623448 0.400930 -0.088976
C55   C     C_R   0.305857 0.597539 0.425463 -0.239315
C56   C     C_R   0.992895 0.571057 0.404116 -0.049907
C57   C     C_R   0.989693 0.598452 0.380730 -0.164139
C58   C     C_R   0.145467 0.624202 0.378442 0.373304
O16   O     O_2   0.162824 0.705403 0.397490 -0.524155
C59   C     C_R   0.132854 0.792431 0.259879 -0.057165
C60   C     C_R   0.107730 0.775809 0.223650 0.023021
C61   C     C_R   0.109744 0.734228 0.213109 0.060569
C62   C     C_R   0.161894 0.834036 0.268201 0.290615
H11   H     H_    0.429398 0.598301 0.442798 0.137093
H12   H     H_    0.426144 0.642893 0.399335 0.133358
H13   H     H_    0.146968 0.769559 0.375678 0.171730
H14   H     H_    0.117289 0.812019 0.334005 0.189669
O17   O     O_2   0.036362 0.795269 0.101049 -0.491687
C63   C     C_R   0.098577 0.742778 0.150982 -0.040968
H15   H     H_    0.302107 0.909408 0.057883 0.137508
H16   H     H_    0.317905 0.864553 0.101067 0.133581
C64   C     C_R   0.064322 0.667167 0.230395 0.378398
C65   C     C_R   0.084642 0.642957 0.255883 -0.194956
O18   O     O_2   0.125194 0.594618 0.307079 -0.517211
C66   C     C_R   0.128490 0.719427 0.176779 -0.236444
H17   H     H_    0.064545 0.611436 0.247850 0.187351
H18   H     H_    0.868316 0.598759 0.363006 0.126365
H19   H     H_    0.169698 0.689297 0.167518 0.171359
C67   C     C_R   0.601094 0.310210 0.636649 0.575815
O19   O     O_2   0.616396 0.295460 0.601859 -0.492708
N5    N     N_R   0.607002 0.350279 0.647372 -0.566468
C68   C     C_R   0.606448 0.366188 0.682580 0.560349
C69   C     C_R   0.783862 0.397794 0.617509 -0.015960
C70   C     C_R   0.797365 0.422484 0.592053 -0.151571
C71   C     C_R   0.469316 0.405256 0.573797 -0.178356
C72   C     C_R   0.455061 0.379788 0.598983 0.014699
C73   C     C_R   0.614465 0.376142 0.621196 0.285711
C74   C     C_R   0.587380 0.300351 0.698139 -0.094804
C75   C     C_R   0.581419 0.284449 0.661722 -0.153648
C76   C     C_R   0.552596 0.243417 0.651551 0.434321
C77   C     C_R   0.599479 0.341604 0.708510 -0.005753
C78   C     C_R   0.639881 0.426709 0.570078 -0.100424
H20   H     H_    0.347005 0.408352 0.556961 0.167786
C79   C     C_R   0.513634 0.073321 0.929757 -0.055926
C80   C     C_R   0.579739 0.208342 0.739412 0.059302
C81   C     C_R   0.563088 0.266503 0.786700 0.032183
C82   C     C_R   0.568298 0.224908 0.775888 0.067506
C83   C     C_R   0.597126 0.166857 0.730217 -0.179945
C84   C     C_R   0.593695 0.142479 0.755811 -0.129785
C85   C     C_R   0.573480 0.158345 0.791664 -0.033600
C86   C     C_R   0.561327 0.199572 0.801835 -0.047898
C87   C     C_R   0.541811 0.215393 0.838009 -0.036548
C88   C     C_R   0.532935 0.189826 0.863187 0.578506
N6    N     N_R   0.545031 0.149813 0.852725 -0.561006
C89   C     C_R   0.565827 0.133831 0.817707 0.574296
C90   C     C_R   0.701508 0.105718 0.888603 -0.087176
C91   C     C_R   0.691382 0.080640 0.913857 -0.193598
C92   C     C_R   0.346716 0.091955 0.919838 -0.193536
C93   C     C_R   0.357486 0.117208 0.894737 -0.086539
C94   C     C_R   0.534721 0.124153 0.878893 0.384316
O20   O     O_2   0.577413 0.094321 0.808052 -0.519895
C95   C     C_R   0.574593 0.233588 0.713444 -0.025839
C96   C     C_R   0.580037 0.275137 0.724205 0.063146
C97   C     C_R   0.578607 0.291752 0.760777 0.050534
C98   C     C_R   0.557890 0.218659 0.676928 -0.254796
H21   H     H_    0.822709 0.066780 0.920716 0.129249
H22   H     H_    0.839269 0.110863 0.876578 0.115903
H23   H     H_    0.606905 0.110931 0.747262 0.170255
H24   H     H_    0.618238 0.152204 0.703364 0.123808
H25   H     H_    0.538173 0.187661 0.667071 0.138755
O21   O     O_2   0.611991 0.405743 0.692516 -0.525383
C99   C     C_R   0.603524 0.357554 0.744518 -0.128057
H26   H     H_    0.930377 0.438746 0.589941 0.132422
H27   H     H_    0.906382 0.395278 0.634419 0.126491
H28   H     H_    0.614820 0.389140 0.753213 0.170160
C100  C     C_R   0.541037 0.281338 0.823260 -0.175140
C101  C     C_R   0.530507 0.256290 0.848270 -0.121823
O22   O     O_2   0.513460 0.204878 0.897857 -0.514453
C102  C     C_R   0.593652 0.333270 0.770107 -0.176458
H29   H     H_    0.527169 0.312316 0.833539 0.126084
H30   H     H_    0.207530 0.087079 0.931468 0.131439
H31   H     H_    0.513279 0.269272 0.875869 0.173311
H32   H     H_    0.227601 0.131218 0.887415 0.117680
H33   H     H_    0.602064 0.348120 0.797114 0.124929
C103  C     C_R   0.417086 0.176623 0.202429 0.559008
N7    N     N_R   0.551172 0.174910 0.175824 -0.557399
C104  C     C_R   0.696514 0.202557 0.177452 0.545376
C105  C     C_R   0.724195 0.231196 0.208431 -0.096430
C106  C     C_R   0.580580 0.234066 0.235235 0.013783
C107  C     C_R   0.425462 0.206835 0.232026 -0.022568
C108  C     C_R   0.885966 0.257533 0.213527 -0.028122
C109  C     C_R   0.891288 0.287571 0.243361 -0.109076
C110  C     C_R   0.745334 0.291292 0.269200 -0.072522
C111  C     C_R   0.591074 0.264197 0.265406 -0.010322
C112  C     C_R   0.446881 0.267203 0.291837 -0.014877
C113  C     C_R   0.292495 0.240105 0.287962 -0.140831
C114  C     C_R   0.282363 0.210219 0.258524 -0.172761
C115  C     C_R   0.752246 0.321288 0.299214 0.599765
N8    N     N_R   0.612027 0.323694 0.325006 -0.553486
C116  C     C_R   0.461301 0.297106 0.321755 0.582682
O23   O     O_2   0.275629 0.149132 0.200269 -0.514921
O24   O     O_2   0.809298 0.202773 0.148715 -0.533779
H34   H     H_    0.014593 0.307434 0.247030 0.200881
O25   O     O_2   0.897173 0.348100 0.302295 -0.516041
O26   O     O_2   0.326783 0.299141 0.347606 -0.529672
H35   H     H_    0.178900 0.241826 0.307705 0.168963
H36   H     H_    0.161000 0.189902 0.256501 0.166144
C117  C     C_R   0.789488 0.358973 0.377183 -0.083641
H37   H     H_    0.910439 0.339192 0.370837 0.161628
C118  C     C_R   0.800738 0.388874 0.406842 -0.177418
H38   H     H_    0.931052 0.391621 0.422606 0.138635
C119  C     C_R   0.644365 0.414480 0.416314 -0.047247
C120  C     C_R   0.477569 0.409746 0.395134 -0.188047
H39   H     H_    0.355127 0.429144 0.401473 0.145488
C121  C     C_R   0.467918 0.380346 0.365118 -0.072630
H40   H     H_    0.339138 0.377788 0.348950 0.161417
C122  C     C_R   0.623254 0.354463 0.355884 0.352040
C123  C     C_R   0.377346 0.141781 0.122844 -0.017075
H41   H     H_    0.263018 0.163287 0.128590 0.142424
C124  C     C_R   0.362584 0.112406 0.092884 -0.155916
H42   H     H_    0.236525 0.111725 0.076166 0.140086
C125  C     C_R   0.510900 0.084771 0.084224 -0.100062
C126  C     C_R   0.671899 0.086517 0.106667 -0.167323
H43   H     H_    0.784929 0.064744 0.100572 0.164830
C127  C     C_R   0.685927 0.115162 0.137476 -0.019211
C128  C     C_R   0.538300 0.143705 0.145333 0.292160
O27   O     O_R   0.662230 0.032770 0.966890 -0.540705
O28   O     O_R   0.330090 0.043230 0.039150 -0.537324
O29   O     O_R   0.157350 0.967260 0.033130 -0.535839
C129  C     C_R   0.498992 0.053697 0.052273 0.718556
O30   O     O_R   0.332650 0.037450 0.967510 -0.544727
O31   O     O_R   0.159930 0.961430 0.960980 -0.518894
C130  C     C_R   0.502177 0.046133 0.956164 0.704572
O32   O     O_R   0.659640 0.038600 0.039040 -0.539526
O33   O     O_3   0.492510 0.975090 0.997960 -0.367874
V3    V     V_3+5 0.218600 0.004620 0.000380 1.444743
O34   O     O_R   0.830050 0.956730 0.960830 -0.556983
C131  C     C_R   0.999102 0.945873 0.948126 0.749468
O35   O     O_R   0.827490 0.962520 0.032470 -0.545069
C132  C     C_R   0.995812 0.953801 0.043695 0.725640
V4    V     V_3+5 0.718310 0.995320 0.999580 1.406388
O36   O     O_3   0.994270 0.024900 0.002040 -0.369879
O37   O     O_3   0.268977 0.883370 0.944218 -0.574561
C133  C     C_3   0.466309 0.876325 0.935631 0.075851
H44   H     H_    0.551392 0.900502 0.951405 0.163077
H45   H     H_    0.504430 0.876770 0.907382 0.129238
C134  C     C_3   0.526614 0.837290 0.946443 -0.313547
H46   H     H_    0.492451 0.838019 0.974927 0.213329
H47   H     H_    0.444153 0.812545 0.930845 0.205407
C135  C     C_3   0.742236 0.829878 0.940574 -0.754235
H48   H     H_    0.779174 0.828294 0.912170 0.260344
H49   H     H_    0.780893 0.801412 0.948714 0.242459
H50   H     H_    0.827676 0.853828 0.956631 0.226689
C136  C     C_2   0.675498 0.890804 0.137289 0.412517
H51   H     H_    0.556049 0.911010 0.136826 0.052933
O38   O     O_2   0.659016 0.864555 0.155003 -0.522456
C137  C     C_2   0.096138 0.901392 0.258041 0.538013
H52   H     H_    0.209051 0.916734 0.274566 0.063322
O39   O     O_2   0.948479 0.919040 0.253373 -0.497189
O40   O     O_3   0.242939 0.851677 0.299838 -0.593616
C138  C     C_3   0.445746 0.848126 0.296944 0.050659
H53   H     H_    0.502023 0.864297 0.276049 0.145991
H54   H     H_    0.489002 0.816525 0.290459 0.138539
C139  C     C_3   0.536083 0.865958 0.332305 -0.293687
H55   H     H_    0.496889 0.897652 0.338999 0.210226
H56   H     H_    0.478764 0.850364 0.353404 0.202450
C140  C     C_3   0.755379 0.862243 0.330868 -0.772260
H57   H     H_    0.795860 0.830736 0.323660 0.226037
H58   H     H_    0.817377 0.874200 0.357167 0.234341
H59   H     H_    0.816439 0.879039 0.310985 0.257106
C141  C     C_2   0.095220 0.721646 0.114069 0.505019
H60   H     H_    0.220977 0.705146 0.103162 0.036012
O41   O     O_2   0.947481 0.720088 0.096611 -0.486439
O42   O     O_3   0.007267 0.648670 0.197189 -0.581119
C142  C     C_3   0.809450 0.655843 0.191946 0.079307
H61   H     H_    0.789703 0.656477 0.163288 0.165531
H62   H     H_    0.758445 0.684978 0.206266 0.115171
C143  C     C_3   0.685419 0.622449 0.202186 -0.337320
H63   H     H_    0.743456 0.593481 0.189306 0.225149
H64   H     H_    0.689640 0.623787 0.231347 0.198318
C144  C     C_3   0.476713 0.625928 0.190797 -0.746164
H65   H     H_    0.421223 0.655615 0.201918 0.229425
H66   H     H_    0.386363 0.603184 0.200624 0.252348
H67   H     H_    0.466889 0.621555 0.161480 0.234249
C145  C     C_2   0.833554 0.541697 0.400749 0.402474
H68   H     H_    0.689198 0.550302 0.394261 0.040580
O43   O     O_2   0.863993 0.507168 0.402589 -0.524985
C146  C     C_2   0.531765 0.773658 0.687729 0.511803
H69   H     H_    0.485942 0.777928 0.661604 0.059202
O44   O     O_2   0.703836 0.771413 0.693803 -0.500753
C147  C     C_2   0.273118 0.357576 0.602198 0.395474
H70   H     H_    0.247821 0.343045 0.624861 0.037182
O45   O     O_2   0.149361 0.354916 0.579320 -0.523679
O46   O     O_3   0.521439 0.226361 0.616650 -0.552707
C148  C     C_3   0.326185 0.231704 0.607557 0.176826
H71   H     H_    0.320314 0.229880 0.578364 0.174914
H72   H     H_    0.269033 0.261378 0.619124 0.102390
C149  C     C_3   0.195638 0.199241 0.618003 -0.435487
H73   H     H_    0.253517 0.169818 0.606363 0.217808
H74   H     H_    0.192290 0.201591 0.647258 0.198532
C150  C     C_3   0.989439 0.202885 0.605123 -0.692711
H75   H     H_    0.930562 0.232375 0.616182 0.254748
H76   H     H_    0.896569 0.179900 0.614007 0.236493
H77   H     H_    0.986158 0.198850 0.575766 0.239772
C151  C     C_2   0.505006 0.833281 0.749336 0.488266
H78   H     H_    0.446078 0.862796 0.751787 0.064849
O47   O     O_2   0.679693 0.829200 0.750557 -0.505244
C152  C     C_2   0.059835 0.252891 0.190291 0.463834
H79   H     H_    0.102297 0.224125 0.176448 0.086498
O48   O     O_2   0.162662 0.281203 0.187353 -0.509054
C153  C     C_2   0.851678 0.114219 0.161755 0.465491
H80   H     H_    0.855252 0.133405 0.187258 0.069857
O49   O     O_2   0.986337 0.091668 0.153700 -0.507643

loop_
_geom_bond_atom_site_label_1
_geom_bond_atom_site_label_2
_ccdc_geom_bond_type
C32   C41   A    
V3    O36   S    
C95   C98   A    
C120  C121  A    
C29   H9    S    
C139  H56   S    
C100  C101  A    
C42   C132  S    
C9    C16   A    
C64   O42   S    
C20   H4    S    
C19   C24   A    
C90   H22   S    
C129  O32   A    
C6    C7    A    
C103  O23   S    
C108  C152  S    
C34   H15   S    
C143  C144  S    
O37   C133  S    
C144  H67   S    
C134  H47   S    
C69   C70   A    
O31   C131  A    
N6    C89   A    
C19   C20   A    
C47   C48   A    
C79   C92   A    
C70   H26   S    
C5    O11   S    
C119  C120  A    
O33   V4    S    
C150  H75   S    
C16   C151  S    
O29   V3    S    
C44   C46   A    
N4    C53   A    
C141  O41   D    
C15   C16   A    
C71   C78   A    
C62   O40   S    
C133  H44   S    
O40   C138  S    
O5    C3    A    
C17   N2    A    
C57   H18   S    
C54   H12   S    
C149  C150  S    
O30   V3    S    
C31   N3    A    
C95   C96   A    
C142  C143  S    
C80   C95   A    
C121  H40   S    
C133  C134  S    
C25   C30   A    
C71   C72   A    
C151  O47   D    
C87   C101  A    
C105  C106  A    
C35   C42   A    
C117  C118  A    
C67   O19   S    
C43   C56   A    
C89   O20   S    
C64   C65   A    
O9    C4    A    
C152  O48   D    
C23   H6    S    
O8    V2    S    
C123  H41   S    
C51   C65   A    
C68   C77   A    
O46   C148  S    
C109  H34   S    
C41   C63   A    
C147  H70   S    
C25   C26   A    
C44   C47   A    
C142  H62   S    
C138  H54   S    
C136  H51   S    
C7    C10   A    
C107  C114  A    
O1    V2    S    
C18   O14   S    
C2    C119  S    
N1    C6    A    
C40   C137  S    
C81   C100  A    
C144  H65   S    
C59   C60   A    
C140  H59   S    
C1    O6    A    
C143  H63   S    
C114  H36   S    
C134  C135  S    
C139  H55   S    
C120  H39   S    
N3    C37   S    
C103  C107  A    
O29   C132  A    
O1    C2    A    
C8    C9    A    
C45   C64   A    
C74   C96   A    
C136  O38   D    
C68   O21   S    
C125  C129  S    
C103  N7    A    
C32   O17   S    
C53   O16   S    
C124  C125  A    
C84   H23   S    
C140  H57   S    
C82   C86   A    
C3    C43   S    
O35   C132  A    
C8    C13   A    
C140  H58   S    
O34   V4    S    
C23   C24   A    
C106  C111  A    
C28   C29   A    
C112  C116  A    
N4    C58   S    
C137  O39   D    
C138  C139  S    
C70   C78   A    
C33   C37   A    
C38   C39   A    
O30   C130  A    
C11   C12   A    
C121  C122  A    
C85   C89   A    
C55   H11   S    
C67   C75   A    
N7    C104  A    
O4    C2    A    
C97   C102  A    
C54   C58   A    
C127  C128  A    
C39   C40   A    
C144  H66   S    
C22   C23   A    
C80   C83   A    
C143  H64   S    
C12   C13   A    
C109  C110  A    
C146  O44   D    
C117  C122  A    
C51   C52   A    
C118  H38   S    
C17   O13   S    
N3    C32   A    
C99   H28   S    
N7    C128  S    
C44   C59   A    
C117  H37   S    
C56   C57   A    
O2    C1    A    
C45   C46   A    
C76   O46   S    
C127  C153  S    
C33   C34   A    
C126  H43   S    
C61   C66   A    
C79   C130  S    
N1    C30   S    
N2    C18   A    
C148  C149  S    
N6    C94   S    
C91   H21   S    
C116  O26   S    
C104  O24   S    
C142  H61   S    
C7    C8    A    
C48   H13   S    
C123  C128  A    
C5    N1    A    
C148  H72   S    
C151  H78   S    
C47   H14   S    
C135  H49   S    
C11   H2    S    
C102  H33   S    
C93   C94   A    
C74   C75   A    
C80   C82   A    
C123  C124  A    
C54   C55   A    
C69   C73   A    
O3    C4    A    
C145  O43   D    
C26   O37   S    
C81   C97   A    
C101  H31   S    
C31   C39   A    
C104  C105  A    
C135  H48   S    
C126  C127  A    
C52   N4    A    
O6    V2    S    
C10   H1    S    
N2    C24   S    
C29   C30   A    
C21   C22   A    
C13   C14   A    
C87   C88   A    
C77   C99   A    
C49   C50   A    
O42   C142  S    
O2    V1    S    
O32   V4    S    
C100  H29   S    
C69   H27   S    
C19   H3    S    
C72   C147  S    
C38   C60   A    
C108  C109  A    
C45   C61   A    
C20   C21   A    
C152  H79   S    
C83   C84   A    
O7    V1    S    
C74   C77   A    
C12   C17   A    
C52   O18   S    
C90   C94   A    
C137  H52   S    
C112  C113  A    
C27   C131  S    
O31   V3    S    
C15   C146  S    
C71   H20   S    
C138  H53   S    
C14   C18   A    
C48   C49   A    
C150  H76   S    
C36   C136  S    
C92   H30   S    
C22   H5    S    
C46   C50   A    
C34   C42   A    
C50   C51   A    
C63   C141  S    
C6    O12   S    
C153  H80   S    
O5    V1    S    
C92   C93   A    
C26   C27   A    
O27   C130  A    
C28   H8    S    
C81   C82   A    
C115  O25   S    
C79   C91   A    
C93   H32   S    
C90   C91   A    
C88   N6    A    
C63   C66   A    
C5    C9    A    
C113  H35   S    
C124  H42   S    
O35   V4    S    
C96   C97   A    
C38   C41   A    
O28   V3    S    
C35   C36   A    
C99   C102  A    
O9    V2    S    
C84   C85   A    
C31   O15   S    
C149  H73   S    
O4    V1    S    
C36   C37   A    
C111  C112  A    
V1    O10   S    
C72   C73   A    
C118  C119  A    
C59   C62   A    
N5    C73   S    
C148  H71   S    
O34   C131  A    
C49   C53   A    
C110  C115  A    
C153  O49   D    
C60   C61   A    
C133  H45   S    
C86   C87   A    
C135  H50   S    
N5    C68   A    
C149  H74   S    
O7    V2    S    
C85   C86   A    
C67   N5    A    
C43   C55   A    
C35   H10   S    
N8    C122  S    
C145  H68   S    
C113  C114  A    
C10   C11   A    
C134  H46   S    
C98   H25   S    
C76   C98   A    
O33   V3    S    
C83   H24   S    
C88   O22   S    
C57   C58   A    
C1    C78   S    
C150  H77   S    
C147  O45   D    
C25   H7    S    
C106  C107  A    
C139  C140  S    
C14   C15   A    
O3    V1    S    
C115  N8    A    
O28   C129  A    
C75   C76   A    
C4    C21   S    
C105  C108  A    
C40   C62   A    
C125  C126  A    
C56   C145  S    
C146  H69   S    
O27   V4    S    
V4    O36   S    
C66   H19   S    
C65   H17   S    
N8    C116  A    
V2    O10   S    
O8    C3    A    
C27   C28   A    
C141  H60   S    
C33   H16   S    
C110  C111  A    
