data_mof_unit_36869.cif
_audit_creation_date              2012-12-11T14:38:28-0500
_audit_creation_method            fapswitch 2.2
_symmetry_space_group_name_H-M    P1
_symmetry_Int_Tables_number       1
_space_group_crystal_system       triclinic
_cell_length_a                    19.624493
_cell_length_b                    11.057165
_cell_length_c                    19.67693
_cell_angle_alpha                 89.879984
_cell_angle_beta                  96.856587
_cell_angle_gamma                 89.862015
_cell_volume                      4239.16059287

loop_
_atom_site_label
_atom_site_type_symbol
_atom_type_description
_atom_site_fract_x
_atom_site_fract_y
_atom_site_fract_z
_atom_type_partial_charge
C1    C     C_R   0.708613 0.994663 0.366376 0.538757
C2    C     C_3   0.180486 0.499619 0.468910 -0.238250
C3    C     C_2   0.080435 0.766501 0.917794 0.629835
C4    C     C_2   0.646915 0.412728 0.573115 0.604704
C5    C     C_2   0.370583 0.420421 0.429701 0.560337
C6    C     C_2   0.148016 0.901652 0.570413 0.589219
C7    C     C_2   0.853136 0.912956 0.426570 0.596957
C8    C     C_3   0.327401 0.023105 0.517675 -0.270706
C9    C     C_3   0.673991 0.030945 0.481445 -0.263785
C10   C     C_3   0.794722 0.326085 0.551134 -0.226496
C11   C     C_3   0.228595 0.295911 0.448939 -0.266777
C12   C     C_3   0.292855 0.821774 0.552698 -0.218387
C13   C     C_3   0.705279 0.825871 0.449124 -0.226978
C14   C     C_3   0.776107 0.459856 0.561024 0.019814
C15   C     C_3   0.237314 0.429935 0.433807 0.040535
C16   C     C_3   0.275967 0.956919 0.561200 0.026257
C17   C     C_R   0.291152 0.994021 0.633351 0.532698
C18   C     C_3   0.723762 0.959534 0.438814 0.021744
C19   C     C_3   0.752897 0.406740 0.431532 0.020252
C20   C     C_3   0.251554 0.398260 0.565785 0.015530
C21   C     C_3   0.252143 0.901155 0.432430 0.033150
C22   C     C_3   0.746997 0.906704 0.568401 0.021375
C23   C     C_3   0.805009 0.510726 0.440680 -0.239833
C24   C     C_3   0.198629 0.499379 0.547558 -0.259178
C25   C     C_3   0.310481 0.993841 0.441004 -0.244543
C26   C     C_3   0.695103 0.011551 0.558892 -0.239967
C27   C     C_3   0.784481 0.298804 0.475568 -0.230019
C28   C     C_R   0.224309 0.454982 0.360786 0.596061
C29   C     C_3   0.223816 0.284452 0.525191 -0.241901
C30   C     C_3   0.277158 0.790068 0.477623 -0.230732
C31   C     C_3   0.715151 0.799044 0.524790 -0.229809
C32   C     C_3   0.535412 0.295676 0.952257 0.311131
C33   C     C_3   0.567283 0.289762 0.026545 0.279541
C34   C     C_3   0.932565 0.789812 0.973189 0.279851
C35   C     C_3   0.964371 0.795937 0.047470 0.310660
C36   C     C_3   0.435441 0.163279 0.971351 -0.329857
C37   C     C_3   0.569088 0.064508 0.029292 -0.329702
C38   C     C_3   0.931298 0.564516 0.971068 -0.329929
C39   C     C_R   0.791335 0.494881 0.633477 0.536641
C40   C     C_3   0.064646 0.663318 0.028809 -0.329622
C41   C     C_3   0.546307 0.063186 0.950550 -0.079279
C42   C     C_3   0.458248 0.168455 0.048995 -0.067884
C43   C     C_3   0.041898 0.668189 0.951137 -0.068517
C44   C     C_3   0.953978 0.563470 0.049834 -0.078827
C45   C     C_R   0.535924 0.180188 0.338519 0.536126
C46   C     C_R   0.463116 0.180302 0.660842 0.542215
C47   C     C_R   0.036554 0.680171 0.338906 0.545310
C48   C     C_R   0.963295 0.680249 0.661000 0.549094
C49   C     C_3   0.498519 0.174061 0.930849 -0.026650
C50   C     C_3   0.684815 0.445548 0.457241 -0.223592
C51   C     C_3   0.538632 0.177701 0.062530 -0.039460
C52   C     C_3   0.961497 0.677557 0.937521 -0.039940
C53   C     C_3   0.001500 0.674369 0.069227 -0.026188
C54   C     C_1   0.761580 0.423986 0.903687 0.045735
C55   C     C_1   0.236886 0.428070 0.095128 0.018184
C56   C     C_1   0.263176 0.927751 0.904877 0.016637
C57   C     C_1   0.738573 0.924113 0.096382 0.045704
C58   C     C_1   0.746416 0.401853 0.033352 0.023689
C59   C     C_1   0.251694 0.407076 0.965273 -0.016614
C60   C     C_1   0.248188 0.907297 0.034695 -0.016999
C61   C     C_3   0.321372 0.434843 0.541998 -0.221853
C62   C     C_1   0.753560 0.901374 0.966690 0.024421
C63   C     C_1   0.752849 0.411404 0.962876 0.045684
C64   C     C_1   0.245041 0.416809 0.035712 -0.023707
C65   C     C_1   0.254945 0.916681 0.964283 -0.024020
C66   C     C_1   0.747253 0.911274 0.037196 0.046883
C67   C     C_1   0.741871 0.388831 0.093489 0.040935
C68   C     C_1   0.256808 0.392483 0.905400 0.016347
C69   C     C_1   0.243053 0.892905 0.094585 0.016404
C70   C     C_1   0.758051 0.888216 0.906552 0.041023
C71   C     C_R   0.740292 0.364526 0.360359 0.530680
C72   C     C_3   0.186046 0.953553 0.456358 -0.223862
C73   C     C_R   0.260106 0.364265 0.638998 0.532994
C74   C     C_R   0.239318 0.860698 0.361494 0.539831
C75   C     C_R   0.759631 0.864618 0.639673 0.530060
C76   C     C_R   0.722207 0.953559 0.163509 0.549184
C77   C     C_R   0.278224 0.954370 0.836964 0.567572
C78   C     C_R   0.221771 0.454612 0.163024 0.564845
C79   C     C_R   0.777811 0.453371 0.836503 0.550373
C80   C     C_R   0.561637 0.182674 0.136931 0.555350
C81   C     C_R   0.470473 0.179002 0.857914 0.599917
C82   C     C_R   0.029504 0.679250 0.142130 0.598886
C83   C     C_3   0.815148 0.944012 0.542479 -0.226860
C84   C     C_R   0.938486 0.682618 0.863103 0.554226
C85   C     C_R   0.735447 0.357229 0.163094 0.551879
C86   C     C_R   0.264200 0.358090 0.836452 0.547955
C87   C     C_R   0.235800 0.858483 0.163585 0.549789
C88   C     C_R   0.764577 0.856757 0.836968 0.551110
C89   C     C_1   0.482828 0.172691 0.593158 -0.022443
C90   C     C_1   0.513579 0.172309 0.405124 -0.012954
C91   C     C_1   0.983669 0.672326 0.593650 -0.020816
C92   C     C_1   0.015613 0.671897 0.406029 -0.012476
C93   C     C_1   0.502193 0.169143 0.463937 -0.002745
C94   C     C_3   0.825763 0.530791 0.518062 -0.263952
C95   C     C_1   0.492698 0.169317 0.533889 -0.018667
C96   C     C_1   0.004556 0.668209 0.464917 -0.001837
C97   C     C_1   0.994215 0.668465 0.534608 -0.015968
C98   C     C_3   0.697523 0.478498 0.533116 -0.043484
C99   C     C_3   0.311379 0.468216 0.465545 -0.053973
C100  C     C_3   0.197389 0.976534 0.533387 -0.044518
C101  C     C_3   0.802292 0.977913 0.466707 -0.042372
C102  C     C_2   0.419532 0.266998 0.082016 0.628709
C103  C     C_2   0.606618 0.057358 0.909344 0.603916
C104  C     C_2   0.893584 0.557760 0.090935 0.603984
Cr1   Cr    Cr6+3 0.765780 0.160710 0.267420 1.090259
Cr2   Cr    Cr6+3 0.383970 0.323720 0.751490 1.067496
Cr3   Cr    Cr6+3 0.116030 0.823720 0.248510 1.069452
Cr4   Cr    Cr6+3 0.883970 0.823720 0.751490 1.089617
Cr5   Cr    Cr6+3 0.234220 0.160710 0.732580 1.071933
Cr6   Cr    Cr6+3 0.265780 0.660710 0.267420 1.057793
Cr7   Cr    Cr6+3 0.734220 0.660710 0.732580 1.090275
Cr8   Cr    Cr6+3 0.612200 0.009560 0.248850 1.029502
Cr9   Cr    Cr6+3 0.387800 0.009560 0.751150 1.056165
Cr10  Cr    Cr6+3 0.112200 0.509560 0.248850 1.058794
Cr11  Cr    Cr6+3 0.887800 0.509560 0.751150 1.030708
Cr12  Cr    Cr6+3 0.616030 0.323720 0.248510 1.082883
F1    F     F_    0.584553 0.325323 0.909981 -0.601640
F2    F     F_    0.556280 0.399331 0.057676 -0.587473
F3    F     F_    0.943243 0.899362 0.941742 -0.586907
F4    F     F_    0.915119 0.825694 0.089619 -0.602400
H1    H     H_    0.684285 0.574109 0.536935 0.101378
H2    H     H_    0.130654 0.451445 0.457115 0.146970
H3    H     H_    0.380085 0.988310 0.534301 0.134471
H4    H     H_    0.621176 0.994140 0.469089 0.133065
H5    H     H_    0.851484 0.488761 0.415665 0.145512
H6    H     H_    0.151424 0.484247 0.572623 0.141923
H7    H     H_    0.357241 0.956378 0.421625 0.144959
H8    H     H_    0.648750 0.990846 0.584331 0.145967
H9    H     H_    0.497027 0.370552 0.947535 0.215139
H10   H     H_    0.623682 0.279197 0.028105 0.162042
H11   H     H_    0.876213 0.779258 0.971668 0.161833
H12   H     H_    0.314382 0.566459 0.461798 0.099186
H13   H     H_    0.002579 0.870734 0.051999 0.214758
H14   H     H_    0.397398 0.235897 0.955057 0.145237
H15   H     H_    0.625900 0.064834 0.040745 0.127238
H16   H     H_    0.874483 0.564812 0.959512 0.127385
H17   H     H_    0.102496 0.735923 0.044856 0.145059
H18   H     H_    0.515569 0.979480 0.938946 0.137499
H19   H     H_    0.443474 0.080801 0.071213 0.132003
H20   H     H_    0.056897 0.580412 0.929268 0.131677
H21   H     H_    0.984920 0.479740 0.061765 0.137776
H22   H     H_    0.551124 0.980043 0.052264 0.153521
H23   H     H_    0.181526 0.069728 0.541190 0.106176
H24   H     H_    0.408281 0.076287 0.958863 0.122582
H25   H     H_    0.092028 0.576326 0.041646 0.122985
H26   H     H_    0.949559 0.479996 0.948417 0.153271
H27   H     H_    0.646721 0.370876 0.448389 0.167696
H28   H     H_    0.358019 0.357770 0.551550 0.152772
H29   H     H_    0.142289 0.890380 0.443223 0.172162
H30   H     H_    0.852801 0.868222 0.551073 0.161949
H31   H     H_    0.662735 0.525010 0.427303 0.115209
H32   H     H_    0.343713 0.513452 0.572105 0.134275
H33   H     H_    0.172136 0.039506 0.428599 0.105003
H34   H     H_    0.815065 0.073670 0.463041 0.100577
H35   H     H_    0.837796 0.022671 0.572388 0.114200
H36   H     H_    0.335643 0.120381 0.525628 0.092553
H37   H     H_    0.665068 0.126624 0.467921 0.125350
H38   H     H_    0.834312 0.626640 0.530875 0.124510
H39   H     H_    0.168035 0.590237 0.447577 0.121904
H40   H     H_    0.296087 0.073589 0.409015 0.129110
H41   H     H_    0.718453 0.093358 0.583197 0.152828
H42   H     H_    0.782057 0.592665 0.415663 0.152866
H43   H     H_    0.220672 0.586632 0.565542 0.149958
H44   H     H_    0.849474 0.306512 0.570144 0.137559
H45   H     H_    0.835546 0.274029 0.460085 0.152939
H46   H     H_    0.182041 0.256409 0.419518 0.138557
H47   H     H_    0.348226 0.802256 0.568867 0.137850
H48   H     H_    0.650619 0.806474 0.429943 0.138044
H49   H     H_    0.764938 0.266055 0.580746 0.178679
H50   H     H_    0.273744 0.246818 0.436161 0.163309
H51   H     H_    0.265383 0.764013 0.586154 0.173896
H52   H     H_    0.735298 0.765371 0.420048 0.179812
H53   H     H_    0.750686 0.222559 0.466608 0.118726
H54   H     H_    0.252328 0.207239 0.546873 0.117316
H55   H     H_    0.238027 0.720781 0.472235 0.138203
H56   H     H_    0.168878 0.270147 0.532321 0.153121
H57   H     H_    0.748642 0.722157 0.534388 0.117572
H58   H     H_    0.394117 0.443556 0.085884 0.345884
H59   H     H_    0.698098 0.125465 0.891074 0.340615
H60   H     H_    0.801821 0.625863 0.108763 0.340258
H61   H     H_    0.105500 0.942958 0.913322 0.346840
H62   H     H_    0.614360 0.255166 0.608824 0.342545
H63   H     H_    0.402597 0.323788 0.352448 0.350914
H64   H     H_    0.118250 0.736383 0.597390 0.338346
H65   H     H_    0.884756 0.756525 0.388706 0.341225
H66   H     H_    0.325713 0.755111 0.461131 0.144465
H67   H     H_    0.663918 0.775491 0.540203 0.154685
H68   H     H_    0.878654 0.494026 0.530813 0.133220
O1    O     O_R   0.783100 0.287550 0.345460 -0.522054
O2    O     O_R   0.454350 0.284910 0.836260 -0.485594
O3    O     O_R   0.045650 0.784910 0.163740 -0.486936
O4    O     O_R   0.954350 0.784910 0.836260 -0.395780
O5    O     O_R   0.677950 0.374280 0.185410 -0.488750
O6    O     O_R   0.322050 0.374280 0.814590 -0.495968
O7    O     O_R   0.177950 0.874280 0.185410 -0.496089
O8    O     O_R   0.822050 0.874280 0.814590 -0.488706
O9    O     O_3   0.664670 0.164660 0.254930 -0.322228
O10   O     O_3   0.335330 0.164660 0.745070 -0.300381
O11   O     O_3   0.164670 0.664660 0.254930 -0.287859
O12   O     O_R   0.216900 0.287550 0.654540 -0.523307
O13   O     O_3   0.835330 0.664660 0.745070 -0.324333
O14   O     O_R   0.760020 0.037400 0.337700 -0.470067
O15   O     O_R   0.239980 0.037400 0.662300 -0.471311
O16   O     O_R   0.260020 0.537400 0.337700 -0.488530
O17   O     O_R   0.739980 0.537400 0.662300 -0.470451
O18   O     O_R   0.666600 0.921990 0.332020 -0.517916
O19   O     O_R   0.333400 0.921990 0.667980 -0.518666
O20   O     O_R   0.166600 0.421990 0.332020 -0.525603
O21   O     O_R   0.833400 0.421990 0.667980 -0.517752
O22   O     O_R   0.557260 0.082670 0.312540 -0.507906
O23   O     O_R   0.283100 0.787550 0.345460 -0.529598
O24   O     O_R   0.442740 0.082670 0.687460 -0.508351
O25   O     O_R   0.057260 0.582670 0.312540 -0.499176
O26   O     O_R   0.942740 0.582670 0.687460 -0.511264
O27   O     O_R   0.548410 0.285740 0.316480 -0.494429
O28   O     O_R   0.451590 0.285740 0.683520 -0.478276
O29   O     O_R   0.048410 0.785740 0.316480 -0.483414
O30   O     O_R   0.951590 0.785740 0.683520 -0.479640
O31   O     O_R   0.680500 0.375040 0.327000 -0.510847
O32   O     O_R   0.319500 0.375040 0.673000 -0.508059
O33   O     O_R   0.180500 0.875040 0.327000 -0.507370
O34   O     O_R   0.716900 0.787550 0.654540 -0.522122
O35   O     O_R   0.819500 0.875040 0.673000 -0.512265
O36   O     O_R   0.780350 0.286720 0.192720 -0.478070
O37   O     O_R   0.219650 0.286720 0.807280 -0.503200
O38   O     O_R   0.280350 0.786720 0.192720 -0.504305
O39   O     O_R   0.719650 0.786720 0.807280 -0.477876
O40   O     O_R   0.757470 0.036630 0.196110 -0.472697
O41   O     O_R   0.242530 0.036630 0.803890 -0.482729
O42   O     O_R   0.257470 0.536630 0.196110 -0.488247
O43   O     O_R   0.742530 0.536630 0.803890 -0.472465
O44   O     O_R   0.663840 0.921160 0.179280 -0.516146
O45   O     O_R   0.554710 0.081900 0.170950 -0.508040
O46   O     O_R   0.336160 0.921160 0.820720 -0.501816
O47   O     O_R   0.163840 0.421160 0.179280 -0.504036
O48   O     O_R   0.836160 0.421160 0.820720 -0.515638
O49   O     O_2   0.386062 0.241166 0.128580 -0.512016
O50   O     O_R   0.421100 0.386485 0.058909 -0.638512
O51   O     O_2   0.605935 0.984716 0.862498 -0.506135
O52   O     O_R   0.662774 0.134445 0.924338 -0.665972
O53   O     O_2   0.894320 0.485043 0.137925 -0.506787
O54   O     O_R   0.837249 0.634927 0.075619 -0.666393
O55   O     O_2   0.114080 0.740386 0.871422 -0.509974
O56   O     O_R   0.445290 0.081900 0.829050 -0.497022
O57   O     O_R   0.078530 0.886091 0.940416 -0.637916
O58   O     O_2   0.606718 0.471116 0.603108 -0.472373
O59   O     O_R   0.644915 0.286746 0.574855 -0.750414
O60   O     O_2   0.429142 0.451969 0.450157 -0.505729
O61   O     O_R   0.359003 0.344129 0.372882 -0.707443
O62   O     O_2   0.109968 0.951928 0.606518 -0.481130
O63   O     O_R   0.144805 0.776411 0.562527 -0.752854
O64   O     O_2   0.893796 0.971933 0.397551 -0.485372
O65   O     O_R   0.854572 0.787076 0.423275 -0.751036
O66   O     O_R   0.054710 0.581900 0.170950 -0.497683
O67   O     O_R   0.945290 0.581900 0.829050 -0.507920
O68   O     O_R   0.545650 0.284910 0.163740 -0.398396

loop_
_geom_bond_atom_site_label_1
_geom_bond_atom_site_label_2
_ccdc_geom_bond_type
C10   C27   S    
C50   H27   S    
C98   H1    S    
Cr2   O32   S    
C4    C98   S    
C82   O3    A    
C76   O40   A    
C68   C86   S    
C47   C92   S    
C88   O8    A    
C19   C71   S    
Cr6   O23   S    
C103  O51   D    
C57   C66   T    
C70   C88   S    
C35   H13   S    
C12   H47   S    
Cr3   O7    S    
C44   C104  S    
Cr2   O6    S    
C46   C89   S    
C48   O30   A    
C10   H49   S    
C47   O29   A    
C74   O33   A    
C39   O21   A    
C59   C64   S    
H59   O52   S    
C13   C18   S    
C31   H57   S    
Cr9   O19   S    
C81   O56   A    
C35   F4    S    
C61   H28   S    
C94   H68   S    
C79   O48   A    
H65   O65   S    
C37   C51   S    
C46   O24   A    
C43   C52   S    
C88   O39   A    
C83   H35   S    
C54   C63   T    
C56   C65   T    
C25   H7    S    
C73   O12   A    
C47   O25   A    
C92   C96   T    
C9    H4    S    
C71   O31   A    
C62   C70   T    
Cr6   O16   S    
C34   C35   S    
Cr1   O40   S    
C49   C81   S    
C20   C61   S    
C52   C84   S    
C51   C80   S    
C38   H26   S    
C22   C26   S    
Cr6   O42   S    
C14   C39   S    
Cr3   O29   S    
Cr5   O41   S    
C44   C53   S    
C13   H52   S    
C78   O42   A    
C12   C16   S    
C75   O34   A    
C3    O57   S    
C78   O47   A    
C48   C91   S    
Cr6   O11   S    
C76   O44   A    
C11   H46   S    
Cr9   O10   S    
C37   H15   S    
C84   O4    A    
C38   H16   S    
Cr4   O8    S    
C19   C27   S    
Cr7   O17   S    
C2    C24   S    
C69   C87   S    
C42   C51   S    
Cr2   O10   S    
C23   H42   S    
Cr4   O30   S    
Cr9   O56   S    
Cr1   O9    S    
C103  O52   S    
C75   O35   A    
C33   F2    S    
C8    C16   S    
C55   C64   T    
C24   H6    S    
C8    C25   S    
Cr10  O25   S    
C27   H53   S    
Cr5   O10   S    
C61   C99   S    
C11   C15   S    
C22   C75   S    
C25   H40   S    
Cr12  O27   S    
C1    O14   A    
C42   C102  S    
Cr1   O14   S    
C41   C49   S    
Cr11  O48   S    
C85   O36   A    
C9    C26   S    
C14   C98   S    
C12   H51   S    
C20   C29   S    
C2    H2    S    
Cr9   O46   S    
Cr10  O66   S    
C48   O26   A    
C67   C85   S    
C102  O50   S    
C22   C31   S    
Cr11  O21   S    
C21   C72   S    
C28   O16   A    
H64   O63   S    
C20   C24   S    
Cr5   O15   S    
C5    O61   S    
C40   H25   S    
C37   H22   S    
C50   C98   S    
C32   H9    S    
Cr4   O35   S    
C62   C66   S    
C2    H39   S    
C13   H48   S    
C26   H8    S    
C32   C49   S    
C12   C30   S    
C21   C74   S    
C71   O1    A    
C56   C77   S    
C41   C103  S    
C73   O32   A    
C36   H14   S    
C53   C82   S    
C104  O53   D    
Cr7   O34   S    
Cr8   O22   S    
Cr8   O9    S    
C89   C95   T    
C19   C23   S    
H63   O61   S    
C4    O59   S    
C38   C44   S    
Cr4   O13   S    
C2    C15   S    
C6    O62   D    
Cr1   O1    S    
C59   C68   T    
C9    C18   S    
C9    H37   S    
Cr7   O43   S    
C87   O38   A    
C3    C43   S    
C40   H17   S    
C40   C43   S    
C84   O67   A    
C1    C18   S    
Cr11  O67   S    
C43   H20   S    
C3    O55   D    
C91   C97   T    
Cr12  O31   S    
C35   C53   S    
C1    O18   A    
C4    O58   D    
C41   H18   S    
C50   H31   S    
Cr4   O4    S    
C27   H45   S    
Cr7   O13   S    
Cr12  O5    S    
C6    O63   S    
C60   C69   T    
C60   C65   S    
C40   C53   S    
C46   O28   A    
Cr10  O11   S    
C10   C14   S    
C28   O20   A    
C24   H43   S    
Cr5   O37   S    
Cr2   O2    S    
C29   H56   S    
C31   H67   S    
C30   H66   S    
C30   H55   S    
H58   O50   S    
C96   C97   S    
C57   C76   S    
C90   C93   T    
C54   C79   S    
Cr12  O68   S    
C58   C63   S    
C55   C78   S    
C32   F1    S    
C21   C25   S    
C102  O49   D    
C10   H44   S    
C72   H33   S    
C80   O68   A    
C17   O15   A    
C42   H19   S    
C77   O41   A    
C80   O45   A    
C13   C31   S    
C16   C100  S    
Cr9   O24   S    
Cr6   O38   S    
C100  H23   S    
C99   H12   S    
C36   C42   S    
C34   H11   S    
C8    H3    S    
Cr10  O47   S    
C5    C99   S    
H60   O54   S    
C33   C51   S    
Cr1   O36   S    
Cr2   O28   S    
C21   C30   S    
C7    O64   D    
C26   H41   S    
C34   C52   S    
C45   O22   A    
Cr8   O44   S    
C23   C94   S    
C23   H5    S    
C74   O23   A    
C17   O19   A    
Cr7   O39   S    
C22   C83   S    
C83   H30   S    
C36   H24   S    
C34   F3    S    
C72   C100  S    
H62   O59   S    
C86   O6    A    
C11   C29   S    
Cr3   O11   S    
Cr12  O9    S    
C19   C50   S    
C85   O5    A    
C15   C28   S    
C93   C95   S    
C15   C99   S    
C101  H34   S    
C104  O54   S    
C39   O17   A    
C77   O46   A    
C45   O27   A    
Cr10  O20   S    
C20   C73   S    
Cr11  O13   S    
H61   O57   S    
C79   O43   A    
C37   C41   S    
C32   C33   S    
C8    H36   S    
C61   H32   S    
C81   O2    A    
C87   O7    A    
C14   C94   S    
C33   H10   S    
C58   C67   T    
C38   C52   S    
Cr11  O26   S    
C11   H50   S    
C94   H38   S    
C72   H29   S    
C7    C101  S    
Cr3   O3    S    
C7    O65   S    
C86   O37   A    
C83   C101  S    
Cr8   O18   S    
C82   O66   A    
Cr5   O12   S    
C44   H21   S    
C5    O60   D    
C18   C101  S    
C29   H54   S    
C45   C90   S    
C36   C49   S    
Cr8   O45   S    
C16   C17   S    
C6    C100  S    
Cr3   O33   S    
