data_mof_unit_8202.cif
_audit_creation_date              2012-12-10T22:11:08-0500
_audit_creation_method            fapswitch 2.2
_symmetry_space_group_name_H-M    P1
_symmetry_Int_Tables_number       1
_space_group_crystal_system       triclinic
_cell_length_a                    12.153467
_cell_length_b                    12.288333
_cell_length_c                    23.004849
_cell_angle_alpha                 91.215715
_cell_angle_beta                  90.724485
_cell_angle_gamma                 90.922626
_cell_volume                      3434.17022176

loop_
_atom_site_label
_atom_site_type_symbol
_atom_type_description
_atom_site_fract_x
_atom_site_fract_y
_atom_site_fract_z
_atom_type_partial_charge
C1    C     C_R   0.656385 0.998631 0.579539 0.895530
C2    C     C_R   0.343615 0.001369 0.420461 0.895535
C3    C     C_R   0.898317 0.812363 0.126567 -0.180285
C4    C     C_R   0.101684 0.187636 0.873433 -0.180284
C5    C     C_R   0.089940 0.856635 0.191819 -0.134130
C6    C     C_R   0.910058 0.143362 0.808182 -0.134162
C7    C     C_R   0.088513 0.774236 0.150237 -0.203650
C8    C     C_R   0.911484 0.225761 0.849765 -0.203655
C9    C     C_R   0.901536 0.166417 0.195589 -0.109698
C10   C     C_R   0.098465 0.833584 0.804412 -0.109702
C11   C     C_R   0.902731 0.247570 0.154951 -0.171264
C12   C     C_R   0.097270 0.752432 0.845051 -0.171266
C13   C     C_R   0.108224 0.910654 0.324126 0.550100
C14   C     C_R   0.891780 0.089344 0.675871 0.550100
C15   C     C_R   0.190108 0.911417 0.367354 -0.286785
C16   C     C_R   0.809900 0.088581 0.632641 -0.286766
C17   C     C_R   0.879823 0.102393 0.327482 0.279517
C18   C     C_R   0.120177 0.897607 0.672519 0.279518
C19   C     C_R   0.799281 0.095902 0.369138 -0.249952
C20   C     C_R   0.200722 0.904097 0.630864 -0.249957
C21   C     C_3   0.995663 0.010635 0.247696 -0.061611
C22   C     C_3   0.004336 0.989366 0.752304 -0.061612
C23   C     C_R   0.652191 0.001411 0.419460 0.915882
C24   C     C_R   0.347808 0.998589 0.580539 0.915878
C25   C     C_R   0.094796 0.004766 0.289667 0.023914
C26   C     C_R   0.905204 0.995234 0.710333 0.023909
C27   C     C_R   0.260260 0.001327 0.375224 -0.085119
C28   C     C_R   0.739741 0.998673 0.624776 -0.085121
C29   C     C_R   0.896561 0.012579 0.288533 -0.003615
C30   C     C_R   0.103439 0.987421 0.711467 -0.003619
C31   C     C_R   0.733143 0.002795 0.373692 -0.158356
C32   C     C_R   0.266856 0.997205 0.626308 -0.158359
C33   C     C_R   0.997766 0.107898 0.207744 0.148357
C34   C     C_R   0.002234 0.892103 0.792257 0.148368
C35   C     C_R   0.998751 0.269450 0.124280 -0.027752
C36   C     C_R   0.001249 0.730550 0.875720 -0.027751
C37   C     C_R   0.993846 0.915120 0.203902 0.170277
C38   C     C_R   0.006153 0.084880 0.796098 0.170281
C39   C     C_R   0.992400 0.750559 0.118086 -0.026355
C40   C     C_R   0.007600 0.249440 0.881914 -0.026349
C41   C     C_R   0.993008 0.662648 0.075154 0.867875
C42   C     C_R   0.006992 0.337351 0.924846 0.867874
C43   C     C_R   0.999028 0.352458 0.080767 0.868387
C44   C     C_R   0.000971 0.647542 0.919233 0.868387
C45   C     C_R   0.168671 0.093643 0.298203 -0.201761
C46   C     C_R   0.831325 0.906358 0.701799 -0.201757
C47   C     C_R   0.250369 0.091578 0.340215 -0.172751
C48   C     C_R   0.749624 0.908424 0.659789 -0.172753
C49   C     C_R   0.827754 0.919560 0.293617 -0.161691
C50   C     C_R   0.172245 0.080443 0.706382 -0.161695
C51   C     C_R   0.745627 0.914798 0.334538 0.262330
C52   C     C_R   0.254367 0.085206 0.665459 0.262342
C53   C     C_R   0.091694 0.126809 0.173808 -0.185207
C54   C     C_R   0.908306 0.873191 0.826192 -0.185207
C55   C     C_R   0.093117 0.208590 0.133592 -0.184922
C56   C     C_R   0.906883 0.791408 0.866407 -0.184925
C57   C     C_R   0.900009 0.895901 0.168051 -0.189601
C58   C     C_R   0.099992 0.104098 0.831949 -0.189600
H1    H     H_    0.304793 0.161812 0.345971 0.175781
H2    H     H_    0.695191 0.838193 0.654037 0.175772
H3    H     H_    0.839441 0.846469 0.267851 0.210459
H4    H     H_    0.160556 0.153534 0.732148 0.210459
H5    H     H_    0.164324 0.077725 0.178544 0.134866
H6    H     H_    0.835676 0.922274 0.821456 0.134864
H7    H     H_    0.827229 0.944718 0.173059 0.136335
H8    H     H_    0.172773 0.055281 0.826941 0.136331
H9    H     H_    0.167543 0.874663 0.213675 0.119188
H10   H     H_    0.832453 0.125330 0.786327 0.119185
H11   H     H_    0.824236 0.148872 0.216441 0.136958
H12   H     H_    0.175766 0.851131 0.783561 0.136954
H13   H     H_    0.167022 0.222107 0.108733 0.157643
H14   H     H_    0.832977 0.777888 0.891265 0.157645
H15   H     H_    0.824353 0.797230 0.100701 0.157904
H16   H     H_    0.175650 0.202769 0.899300 0.157900
H17   H     H_    0.163250 0.729131 0.143329 0.161781
H18   H     H_    0.836745 0.270863 0.856674 0.161781
H19   H     H_    0.828122 0.292380 0.147159 0.159568
H20   H     H_    0.171880 0.707625 0.852844 0.159568
H21   H     H_    0.196982 0.843301 0.396165 0.171441
H22   H     H_    0.803034 0.156695 0.603827 0.171445
H23   H     H_    0.789697 0.164366 0.399032 0.210912
H24   H     H_    0.210309 0.835630 0.600971 0.210913
H25   H     H_    0.161555 0.168455 0.274926 0.202591
H26   H     H_    0.838438 0.831546 0.725077 0.202587
O1    O     O_R   0.621380 0.090460 0.561410 -0.619324
O2    O     O_R   0.378620 0.909540 0.438590 -0.619321
O3    O     O_R   0.617150 0.909540 0.438590 -0.566330
O4    O     O_R   0.382850 0.090460 0.561410 -0.566327
O5    O     O_R   0.619720 0.093230 0.440890 -0.639730
O6    O     O_R   0.380280 0.906770 0.559110 -0.639731
O7    O     O_R   0.618800 0.906770 0.559110 -0.622030
O8    O     O_R   0.381200 0.093230 0.440890 -0.622032
O9    O     O_R   0.087590 0.627480 0.058790 -0.627104
O10   O     O_R   0.912410 0.372520 0.941210 -0.627105
O11   O     O_R   0.905660 0.383870 0.059980 -0.625366
O12   O     O_R   0.094340 0.616130 0.940020 -0.625367
O13   O     O_R   0.092570 0.390420 0.063230 -0.627716
O14   O     O_R   0.907430 0.609580 0.936770 -0.627717
O15   O     O_R   0.900680 0.620930 0.055550 -0.624250
O16   O     O_R   0.099320 0.379070 0.944450 -0.624250
Zn1   Zn    Zn3+2 0.501730 0.123520 0.501540 1.032648
Zn2   Zn    Zn3+2 0.498270 0.876480 0.498460 1.032646
Zn3   Zn    Zn3+2 0.125690 0.504390 0.002180 0.957314
Zn4   Zn    Zn3+2 0.874310 0.495610 0.997820 0.957313
O17   O     O_3   0.033963 0.823704 0.317915 -0.617940
C59   C     C_3   0.087459 0.722448 0.316852 -0.265368
H27   H     H_    0.099907 0.693159 0.361743 0.186330
H28   H     H_    0.166989 0.725171 0.293298 0.144416
H29   H     H_    0.033289 0.662069 0.293517 0.212746
O18   O     O_3   0.966039 0.176295 0.682080 -0.617930
C60   C     C_3   0.912534 0.277548 0.683162 -0.265360
H30   H     H_    0.833014 0.274811 0.706724 0.144404
H31   H     H_    0.900064 0.306855 0.638275 0.186325
H32   H     H_    0.966709 0.337922 0.706496 0.212744
Br1   Br    Br    0.961430 0.238195 0.329155 -0.536556
Br2   Br    Br    0.038567 0.761806 0.670845 -0.536548
Br3   Br    Br    0.653243 0.785953 0.332529 -0.484821
Br4   Br    Br    0.346728 0.214063 0.667458 -0.484808

loop_
_geom_bond_atom_site_label_1
_geom_bond_atom_site_label_2
_ccdc_geom_bond_type
C16   C28   A    
C20   H24   S    
C17   C29   A    
C60   H30   S    
C5    H9    S    
C19   C31   A    
O9    Zn3   S    
O4    Zn1   S    
C39   C41   S    
C29   C49   A    
C54   H6    S    
C44   O12   A    
C31   C51   A    
C9    H11   S    
C5    C37   A    
C21   C33   S    
C59   H27   S    
C22   C38   S    
C8    H18   S    
C45   C47   A    
O18   C60   S    
C32   C52   A    
C11   H19   S    
C17   C19   A    
C38   C58   A    
C15   C27   A    
C58   H8    S    
O6    Zn2   S    
C60   H31   S    
C4    C40   A    
C56   H14   S    
C12   H20   S    
C1    C28   S    
C50   C52   A    
C6    C38   A    
C2    C27   S    
C18   C30   A    
C12   C36   A    
C35   C43   S    
C4    H16   S    
C6    H10   S    
O15   Zn4   S    
C30   C50   A    
O10   Zn4   S    
C1    O7    A    
C23   O3    A    
C9    C33   A    
C13   C25   A    
C45   H25   S    
C44   O14   A    
C48   H2    S    
C46   C48   A    
C53   C55   A    
C33   C53   A    
C22   C34   S    
C54   C56   A    
C49   H3    S    
C35   C55   A    
C13   O17   S    
C18   Br2   S    
C5    C7    A    
C7    H17   S    
C49   C51   A    
C21   C29   S    
O16   Zn3   S    
C16   H22   S    
C23   C31   S    
C24   C32   S    
C36   C56   A    
C42   O16   A    
O3    Zn2   S    
C9    C11   A    
C43   O11   A    
C23   O5    A    
C10   C34   A    
C14   C26   A    
C2    O8    A    
C24   O4    A    
O13   Zn3   S    
C10   C12   A    
O8    Zn1   S    
C46   H26   S    
C10   H12   S    
C34   C54   A    
C13   C15   A    
C50   H4    S    
C14   C16   A    
C36   C44   S    
C1    O1    A    
O7    Zn2   S    
O2    Zn2   S    
C25   C45   A    
O1    Zn1   S    
O11   Zn4   S    
C17   Br1   S    
C20   C32   A    
C27   C47   A    
C14   O18   S    
C21   C25   S    
C28   C48   A    
C22   C30   S    
O5    Zn1   S    
C42   O10   A    
C43   O13   A    
C57   H7    S    
C24   O6    A    
C41   O15   A    
C6    C8    A    
C15   H21   S    
O17   C59   S    
C41   O9    A    
C11   C35   A    
C53   H5    S    
C59   H28   S    
O14   Zn4   S    
C40   C42   S    
C51   Br3   S    
C3    C57   A    
C2    O2    A    
C60   H32   S    
C18   C20   A    
C3    H15   S    
C55   H13   S    
C26   C46   A    
C47   H1    S    
C21   C37   S    
C22   C26   S    
O12   Zn3   S    
C4    C58   A    
C7    C39   A    
C8    C40   A    
C19   H23   S    
C37   C57   A    
C3    C39   A    
C59   H29   S    
C52   Br4   S    
