data_mof_unit_59574.cif
_audit_creation_date              2012-10-26T20:32:56-0400
_audit_creation_method            fapswitch 2.2
_symmetry_space_group_name_H-M    P1
_symmetry_Int_Tables_number       1
_space_group_crystal_system       triclinic
_cell_length_a                    27.793476
_cell_length_b                    10.804982
_cell_length_c                    9.594149
_cell_angle_alpha                 90.486618
_cell_angle_beta                  90.206866
_cell_angle_gamma                 90.733486
_cell_volume                      2880.83985014

loop_
_atom_site_label
_atom_site_type_symbol
_atom_type_description
_atom_site_fract_x
_atom_site_fract_y
_atom_site_fract_z
_atom_type_partial_charge
C1    C     C_R   0.498032 0.262950 0.499181 0.537400
C2    C     C_R   0.973858 0.387122 0.513270 0.040068
C3    C     C_R   0.975161 0.612806 0.471723 0.040221
C4    C     C_R   0.407551 0.499572 0.499511 0.544266
C5    C     C_R   0.949262 0.500028 0.491534 -0.005257
C6    C     C_R   0.946408 0.283368 0.557180 -0.097607
C7    C     C_R   0.896481 0.284221 0.556895 -0.123374
C8    C     C_R   0.871853 0.391212 0.521613 0.031227
C9    C     C_R   0.898101 0.500513 0.493995 -0.038182
C10   C     C_R   0.873040 0.610632 0.471256 0.002200
C11   C     C_R   0.822519 0.608043 0.466822 0.399159
C12   C     C_R   0.279404 0.465907 0.368721 0.309269
C13   C     C_R   0.821332 0.393053 0.520212 0.405675
C14   C     C_R   0.719548 0.424812 0.399168 -0.051039
C15   C     C_R   0.669326 0.424466 0.401815 -0.137699
C16   C     C_R   0.500082 0.737482 0.500394 0.543208
C17   C     C_R   0.671328 0.577888 0.587236 -0.118189
C18   C     C_R   0.721438 0.577255 0.586020 -0.049180
C19   C     C_R   0.745907 0.500606 0.492085 0.230232
C20   C     C_R   0.024908 0.383526 0.499607 0.064742
C21   C     C_R   0.050832 0.496498 0.479498 -0.028128
C22   C     C_R   0.026144 0.608807 0.457155 -0.011764
C23   C     C_R   0.253725 0.495964 0.489754 0.280250
C24   C     C_R   0.051119 0.270747 0.497491 0.226797
C25   C     C_R   0.103507 0.714400 0.413563 0.248559
C26   C     C_R   0.948698 0.725706 0.473471 0.118754
C27   C     C_R   0.898566 0.722173 0.462494 -0.096157
C28   C     C_R   0.592314 0.500028 0.499775 0.557214
C29   C     C_R   0.053137 0.711868 0.410691 -0.117450
C30   C     C_R   0.529696 0.068427 0.580325 -0.005123
C31   C     C_R   0.497204 0.129800 0.495827 -0.014261
C32   C     C_R   0.468403 0.060487 0.399724 0.219962
C33   C     C_R   0.470822 0.931419 0.400869 -0.088951
C34   C     C_R   0.101998 0.496704 0.477265 -0.087679
C35   C     C_R   0.499759 0.871008 0.498564 -0.045395
C36   C     C_R   0.530913 0.941070 0.582700 -0.055337
C37   C     C_3   0.539537 0.939315 0.736584 -0.235304
C38   C     C_3   0.537981 0.079740 0.733980 0.130421
C39   C     C_R   0.538722 0.542299 0.073456 0.165210
C40   C     C_R   0.177395 0.388110 0.504393 0.434664
C41   C     C_R   0.463993 0.444276 0.074857 0.006978
C42   C     C_R   0.463394 0.443955 0.925389 0.229590
C43   C     C_R   0.540248 0.534589 0.927425 0.217451
C44   C     C_3   0.568376 0.652127 0.917464 0.102652
C45   C     C_R   0.126957 0.385968 0.498736 -0.007550
C46   C     C_3   0.562970 0.667171 0.074743 0.018811
C47   C     C_R   0.179102 0.604715 0.459753 0.454281
C48   C     C_R   0.278196 0.526885 0.613242 -0.115048
C49   C     C_R   0.328345 0.528017 0.616941 -0.159654
C50   C     C_R   0.329930 0.467197 0.373047 -0.136373
C51   C     C_3   0.984733 0.861292 0.646892 -0.294851
C52   C     C_3   0.379259 0.365694 0.914920 -0.335170
C53   C     C_3   0.482681 0.776621 0.067624 -0.286102
C54   C     C_R   0.101455 0.274292 0.506032 -0.090194
C55   C     C_R   0.128351 0.607101 0.451916 0.067198
C56   C     C_R   0.354607 0.498030 0.496974 -0.021073
C57   C     C_R   0.644997 0.499765 0.497554 0.012503
Cu1   Cu    Cu3+1 0.500000 0.499980 0.640670 1.000360
Cu2   Cu    Cu3+1 0.500000 0.500020 0.359330 0.946178
H1    H     H_    0.349851 0.443589 0.279871 0.103079
H2    H     H_    0.507156 0.119620 0.791867 0.158773
H3    H     H_    0.435560 0.399549 0.132800 0.133040
H4    H     H_    0.550822 0.720611 0.850689 0.140015
H5    H     H_    0.597756 0.668189 0.132617 0.154068
H6    H     H_    0.120812 0.188019 0.511309 0.165167
H7    H     H_    0.649470 0.364865 0.330072 0.139761
H8    H     H_    0.737992 0.366261 0.325022 0.148751
H9    H     H_    0.877273 0.201004 0.587685 0.165357
H10   H     H_    0.962425 0.201428 0.599092 0.182404
H11   H     H_    0.346542 0.553839 0.712999 0.151394
H12   H     H_    0.258235 0.550593 0.706222 0.136823
H13   H     H_    0.105862 0.887085 0.354358 0.317932
H14   H     H_    0.952918 0.917674 0.462845 0.268124
H15   H     H_    0.003789 0.951705 0.658851 0.166716
H16   H     H_    0.009393 0.787373 0.681352 0.169574
H17   H     H_    0.952282 0.861441 0.714252 0.151179
H18   H     H_    0.427396 0.196640 0.344446 0.331880
H19   H     H_    0.277543 0.417820 0.173037 0.316280
H20   H     H_    0.607614 0.103957 0.706594 0.340140
H21   H     H_    0.437717 0.299878 0.801438 0.265858
H22   H     H_    0.379911 0.294131 0.997304 0.144842
H23   H     H_    0.653158 0.642294 0.654478 0.162658
H24   H     H_    0.352766 0.335557 0.834289 0.168489
H25   H     H_    0.367434 0.455639 0.959205 0.138892
H26   H     H_    0.633002 0.710300 0.887162 0.315616
H27   H     H_    0.540570 0.814280 0.205051 0.279186
H28   H     H_    0.470446 0.873959 0.071601 0.160894
H29   H     H_    0.459853 0.721099 0.138745 0.178373
H30   H     H_    0.477517 0.741974 0.959537 0.132527
H31   H     H_    0.051581 0.090588 0.472153 0.324012
H32   H     H_    0.879386 0.808764 0.457811 0.164667
H33   H     H_    0.741293 0.637151 0.657371 0.146568
H34   H     H_    0.035737 0.790509 0.365534 0.157893
H35   H     H_    0.447490 0.878228 0.331653 0.150398
H36   H     H_    0.508792 0.898084 0.794338 0.118522
H37   H     H_    0.575687 0.903144 0.762737 0.144494
N1    N     N_R   0.202173 0.496592 0.486673 -0.387092
N2    N     N_R   0.797655 0.500182 0.491147 -0.394768
N3    N     N_R   0.500300 0.500930 0.147930 -0.265592
N4    N     N_R   0.500310 0.500890 0.852020 -0.254655
N5    N     N_2   0.970929 0.842769 0.502590 -0.538761
N6    N     N_2   0.426258 0.378710 0.851597 -0.472459
N7    N     N_2   0.532793 0.772323 0.110728 -0.532625
O1    O     O_R   0.500000 0.319640 0.618810 -0.496682
O2    O     O_R   0.569730 0.499960 0.618810 -0.447624
O3    O     O_R   0.569740 0.500000 0.381220 -0.506328
O4    O     O_2   0.201603 0.282595 0.527032 -0.461910
O5    O     O_3   0.128699 0.819726 0.374585 -0.619916
O6    O     O_3   0.435596 0.112981 0.310129 -0.695846
O7    O     O_3   0.254286 0.436304 0.248327 -0.655447
O8    O     O_3   0.582210 0.137563 0.768370 -0.656376
O9    O     O_3   0.616073 0.628982 0.881099 -0.716340
O10   O     O_3   0.027933 0.158569 0.473481 -0.733502
O11   O     O_2   0.796097 0.288978 0.549464 -0.489558
O12   O     O_2   0.205409 0.708964 0.440679 -0.393047
O13   O     O_2   0.798445 0.712549 0.438073 -0.496910
O14   O     O_R   0.500010 0.319680 0.381230 -0.488954
O15   O     O_R   0.430260 0.500000 0.618780 -0.472514
O16   O     O_R   0.430270 0.500040 0.381190 -0.528030
O17   O     O_R   0.499990 0.680320 0.618770 -0.514058
O18   O     O_R   0.500000 0.680360 0.381190 -0.508759

loop_
_geom_bond_atom_site_label_1
_geom_bond_atom_site_label_2
_ccdc_geom_bond_type
C10   C27   A    
Cu2   O18   S    
C6    H10   S    
C8    C13   A    
C22   C29   A    
Cu2   N3    S    
C41   C42   A    
C35   C36   A    
C51   H15   S    
Cu1   O15   S    
C43   C44   S    
H26   O9    S    
C33   H35   S    
C12   O7    S    
C7    C8    A    
C54   H6    S    
C28   C57   S    
C47   O12   S    
C12   C23   A    
C52   N6    S    
C26   C27   A    
C11   N2    A    
C36   C37   S    
C51   H16   S    
C18   C19   A    
C16   O17   A    
C16   C35   S    
C30   C31   A    
C24   C54   A    
C1    C31   S    
C30   C38   S    
C17   H23   S    
H31   O10   S    
C13   N2    A    
C52   H25   S    
C7    H9    S    
C20   C24   A    
C28   O3    A    
C8    C9    A    
C14   H8    S    
C41   N3    A    
C4    O16   A    
C27   H32   S    
C9    C10   A    
C13   O11   S    
C38   H2    S    
H14   N5    S    
C34   C55   A    
Cu2   O14   S    
C21   C22   A    
C4    C56   S    
C15   C57   A    
C4    O15   A    
C2    C6    A    
C41   H3    S    
H27   N7    S    
C42   N6    S    
C19   N2    S    
C44   C46   S    
C44   H4    S    
C25   C29   A    
C40   C45   A    
Cu2   O3    S    
C32   O6    S    
C2    C20   A    
H13   O5    S    
Cu1   N4    S    
C51   H17   S    
H19   O7    S    
C40   N1    A    
C39   C43   A    
C21   C34   A    
Cu1   Cu2   S    
C15   H7    S    
C50   C56   A    
C37   H37   S    
C46   H5    S    
C52   H24   S    
C16   O18   A    
C5    C9    A    
C37   C38   S    
C42   N4    A    
C39   N3    A    
C31   C32   A    
C28   O2    A    
Cu1   O17   S    
C17   C18   A    
C53   H28   S    
C34   C45   A    
C1    O14   A    
C43   N4    A    
H18   O6    S    
C11   O13   S    
C1    O1    A    
C39   C46   S    
C44   O9    S    
C48   C49   A    
C23   N1    S    
C45   C54   A    
C49   H11   S    
C40   O4    S    
C53   H30   S    
C2    C5    A    
Cu1   O1    S    
C48   H12   S    
C47   C55   A    
Cu2   O16   S    
C23   C48   A    
C14   C19   A    
C3    C26   A    
C25   C55   A    
C3    C5    A    
C12   C50   A    
C6    C7    A    
C30   C36   A    
C51   N5    S    
C49   C56   A    
C46   N7    S    
C47   N1    A    
H20   O8    S    
Cu1   O2    S    
C18   H33   S    
C32   C33   A    
C50   H1    S    
C26   N5    S    
C29   H34   S    
C53   N7    S    
C33   C35   A    
C53   H29   S    
C52   H22   S    
C37   H36   S    
C10   C11   A    
C24   O10   S    
C20   C21   A    
H21   N6    S    
C14   C15   A    
C3    C22   A    
C38   O8    S    
C25   O5    S    
C17   C57   A    
