data_mof_unit_31088.cif
_audit_creation_date              2013-03-05T15:54:26-0500
_audit_creation_method            fapswitch 2.2
_symmetry_space_group_name_H-M    P1
_symmetry_Int_Tables_number       1
_space_group_crystal_system       triclinic
_cell_length_a                    15.632668
_cell_length_b                    10.686257
_cell_length_c                    9.99868
_cell_angle_alpha                 92.15909
_cell_angle_beta                  91.577533
_cell_angle_gamma                 93.131626
_cell_volume                      1665.91526266

loop_
_atom_site_label
_atom_site_type_symbol
_atom_site_description
_atom_site_fract_x
_atom_site_fract_y
_atom_site_fract_z
_atom_type_partial_charge
O1    O     O_R   0.500000 0.316780 0.614690 -0.620797
O2    O     O_R   0.499990 0.316750 0.385360 -0.592298
C1    C     C_R   0.511673 0.262267 0.497774 0.917181
O3    O     O_R   0.376780 0.500000 0.614650 -0.576543
O4    O     O_R   0.376770 0.499980 0.385310 -0.589367
C2    C     C_R   0.338678 0.507134 0.498542 0.897201
Zn1   Zn    Zn3+2 0.500010 0.500020 0.653130 1.001132
Zn2   Zn    Zn3+2 0.499990 0.499980 0.346870 0.985111
O5    O     O_R   0.500010 0.683250 0.614640 -0.600045
O6    O     O_R   0.500000 0.683220 0.385310 -0.593402
O7    O     O_R   0.623230 0.500020 0.614690 -0.636926
O8    O     O_R   0.623220 0.500000 0.385350 -0.618999
C3    C     C_R   0.495023 0.740858 0.502906 0.896891
C4    C     C_R   0.661947 0.505829 0.501810 0.880448
C5    C     C_3   0.967609 0.448094 0.458004 0.207586
C6    C     C_3   0.022285 0.530833 0.368425 0.235934
C7    C     C_1   0.251263 0.529060 0.493891 -0.112922
C8    C     C_1   0.750882 0.529136 0.505776 -0.167116
C9    C     C_3   0.031633 0.472863 0.577747 -0.288075
C10   C     C_3   0.086558 0.558237 0.486889 -0.104385
C11   C     C_3   0.982438 0.588804 0.619886 0.303912
C12   C     C_3   0.917590 0.561764 0.502200 -0.141638
C13   C     C_3   0.037609 0.673365 0.531378 0.119580
C14   C     C_3   0.973294 0.645588 0.412381 0.060528
C15   C     C_1   0.177103 0.546163 0.488415 0.130662
C16   C     C_1   0.826203 0.548400 0.506344 0.093684
H1    H     H_    0.055496 0.401373 0.645124 0.238407
C17   C     C_R   0.612466 0.130506 0.706342 0.219936
C18   C     C_R   0.627737 0.071404 0.825922 -0.312625
H2    H     H_    0.674622 0.114203 0.897648 0.172652
C19   C     C_R   0.583382 0.958551 0.853127 0.120968
C20   C     C_R   0.521710 0.905212 0.758426 0.271826
C21   C     C_R   0.521416 0.949751 0.625782 -0.130746
C22   C     C_R   0.554864 0.071967 0.608332 -0.011815
C23   C     C_R   0.531668 0.130790 0.490926 -0.148292
C24   C     C_R   0.508923 0.059553 0.373618 0.109185
C25   C     C_R   0.478789 0.935376 0.385754 0.126106
C26   C     C_R   0.491203 0.877581 0.509108 -0.111485
H3    H     H_    0.612010 0.615329 0.136033 0.151294
C27   C     C_R   0.384876 0.317520 0.105135 0.184153
C28   C     C_R   0.344689 0.234159 0.004470 0.106791
C29   C     C_R   0.328235 0.279286 0.878365 -0.314717
H4    H     H_    0.279332 0.231257 0.813414 0.192448
C30   C     C_R   0.356838 0.400645 0.854112 0.330782
C31   C     C_R   0.432261 0.444634 0.923222 0.012761
C32   C     C_R   0.438703 0.424221 0.063533 0.057838
N1    N     N_R   0.499210 0.498800 0.142780 -0.112894
C33   C     C_R   0.561837 0.563027 0.077679 -0.060132
C34   C     C_R   0.565108 0.556705 0.935291 0.302896
N2    N     N_R   0.499180 0.498720 0.857170 -0.131478
N3    N     N_R   0.042014 0.498452 0.230237 0.232086
O9    O     O_R   0.979989 0.471250 0.142899 -0.283014
O10   O     O_R   0.119979 0.513991 0.189679 -0.398759
N4    N     N_2   0.601153 0.897824 0.974180 -0.270436
H5    H     H_    0.567245 0.930433 0.053443 0.234709
C35   C     C_3   0.690673 0.882734 0.007863 -0.735001
H6    H     H_    0.695534 0.814698 0.088474 0.238484
H7    H     H_    0.722914 0.973028 0.044600 0.229462
H8    H     H_    0.724426 0.847070 0.919089 0.271179
N5    N     N_R   0.450769 0.825632 0.801600 0.225096
O11   O     O_R   0.378661 0.818052 0.732558 -0.380054
O12   O     O_R   0.453289 0.773349 0.916880 -0.409077
N6    N     N_2   0.432812 0.868147 0.277824 -0.275859
H9    H     H_    0.453243 0.880966 0.182386 0.243758
C36   C     C_3   0.340711 0.861666 0.289515 -0.706415
H10   H     H_    0.315775 0.956437 0.280016 0.229524
H11   H     H_    0.322478 0.823822 0.387420 0.239227
H12   H     H_    0.311006 0.797789 0.209036 0.264758
N7    N     N_2   0.362676 0.295505 0.239096 -0.234511
H13   H     H_    0.378013 0.207692 0.267133 0.242747
C37   C     C_3   0.272653 0.309556 0.265769 -0.661769
H14   H     H_    0.261680 0.296470 0.373597 0.200813
H15   H     H_    0.230105 0.238016 0.210983 0.228777
H16   H     H_    0.253767 0.403645 0.237561 0.292297
N8    N     N_2   0.306173 0.115969 0.037206 -0.344628
H17   H     H_    0.240186 0.113398 0.028429 0.246873
C38   C     C_3   0.338704 0.011089 0.963395 -0.645722
H18   H     H_    0.319369 0.013760 0.855834 0.261479
H19   H     H_    0.311948 0.922115 0.003041 0.277532
H20   H     H_    0.409562 0.013566 0.973129 0.230491
N9    N     N_R   0.291765 0.487661 0.826929 0.240505
O13   O     O_R   0.305350 0.606387 0.858580 -0.274319
O14   O     O_R   0.215363 0.447126 0.784546 -0.394504
N10   N     N_2   0.637001 0.615627 0.875888 -0.312804
H21   H     H_    0.627544 0.658693 0.786861 0.271666
C39   C     C_3   0.718244 0.559351 0.898016 -0.689558
H22   H     H_    0.764202 0.629229 0.949192 0.284114
H23   H     H_    0.744464 0.528698 0.801017 0.269580
H24   H     H_    0.711942 0.476174 0.961456 0.219547
N11   N     N_R   0.928758 0.324973 0.417101 0.226848
O15   O     O_R   0.949605 0.226091 0.479734 -0.414627
O16   O     O_R   0.872435 0.313615 0.318622 -0.363985
N12   N     N_2   0.937311 0.735278 0.324685 -0.279079
H25   H     H_    0.894315 0.791039 0.371087 0.231429
C40   C     C_3   0.997469 0.804215 0.243907 -0.623089
H26   H     H_    0.961766 0.861942 0.173763 0.245378
H27   H     H_    0.035450 0.739359 0.183704 0.291684
H28   H     H_    0.041303 0.867504 0.307958 0.211656
N13   N     N_2   0.081124 0.792637 0.571476 -0.270750
H29   H     H_    0.126698 0.821820 0.505114 0.227537
C41   C     C_3   0.027128 0.891040 0.614926 -0.642223
H30   H     H_    0.067917 0.975232 0.648728 0.241166
H31   H     H_    0.988321 0.861202 0.700334 0.279131
H32   H     H_    0.984169 0.917129 0.531626 0.232375
N14   N     N_R   0.961868 0.621387 0.757432 0.227410
O17   O     O_R   0.021319 0.622330 0.851072 -0.281554
O18   O     O_R   0.889283 0.669554 0.783038 -0.449592
N15   N     N_2   0.518620 0.113421 0.245934 -0.306182
H33   H     H_    0.482144 0.074827 0.166582 0.213497
C42   C     C_3   0.605820 0.150789 0.213365 -0.720235
H34   H     H_    0.606732 0.188847 0.111590 0.223816
H35   H     H_    0.646562 0.069182 0.217067 0.231236
H36   H     H_    0.633236 0.225042 0.285129 0.267062
N16   N     N_2   0.665450 0.237851 0.677024 -0.307547
H37   H     H_    0.682238 0.294938 0.760171 0.234959
C43   C     C_3   0.739271 0.207867 0.600217 -0.690125
H38   H     H_    0.779650 0.294250 0.585346 0.255134
H39   H     H_    0.718710 0.165671 0.500497 0.246574
H40   H     H_    0.778841 0.141602 0.654448 0.252633

loop_
_geom_bond_atom_site_label_1
_geom_bond_atom_site_label_2
_geom_bond_distance
_ccdc_geom_bond_type
C13   N13   1.449059 S    
N6    C36   1.445825 S    
N12   H25   1.030632 S    
C24   N15   1.428545 S    
C28   C29   1.389259 A    
C4    C8    1.398177 S    
C40   H26   1.110235 S    
C8    C16   1.184020 T    
C6    N3    1.457059 S    
N16   H37   1.031734 S    
C40   H28   1.108904 S    
C38   H18   1.110931 S    
N15   H33   1.024459 S    
Zn1   O7    1.974577 S    
N14   O18   1.299196 A    
C18   H2    1.081865 S    
C31   N2    1.365775 A    
C34   N10   1.414207 S    
C17   C18   1.393945 A    
C9    C11   1.544872 S    
N10   C39   1.449703 S    
O4    C2    1.295305 A    
O7    C4    1.297232 A    
C39   H23   1.108398 S    
C10   C15   1.428050 S    
C5    C6    1.527687 S    
C43   H38   1.106596 S    
N5    O12   1.300282 A    
C22   C23   1.400629 A    
N7    C37   1.454270 S    
C35   H8    1.110767 S    
O5    C3    1.298246 A    
C42   H34   1.110176 S    
N9    O14   1.302119 A    
C5    C9    1.544814 S    
C5    C12   1.537704 S    
C23   C24   1.400668 A    
C35   H7    1.109029 S    
C36   H11   1.111600 S    
N1    C33   1.359632 A    
C13   C14   1.545822 S    
C9    H1    1.110273 S    
C6    C10   1.540938 S    
C17   C22   1.416401 A    
C6    C14   1.537551 S    
C11   C12   1.540292 S    
C29   C30   1.380919 A    
O3    Zn1   1.954033 S    
C25   N6    1.428205 S    
N9    O13   1.300596 A    
C38   H19   1.109144 S    
N4    C35   1.449357 S    
C27   N7    1.417855 S    
N3    O9    1.300281 A    
C41   H30   1.110312 S    
N10   H21   1.028148 S    
O3    C2    1.296876 A    
C30   N9    1.442410 S    
C37   H15   1.104429 S    
C39   H22   1.108124 S    
C31   C32   1.429555 A    
C39   H24   1.112866 S    
N5    O11   1.302592 A    
O1    C1    1.308154 A    
C27   C32   1.459919 A    
N8    H17   1.031654 S    
C25   C26   1.413383 A    
C28   N8    1.422591 S    
N11   O16   1.300439 A    
N13   H29   1.030745 S    
C10   C13   1.541876 S    
C1    C23   1.455446 S    
Zn2   O8    1.954034 S    
C36   H12   1.110181 S    
C21   C22   1.398974 A    
N8    C38   1.442224 S    
C42   H36   1.109584 S    
C3    C26   1.464580 S    
C17   N16   1.422238 S    
Zn2   O6    1.981243 S    
C33   C34   1.425211 A    
N13   C41   1.445603 S    
O8    C4    1.295348 A    
C36   H10   1.111297 S    
C41   H32   1.108870 S    
C11   C13   1.536456 S    
C12   C14   1.544563 S    
O4    Zn2   1.974576 S    
C29   H4    1.083656 S    
C20   N5    1.445824 S    
C30   C31   1.399557 A    
C38   H20   1.108083 S    
N4    H5    1.026163 S    
C35   H6    1.109435 S    
C2    C7    1.398851 S    
C32   N1    1.409432 A    
C27   C28   1.427512 A    
O1    Zn1   1.981244 S    
C19   C20   1.414216 A    
O2    Zn2   2.009682 S    
Zn1   N2    2.041096 S    
O6    C3    1.312882 A    
C37   H16   1.107642 S    
N16   C43   1.447359 S    
C40   H27   1.108343 S    
N14   O17   1.300316 A    
C21   C26   1.428587 A    
C43   H40   1.111952 S    
C7    C15   1.183568 T    
C20   C21   1.425837 A    
C9    C10   1.553933 S    
O2    C1    1.298203 A    
Zn2   N1    2.039890 S    
C37   H14   1.109186 S    
C18   C19   1.397459 A    
C14   N12   1.448782 S    
C5    N11   1.457965 S    
N11   O15   1.300464 A    
N12   C40   1.445823 S    
N15   C42   1.448619 S    
C24   C25   1.394454 A    
C43   H39   1.110600 S    
C19   N4    1.422560 S    
N7    H13   1.028274 S    
C42   H35   1.108761 S    
N6    H9    1.026268 S    
Zn1   O5    2.009680 S    
C41   H31   1.107651 S    
C34   N2    1.380470 A    
C12   C16   1.429864 S    
N3    O10   1.299100 A    
C11   N14   1.454829 S    
H3    C33   1.081825 S    
