data_mof_unit_32517.cif
_audit_creation_date              2012-12-10T19:03:07-0500
_audit_creation_method            fapswitch 2.2
_symmetry_space_group_name_H-M    P1
_symmetry_Int_Tables_number       1
_space_group_crystal_system       triclinic
_cell_length_a                    10.784064
_cell_length_b                    10.866043
_cell_length_c                    9.601465
_cell_angle_alpha                 90.911628
_cell_angle_beta                  88.540237
_cell_angle_gamma                 92.71066
_cell_volume                      1123.35521233

loop_
_atom_site_label
_atom_site_type_symbol
_atom_type_description
_atom_site_fract_x
_atom_site_fract_y
_atom_site_fract_z
_atom_type_partial_charge
C1    C     C_R   0.496389 0.262776 0.498922 0.771096
C2    C     C_3   0.878740 0.494584 0.493580 0.067687
C3    C     C_3   0.941021 0.628765 0.484613 -0.093113
C4    C     C_3   0.929495 0.413538 0.367702 -0.066250
C5    C     C_R   0.505656 0.069209 0.621133 0.134542
C6    C     C_R   0.485405 0.129780 0.498575 -0.099659
C7    C     C_R   0.451777 0.060343 0.380013 -0.236016
C8    C     C_R   0.451385 0.931710 0.383241 -0.231172
C9    C     C_R   0.487261 0.871513 0.503970 -0.090105
C10   C     C_R   0.505301 0.942474 0.626199 0.129050
C11   C     C_3   0.610392 0.952312 0.726974 -0.509548
C12   C     C_R   0.260335 0.494687 0.500848 0.760891
C13   C     C_3   0.610540 0.090490 0.716637 -0.465844
C14   C     C_R   0.586642 0.569538 0.071605 0.224698
C15   C     C_R   0.430411 0.416183 0.078002 -0.085487
C16   C     C_R   0.424224 0.417914 0.929971 0.166043
C17   C     C_R   0.586809 0.568897 0.924702 0.230647
C18   C     C_3   0.603858 0.704150 0.920290 -0.512438
C19   C     C_3   0.607798 0.705576 0.077529 -0.509287
C20   C     C_R   0.497553 0.737838 0.501304 0.794273
C21   C     C_R   0.740216 0.500025 0.498289 0.774771
C22   C     C_3   0.063962 0.454953 0.642485 -0.419467
C23   C     C_3   0.922263 0.438300 0.631849 -0.428623
C24   C     C_3   0.082915 0.619635 0.462269 -0.443470
C25   C     C_3   0.072469 0.393222 0.386777 -0.067476
C26   C     C_3   0.122626 0.489483 0.499038 0.087343
Cu1   Cu    Cu3+1 0.499990 0.499980 0.640670 0.917489
Cu2   Cu    Cu3+1 0.500010 0.500020 0.359330 0.919183
H1    H     H_    0.112499 0.637790 0.352291 0.163617
H2    H     H_    0.429418 0.104877 0.284363 0.162114
H3    H     H_    0.427348 0.880125 0.289773 0.156694
H4    H     H_    0.581622 0.927006 0.834188 0.206117
H5    H     H_    0.581639 0.137464 0.814991 0.191905
H6    H     H_    0.695380 0.131489 0.663735 0.187498
H7    H     H_    0.378406 0.347880 0.138716 0.134229
H8    H     H_    0.100728 0.368291 0.677924 0.187209
H9    H     H_    0.693269 0.734115 0.868330 0.188916
H10   H     H_    0.518321 0.743443 0.881541 0.220443
H11   H     H_    0.701532 0.732548 0.115612 0.190710
H12   H     H_    0.892914 0.338824 0.635871 0.170955
H13   H     H_    0.880319 0.483735 0.725224 0.182235
H14   H     H_    0.131458 0.691285 0.528094 0.157240
H15   H     H_    0.927962 0.671623 0.590065 0.161839
N1    N     N_R   0.500800 0.500930 0.147930 -0.197127
N2    N     N_R   0.500800 0.500890 0.852020 -0.201976
O1    O     O_R   0.500000 0.319640 0.618810 -0.600343
O2    O     O_R   0.500010 0.319680 0.381230 -0.587196
O3    O     O_R   0.317690 0.499960 0.618790 -0.597630
O4    O     O_R   0.317700 0.500000 0.381210 -0.589837
O5    O     O_R   0.499990 0.680320 0.618770 -0.577987
O6    O     O_R   0.500000 0.680360 0.381190 -0.577060
O7    O     O_R   0.682300 0.500000 0.618790 -0.588122
O8    O     O_R   0.682310 0.500040 0.381210 -0.584744
H16   H     H_    0.087614 0.528533 0.720716 0.179267
H17   H     H_    0.927272 0.475399 0.276454 0.135186
C27   C     C_3   0.888103 0.716635 0.375733 -0.428669
C28   C     C_3   0.822537 0.822790 0.448729 -0.369700
C29   C     C_3   0.775408 0.914447 0.346264 -0.851858
H18   H     H_    0.849228 0.941287 0.268624 0.246035
H19   H     H_    0.694001 0.873855 0.291508 0.267112
H20   H     H_    0.746457 0.998329 0.403607 0.253439
H21   H     H_    0.743721 0.783559 0.512181 0.214177
H22   H     H_    0.888280 0.873154 0.519273 0.207693
H23   H     H_    0.963209 0.758559 0.307913 0.205281
H24   H     H_    0.823860 0.666738 0.304187 0.214094
H25   H     H_    0.697994 0.913565 0.688046 0.193744
C30   C     C_3   0.336577 0.319374 0.867297 -0.361745
C31   C     C_3   0.203605 0.317680 0.931509 -0.419268
C32   C     C_3   0.128590 0.200983 0.887866 -0.889207
H26   H     H_    0.136191 0.184141 0.773706 0.247386
H27   H     H_    0.163397 0.120025 0.941390 0.257730
H28   H     H_    0.029306 0.209873 0.917992 0.245829
H29   H     H_    0.201985 0.320239 0.046421 0.204264
H30   H     H_    0.156832 0.401032 0.900236 0.218531
H31   H     H_    0.326502 0.328456 0.755239 0.250278
H32   H     H_    0.376640 0.228602 0.884545 0.178524
H33   H     H_    0.529495 0.753817 0.127248 0.215068
H34   H     H_    0.119813 0.415278 0.285059 0.135659
C33   C     C_3   0.107470 0.259743 0.424930 -0.386047
C34   C     C_3   0.132954 0.177200 0.296756 -0.372770
C35   C     C_3   0.130263 0.041688 0.336570 -0.870114
H35   H     H_    0.196758 0.027205 0.420385 0.269111
H36   H     H_    0.036072 0.011705 0.374866 0.258562
H37   H     H_    0.155353 0.984350 0.244276 0.240657
H38   H     H_    0.064404 0.189212 0.214466 0.233335
H39   H     H_    0.226212 0.203336 0.251997 0.209724
H40   H     H_    0.194193 0.262498 0.485214 0.171629
H41   H     H_    0.035744 0.216544 0.495981 0.202062
C36   C     C_3   0.846117 0.295790 0.327909 -0.390916
C37   C     C_3   0.807780 0.298532 0.174504 -0.353125
C38   C     C_3   0.731396 0.183174 0.131716 -0.844842
H42   H     H_    0.790375 0.102353 0.128970 0.251366
H43   H     H_    0.651549 0.166528 0.205147 0.271062
H44   H     H_    0.695427 0.195278 0.025821 0.232869
H45   H     H_    0.751837 0.379936 0.157789 0.236855
H46   H     H_    0.892098 0.306977 0.105677 0.200022
H47   H     H_    0.889934 0.208090 0.344715 0.216836
H48   H     H_    0.761267 0.287066 0.395068 0.195416

loop_
_geom_bond_atom_site_label_1
_geom_bond_atom_site_label_2
_ccdc_geom_bond_type
Cu1   O3    S    
C8    C9    A    
Cu2   O2    S    
C24   H14   S    
C12   O3    A    
C33   H40   S    
C12   O4    A    
C28   C29   S    
C7    C8    A    
C22   H16   S    
C3    H15   S    
C18   H9    S    
C24   C26   S    
C15   N1    A    
C20   O6    A    
C5    C6    A    
Cu2   O6    S    
C1    O1    A    
C31   H30   S    
C27   H24   S    
C27   C28   S    
C19   H33   S    
C18   C19   S    
Cu2   O4    S    
C32   H27   S    
C24   H1    S    
C20   O5    A    
C31   C32   S    
C34   H39   S    
C27   H23   S    
C9    C10   A    
C5    C13   S    
Cu1   O5    S    
Cu1   N2    S    
C29   H20   S    
C7    H2    S    
C14   C17   A    
C3    C24   S    
C15   H7    S    
C33   H41   S    
C35   H36   S    
C28   H22   S    
C15   C16   A    
C30   C31   S    
C28   H21   S    
C38   H42   S    
C16   C30   S    
C1    O2    A    
C29   H18   S    
C25   H34   S    
Cu2   N1    S    
C35   H35   S    
C1    C6    S    
C36   H47   S    
C32   H28   S    
C2    C4    S    
C13   H5    S    
C34   H38   S    
C38   H43   S    
C3    C27   S    
C9    C20   S    
C2    C21   S    
C17   C18   S    
C25   C26   S    
C19   H11   S    
Cu1   O1    S    
C11   H4    S    
C4    H17   S    
C30   H31   S    
C4    C25   S    
C2    C23   S    
C35   H37   S    
Cu1   O7    S    
C14   N1    A    
C4    C36   S    
C25   C33   S    
C8    H3    S    
C14   C19   S    
C17   N2    A    
C34   C35   S    
C37   H45   S    
C16   N2    A    
Cu2   O8    S    
C11   H25   S    
C37   H46   S    
C6    C7    A    
C22   H8    S    
C23   H13   S    
C36   H48   S    
C2    C3    S    
C31   H29   S    
C5    C10   A    
C38   H44   S    
C21   O8    A    
C11   C13   S    
C37   C38   S    
C18   H10   S    
C32   H26   S    
C10   C11   S    
C33   C34   S    
C13   H6    S    
C22   C26   S    
C12   C26   S    
Cu1   Cu2   S    
C22   C23   S    
C30   H32   S    
C36   C37   S    
C29   H19   S    
C21   O7    A    
C23   H12   S    
