data_mof_unit_24071.cif
_audit_creation_date              2012-12-10T16:43:00-0500
_audit_creation_method            fapswitch 2.2
_symmetry_space_group_name_H-M    P1
_symmetry_Int_Tables_number       1
_space_group_crystal_system       triclinic
_cell_length_a                    7.465511
_cell_length_b                    8.691879
_cell_length_c                    12.965145
_cell_angle_alpha                 88.307791
_cell_angle_beta                  79.3149
_cell_angle_gamma                 102.117163
_cell_volume                      806.239336133

loop_
_atom_site_label
_atom_site_type_symbol
_atom_type_description
_atom_site_fract_x
_atom_site_fract_y
_atom_site_fract_z
_atom_type_partial_charge
C1    C     C_R   0.454235 0.200566 0.506283 0.846108
C2    C     C_R   0.545765 0.799434 0.493719 0.846097
C3    C     C_R   0.466748 0.496585 0.701252 0.800856
C4    C     C_R   0.533253 0.503421 0.298748 0.800865
C5    C     C_R   0.552260 0.504963 0.185259 -0.042629
C6    C     C_R   0.447743 0.495059 0.814739 -0.042627
C7    C     C_R   0.253643 0.482847 0.987447 -0.252411
C8    C     C_R   0.746362 0.517195 0.012551 -0.252419
C9    C     C_R   0.271357 0.483203 0.879066 -0.183407
C10   C     C_R   0.728648 0.516832 0.120933 -0.183427
C11   C     C_R   0.605890 0.505378 0.859378 -0.298857
C12   C     C_R   0.394113 0.494650 0.140621 -0.298846
C13   C     C_R   0.588712 0.505612 0.967755 0.183551
C14   C     C_R   0.411293 0.494424 0.032243 0.183551
C15   C     C_2   0.434477 0.035057 0.526029 -0.237811
C16   C     C_2   0.565521 0.964943 0.473972 -0.237790
Cu1   Cu    Cu3+1 0.686350 0.517570 0.488220 0.943505
Cu2   Cu    Cu3+1 0.313650 0.482430 0.511780 0.943514
H1    H     H_    0.117615 0.472567 0.036608 0.131781
H2    H     H_    0.882392 0.527482 0.963389 0.131791
N1    N     N_2   0.033570 0.455950 0.529530 -0.218989
N2    N     N_2   0.966430 0.544050 0.470470 -0.219000
O1    O     O_R   0.621060 0.286250 0.492350 -0.576359
O2    O     O_R   0.378940 0.713750 0.507650 -0.576375
O3    O     O_R   0.306310 0.256580 0.512240 -0.597001
O4    O     O_R   0.693690 0.743420 0.487760 -0.597021
O5    O     O_R   0.631800 0.512400 0.642670 -0.602838
O6    O     O_R   0.368200 0.487600 0.357330 -0.602822
O7    O     O_R   0.317060 0.482730 0.662570 -0.579322
O8    O     O_R   0.682940 0.517270 0.337430 -0.579319
H3    H     H_    0.257734 0.486838 0.189880 0.157510
H4    H     H_    0.742268 0.513185 0.810119 0.157508
H5    H     H_    0.852700 0.525884 0.154348 0.159053
H6    H     H_    0.147306 0.474153 0.845650 0.159051
H7    H     H_    0.934649 0.376564 0.582210 0.220979
H8    H     H_    0.065351 0.623436 0.417790 0.220969
C17   C     C_R   0.293942 0.959445 0.620149 0.130034
C18   C     C_R   0.347343 0.947670 0.717873 -0.164663
C19   C     C_R   0.213396 0.885249 0.807738 -0.122847
C20   C     C_R   0.025856 0.835210 0.800491 -0.148188
C21   C     C_R   0.972434 0.844123 0.703083 -0.136806
C22   C     C_R   0.106225 0.905441 0.612984 -0.062270
H9    H     H_    0.491913 0.988599 0.724468 0.113732
H10   H     H_    0.254582 0.877232 0.883149 0.137501
H11   H     H_    0.921894 0.790287 0.870400 0.137874
H12   H     H_    0.827323 0.804508 0.697512 0.144368
H13   H     H_    0.064407 0.910154 0.537723 0.117578
C23   C     C_R   0.706045 0.040555 0.379848 0.130041
C24   C     C_R   0.893781 0.094501 0.386991 -0.062308
C25   C     C_R   0.027550 0.155842 0.296886 -0.136783
C26   C     C_R   0.974087 0.164838 0.199496 -0.148169
C27   C     C_R   0.786530 0.114855 0.192272 -0.122860
C28   C     C_R   0.652605 0.052412 0.282141 -0.164641
H14   H     H_    0.935633 0.089725 0.462236 0.117584
H15   H     H_    0.172676 0.195414 0.302439 0.144324
H16   H     H_    0.078030 0.209778 0.129584 0.137861
H17   H     H_    0.745312 0.122936 0.116877 0.137511
H18   H     H_    0.508020 0.011531 0.275564 0.113711

loop_
_geom_bond_atom_site_label_1
_geom_bond_atom_site_label_2
_ccdc_geom_bond_type
C28   H18   S    
C8    C13   A    
N1    H7    S    
Cu2   N1    S    
C2    C16   S    
C21   C22   A    
C25   H15   S    
C21   H12   S    
C3    C6    S    
C20   H11   S    
C16   C23   S    
C6    C9    A    
C3    O5    A    
Cu1   Cu2   S    
C4    O8    A    
C18   H9    S    
C2    O4    A    
Cu2   O7    S    
Cu1   O1    S    
C13   C14   A    
C1    O3    A    
Cu1   O8    S    
C11   C13   A    
C26   C27   A    
C8    H2    S    
Cu2   O3    S    
C1    C15   S    
Cu1   O4    S    
C26   H16   S    
C23   C24   A    
C4    O6    A    
C17   C18   A    
C12   C14   A    
C11   H4    S    
C1    O1    A    
C10   H5    S    
C7    H1    S    
C22   H13   S    
C6    C11   A    
C12   H3    S    
C2    O2    A    
C23   C28   A    
Cu2   O2    S    
C27   H17   S    
C19   H10   S    
C15   C16   D    
Cu1   O5    S    
C7    C9    A    
C5    C10   A    
Cu2   O6    S    
C27   C28   A    
C5    C12   A    
C8    C10   A    
C24   C25   A    
C15   C17   S    
C17   C22   A    
C3    O7    A    
C19   C20   A    
C20   C21   A    
C24   H14   S    
C25   C26   A    
N1    N2    D    
C7    C14   A    
N2    H8    S    
Cu1   N2    S    
C9    H6    S    
C4    C5    S    
C18   C19   A    
