data_mof_unit_39436.cif
_audit_creation_date              2012-12-10T17:43:32-0500
_audit_creation_method            fapswitch 2.2
_symmetry_space_group_name_H-M    P1
_symmetry_Int_Tables_number       1
_space_group_crystal_system       triclinic
_cell_length_a                    14.947427
_cell_length_b                    10.637396
_cell_length_c                    10.075294
_cell_angle_alpha                 90.598704
_cell_angle_beta                  90.117627
_cell_angle_gamma                 96.24476
_cell_volume                      1592.38800112

loop_
_atom_site_label
_atom_site_type_symbol
_atom_type_description
_atom_site_fract_x
_atom_site_fract_y
_atom_site_fract_z
_atom_type_partial_charge
C1    C     C_R   0.515182 0.265048 0.499790 0.844789
C2    C     C_R   0.176140 0.385077 0.479107 0.048778
C3    C     C_R   0.231181 0.499397 0.500806 -0.168434
C4    C     C_R   0.327482 0.499844 0.500069 0.890309
C5    C     C_R   0.195029 0.613838 0.524439 -0.085235
C6    C     C_R   0.580062 0.138536 0.741349 -0.206500
C7    C     C_R   0.568810 0.078728 0.863802 0.117506
C8    C     C_R   0.517842 0.960511 0.869932 0.057197
C9    C     C_R   0.488595 0.897638 0.752786 -0.231536
C10   C     C_R   0.514864 0.948317 0.627957 0.101018
C11   C     C_R   0.546534 0.076528 0.624260 0.065759
C12   C     C_R   0.913208 0.609299 0.538896 0.124879
C13   C     C_R   0.543222 0.138351 0.502119 -0.186114
C14   C     C_R   0.553841 0.069467 0.384797 0.093916
C15   C     C_R   0.543197 0.939489 0.389930 -0.166895
C16   C     C_R   0.501271 0.741091 0.501684 0.885077
C17   C     C_R   0.513949 0.878132 0.506734 -0.143834
C18   C     C_R   0.396805 0.297252 0.133210 0.083004
C19   C     C_R   0.366628 0.185787 0.064438 -0.011283
C20   C     C_R   0.366566 0.185318 0.927891 0.014255
C21   C     C_R   0.396822 0.296598 0.861213 0.139342
C22   C     C_R   0.449733 0.400985 0.926625 0.039617
C23   C     C_R   0.933691 0.282931 0.409421 -0.058506
C24   C     C_R   0.449892 0.401045 0.070591 0.064740
C25   C     C_R   0.551485 0.587806 0.072221 -0.115601
C26   C     C_R   0.552488 0.587027 0.930345 0.007710
C27   C     C_R   0.672251 0.501821 0.500107 0.851897
C28   C     C_R   0.820603 0.608147 0.542606 -0.239037
C29   C     C_R   0.766929 0.501165 0.499987 -0.043842
C30   C     C_R   0.802840 0.394066 0.454651 -0.243800
C31   C     C_R   0.895886 0.391311 0.453184 0.056676
C32   C     C_R   0.951806 0.500555 0.495658 0.054074
C33   C     C_1   0.493958 0.901039 0.994242 0.134931
C34   C     C_R   0.027292 0.281348 0.412584 0.051002
C35   C     C_1   0.615018 0.676829 0.863160 0.225651
C36   C     C_1   0.877269 0.171952 0.361259 0.126627
C37   C     C_1   0.255715 0.729818 0.536120 0.215902
C38   C     C_R   0.083320 0.388420 0.461681 0.086762
C39   C     C_R   0.045569 0.501157 0.496234 -0.078768
C40   C     C_R   0.101047 0.614002 0.533057 0.083539
C41   C     C_R   0.060045 0.722202 0.576192 0.099983
C42   C     C_R   0.966890 0.717805 0.578778 -0.270532
H1    H     H_    0.789988 0.690754 0.576373 0.148545
H2    H     H_    0.285668 0.318242 0.236843 0.199021
H3    H     H_    0.357301 0.230666 0.313426 0.215271
H4    H     H_    0.347555 0.998907 0.112171 0.216509
H5    H     H_    0.251965 0.071671 0.107660 0.189772
H6    H     H_    0.249659 0.078797 0.877937 0.178694
H7    H     H_    0.340409 0.996630 0.883760 0.201929
H8    H     H_    0.284960 0.318135 0.758201 0.163959
H9    H     H_    0.355924 0.229893 0.679606 0.205171
H10   H     H_    0.046369 0.160734 0.259861 0.191958
H11   H     H_    0.040761 0.093205 0.412283 0.185154
H12   H     H_    0.616770 0.232055 0.737823 0.165993
H13   H     H_    0.184832 0.215953 0.564609 0.186694
H14   H     H_    0.281398 0.273363 0.496123 0.161034
H15   H     H_    0.095126 0.911000 0.565220 0.185366
H16   H     H_    0.092566 0.852706 0.721038 0.183234
H17   H     H_    0.629592 0.203641 0.279513 0.198805
H18   H     H_    0.523989 0.160424 0.218600 0.230985
H19   H     H_    0.444548 0.810865 0.762365 0.183467
H20   H     H_    0.557222 0.886794 0.301776 0.197748
H21   H     H_    0.594242 0.659651 0.126276 0.148595
H22   H     H_    0.757260 0.313141 0.422649 0.138669
H23   H     H_    0.936417 0.800394 0.612723 0.151080
H24   H     H_    0.676574 0.154525 0.968674 0.193802
H25   H     H_    0.583302 0.228491 0.989207 0.175849
N1    N     N_R   0.499150 0.498800 0.142780 -0.100031
N2    N     N_1   0.832268 0.083528 0.322958 -0.207158
N3    N     N_3   0.065769 0.173411 0.359299 -0.432851
N4    N     N_3   0.212226 0.264698 0.481974 -0.440244
N5    N     N_1   0.303566 0.822624 0.545113 -0.217659
N6    N     N_3   0.111456 0.835685 0.623148 -0.450948
N7    N     N_3   0.580252 0.127815 0.261852 -0.425486
N8    N     N_R   0.499120 0.498720 0.857170 -0.123626
N9    N     N_3   0.606814 0.139757 0.981059 -0.449715
N10   N     N_1   0.473078 0.851145 0.092454 -0.225601
N11   N     N_3   0.353801 0.311377 0.256188 -0.344135
N12   N     N_3   0.319787 0.081977 0.135475 -0.468011
N13   N     N_3   0.318090 0.081912 0.855433 -0.471206
N14   N     N_3   0.352968 0.310696 0.738697 -0.353920
N15   N     N_1   0.665848 0.748719 0.809381 -0.217730
O1    O     O_R   0.500000 0.316780 0.614690 -0.613146
O2    O     O_R   0.499990 0.316750 0.385360 -0.625733
O3    O     O_R   0.367850 0.499980 0.614680 -0.599766
O4    O     O_R   0.367840 0.499960 0.385350 -0.584985
O5    O     O_R   0.500010 0.683250 0.614640 -0.624959
O6    O     O_R   0.500000 0.683220 0.385310 -0.609579
O7    O     O_R   0.632160 0.500040 0.614650 -0.620302
O8    O     O_R   0.632150 0.500020 0.385320 -0.621746
Zn1   Zn    Zn3+2 0.500010 0.500020 0.653130 0.955801
Zn2   Zn    Zn3+2 0.499990 0.499980 0.346870 0.960409

loop_
_geom_bond_atom_site_label_1
_geom_bond_atom_site_label_2
_ccdc_geom_bond_type
C5    C37   S    
C27   C29   S    
C41   C42   A    
C19   C20   A    
H5    N12   S    
O3    Zn1   S    
C7    C8    A    
C1    O2    A    
C12   C28   A    
C9    H19   S    
C14   N7    S    
C28   C29   A    
C30   H22   S    
C38   C39   A    
C4    O4    A    
C10   C17   A    
C27   O8    A    
C18   C19   A    
C25   H21   S    
C32   C39   A    
H15   N6    S    
C12   C42   A    
H4    N12   S    
O6    Zn2   S    
C8    C9    A    
C42   H23   S    
H3    N11   S    
C18   C24   A    
O7    Zn1   S    
C9    C10   A    
C34   N3    S    
N8    Zn1   S    
H14   N4    S    
C13   C14   A    
C12   C32   A    
C25   N1    A    
C22   N8    A    
C6    H12   S    
H11   N3    S    
C35   N15   T    
O5    Zn1   S    
C20   N13   S    
C6    C11   A    
C16   C17   S    
C4    O3    A    
C25   C26   A    
C23   C31   A    
C29   C30   A    
C16   O5    A    
C2    C38   A    
O8    Zn2   S    
C31   C32   A    
C18   N11   S    
C23   C34   A    
H24   N9    S    
C26   N8    A    
C19   N12   S    
H17   N7    S    
C6    C7    A    
C40   C41   A    
C21   N14   S    
C22   C24   A    
C5    C40   A    
C1    C13   S    
C2    N4    S    
C39   C40   A    
C36   N2    T    
C15   C17   A    
H9    N14   S    
C34   C38   A    
C3    C5    A    
C7    N9    S    
C1    O1    A    
O1    Zn1   S    
C28   H1    S    
H7    N13   S    
H6    N13   S    
H2    N11   S    
C2    C3    A    
O4    Zn2   S    
C11   C13   A    
C33   N10   T    
C30   C31   A    
H18   N7    S    
N1    Zn2   S    
C15   H20   S    
C27   O7    A    
C8    C33   S    
H10   N3    S    
C10   C11   A    
C24   N1    A    
C41   N6    S    
C26   C35   S    
C20   C21   A    
H8    N14   S    
C23   C36   S    
C37   N5    T    
C16   O6    A    
C14   C15   A    
H25   N9    S    
O2    Zn2   S    
C21   C22   A    
H13   N4    S    
C3    C4    S    
H16   N6    S    
