data_mof_unit_37345.cif
_audit_creation_date              2012-12-10T18:24:43-0500
_audit_creation_method            fapswitch 2.2
_symmetry_space_group_name_H-M    P1
_symmetry_Int_Tables_number       1
_space_group_crystal_system       triclinic
_cell_length_a                    13.999804
_cell_length_b                    15.009096
_cell_length_c                    16.630696
_cell_angle_alpha                 90.401983
_cell_angle_beta                  85.018714
_cell_angle_gamma                 90.561328
_cell_volume                      3481.0829246

loop_
_atom_site_label
_atom_site_type_symbol
_atom_type_description
_atom_site_fract_x
_atom_site_fract_y
_atom_site_fract_z
_atom_type_partial_charge
C1    C     C_R   0.500293 0.673168 0.502662 0.888212
C2    C     C_R   0.499792 0.327029 0.496982 0.883289
C3    C     C_R   0.551001 0.188992 0.548268 -0.295999
C4    C     C_R   0.447631 0.811589 0.452045 -0.289768
C5    C     C_R   0.499302 0.231710 0.492900 -0.104852
C6    C     C_R   0.501108 0.768812 0.506301 -0.104136
C7    C     C_R   0.448352 0.184545 0.436497 0.043990
C8    C     C_R   0.554840 0.816385 0.560672 0.047155
C9    C     C_R   0.447715 0.090588 0.439955 0.060219
C10   C     C_R   0.553771 0.910298 0.558122 0.061615
C11   C     C_R   0.500076 0.047098 0.497688 -0.011866
C12   C     C_R   0.500241 0.953672 0.501179 -0.013081
C13   C     C_R   0.552583 0.096998 0.551791 0.114746
C14   C     C_R   0.447030 0.903713 0.447653 0.113941
C15   C     C_R   0.396253 0.039150 0.387205 -0.235648
C16   C     C_R   0.604927 0.961811 0.611081 -0.235784
C17   C     C_R   0.394983 0.946666 0.390397 0.206691
C18   C     C_R   0.604948 0.054170 0.608795 0.203403
C19   C     C_R   0.197419 0.431912 0.535642 -0.050309
C20   C     C_R   0.802710 0.566845 0.462410 -0.049879
C21   C     C_R   0.206853 0.567580 0.462994 -0.062957
C22   C     C_R   0.793222 0.432032 0.536353 -0.069638
C23   C     C_R   0.486558 0.501250 0.654053 0.842686
C24   C     C_R   0.513547 0.501739 0.346282 0.839057
C25   C     C_R   0.105902 0.569817 0.461367 0.006665
C26   C     C_R   0.894276 0.428814 0.536387 0.006393
C27   C     C_R   0.050743 0.499526 0.498484 0.029348
C28   C     C_R   0.949457 0.498879 0.498903 0.029963
C29   C     C_R   0.096973 0.429741 0.535268 -0.012924
C30   C     C_R   0.903248 0.568357 0.461670 -0.016784
C31   C     C_R   0.058599 0.639611 0.424059 0.217275
C32   C     C_R   0.941680 0.358080 0.572200 0.218968
C33   C     C_R   0.957884 0.637810 0.424507 -0.222092
C34   C     C_R   0.042428 0.359297 0.570832 -0.223474
C35   C     C_R   0.478849 0.524849 0.739882 -0.066136
C36   C     C_R   0.522920 0.526126 0.261407 -0.061270
C37   C     C_R   0.551515 0.580130 0.766187 -0.255706
C38   C     C_R   0.457848 0.588911 0.237006 -0.237340
C39   C     C_R   0.543544 0.616980 0.842693 -0.162807
C40   C     C_R   0.468304 0.623401 0.159868 -0.166893
C41   C     C_R   0.464778 0.595477 0.896595 0.174417
C42   C     C_R   0.543013 0.594190 0.105123 0.172908
C43   C     C_R   0.391415 0.540667 0.871468 -0.202029
C44   C     C_R   0.610392 0.533971 0.129576 -0.198906
C45   C     C_R   0.397468 0.504128 0.793426 0.101511
C46   C     C_R   0.601177 0.498760 0.207518 0.086352
C47   C     C_2   0.464018 0.617728 0.982477 -0.226465
C48   C     C_2   0.545498 0.615716 0.019414 -0.226385
H1    H     H_    0.614625 0.596620 0.726966 0.167984
H2    H     H_    0.399773 0.613269 0.278485 0.154603
H3    H     H_    0.234096 0.379418 0.564491 0.128207
H4    H     H_    0.766087 0.618885 0.432901 0.123711
H5    H     H_    0.251973 0.619435 0.434882 0.150465
H6    H     H_    0.748099 0.380444 0.564887 0.155794
H7    H     H_    0.921717 0.691131 0.396061 0.140879
H8    H     H_    0.078609 0.304966 0.597759 0.139581
H9    H     H_    0.614123 0.608762 0.984302 0.146804
H10   H     H_    0.395073 0.615199 0.017855 0.147882
H11   H     H_    0.331475 0.522551 0.914139 0.127008
H12   H     H_    0.667954 0.511270 0.086696 0.125215
H13   H     H_    0.417138 0.671896 0.142775 0.134364
H14   H     H_    0.600283 0.660740 0.860005 0.132461
H15   H     H_    0.588852 0.229321 0.589725 0.167393
H16   H     H_    0.408269 0.771234 0.411652 0.165250
H17   H     H_    0.355641 0.069830 0.342857 0.154466
H18   H     H_    0.645993 0.931429 0.655244 0.155408
N1    N     N_R   0.249970 0.499930 0.499970 -0.105869
N2    N     N_R   0.750030 0.500070 0.500030 -0.104405
O1    O     O_R   0.419720 0.632140 0.499990 -0.624205
O2    O     O_R   0.580280 0.367860 0.500010 -0.625414
O3    O     O_R   0.580270 0.632160 0.499980 -0.622059
O4    O     O_R   0.419730 0.367840 0.500020 -0.621361
O5    O     O_R   0.410240 0.500000 0.615800 -0.610408
O6    O     O_R   0.589760 0.500000 0.384200 -0.606633
O7    O     O_R   0.570790 0.500020 0.615800 -0.620186
O8    O     O_R   0.429210 0.499980 0.384200 -0.622419
Zn1   Zn    Zn3+2 0.392800 0.499980 0.500010 0.926992
Zn2   Zn    Zn3+2 0.607200 0.500020 0.499990 0.926918
C49   C     C_3   0.113603 0.716581 0.384166 -0.964258
H19   H     H_    0.164561 0.691648 0.334371 0.237414
H20   H     H_    0.065385 0.764990 0.358258 0.247152
H21   H     H_    0.153753 0.752505 0.429329 0.241083
C50   C     C_3   0.886777 0.280643 0.611365 -0.959730
H22   H     H_    0.845584 0.245989 0.566144 0.240014
H23   H     H_    0.935146 0.231328 0.635826 0.247385
H24   H     H_    0.836799 0.304866 0.662138 0.240618
C51   C     C_3   0.673691 0.430862 0.229653 -0.421822
C52   C     C_3   0.766559 0.477065 0.251042 -0.303059
C53   C     C_3   0.833754 0.411623 0.286891 -0.859650
H25   H     H_    0.799117 0.383084 0.343743 0.270563
H26   H     H_    0.852759 0.356872 0.243320 0.253931
H27   H     H_    0.900518 0.446896 0.300796 0.249449
H28   H     H_    0.803813 0.507028 0.195816 0.205486
H29   H     H_    0.749946 0.531551 0.295449 0.236480
H30   H     H_    0.643629 0.388442 0.280317 0.205215
H31   H     H_    0.690163 0.384549 0.177912 0.186774
C54   C     C_3   0.320064 0.438758 0.773055 -0.427774
C55   C     C_3   0.227909 0.487169 0.756311 -0.310469
C56   C     C_3   0.144575 0.421572 0.752057 -0.889984
H32   H     H_    0.164509 0.367104 0.708570 0.254946
H33   H     H_    0.124936 0.392203 0.812422 0.257665
H34   H     H_    0.081334 0.456743 0.732288 0.259950
H35   H     H_    0.208241 0.536582 0.804925 0.214976
H36   H     H_    0.239459 0.523437 0.698207 0.244369
H37   H     H_    0.344208 0.395813 0.720730 0.199570
H38   H     H_    0.304985 0.392730 0.824863 0.197505
C57   C     C_3   0.398688 0.234741 0.372282 -0.411473
C58   C     C_3   0.290785 0.244547 0.396674 -0.306441
C59   C     C_3   0.244794 0.309824 0.341971 -0.861056
H39   H     H_    0.277784 0.377081 0.346549 0.279760
H40   H     H_    0.254014 0.286441 0.278286 0.252530
H41   H     H_    0.166953 0.314830 0.360840 0.247848
H42   H     H_    0.253729 0.179085 0.393594 0.206734
H43   H     H_    0.279171 0.268787 0.459885 0.233501
H44   H     H_    0.431732 0.301567 0.361417 0.201908
H45   H     H_    0.410983 0.201638 0.312455 0.178855
C60   C     C_3   0.611779 0.766995 0.620597 -0.410676
C61   C     C_3   0.718813 0.763764 0.590648 -0.307422
C62   C     C_3   0.774193 0.701972 0.641868 -0.883370
H46   H     H_    0.764604 0.722269 0.706397 0.252211
H47   H     H_    0.749194 0.632103 0.635312 0.271320
H48   H     H_    0.851715 0.705251 0.621147 0.254142
H49   H     H_    0.727192 0.740038 0.527101 0.231286
H50   H     H_    0.751405 0.831374 0.592109 0.211094
H51   H     H_    0.601265 0.797163 0.681777 0.180624
H52   H     H_    0.583639 0.698641 0.630711 0.211416
C63   C     C_3   0.337914 0.895698 0.331702 -0.951824
H53   H     H_    0.301824 0.940584 0.291256 0.241878
H54   H     H_    0.386173 0.851732 0.293008 0.241666
H55   H     H_    0.281444 0.854977 0.365380 0.245770
C64   C     C_3   0.661595 0.105096 0.667848 -0.947691
H56   H     H_    0.698526 0.060203 0.707726 0.241738
H57   H     H_    0.717383 0.146828 0.634454 0.246637
H58   H     H_    0.612851 0.148026 0.707129 0.241132

loop_
_geom_bond_atom_site_label_1
_geom_bond_atom_site_label_2
_ccdc_geom_bond_type
C25   C31   A    
C21   H5    S    
C51   C52   S    
C26   C32   A    
C27   C29   A    
O1    Zn1   S    
N1    Zn1   S    
C64   H58   S    
C54   C55   S    
C48   H9    S    
C39   C41   A    
C20   C30   A    
C34   H8    S    
C1    O3    A    
C13   C18   A    
C35   C37   A    
C59   H40   S    
O2    Zn2   S    
C55   H35   S    
C15   H17   S    
C58   C59   S    
C15   C17   A    
C58   H43   S    
C32   C50   S    
C61   C62   S    
C56   H32   S    
C51   H30   S    
C57   C58   S    
C31   C33   A    
C36   C46   A    
C53   H26   S    
C60   H52   S    
C3    C13   A    
C43   H11   S    
C54   H37   S    
C40   C42   A    
C61   H50   S    
C21   N1    A    
C41   C43   A    
C14   C17   A    
C18   C64   S    
C42   C44   A    
C23   O5    A    
C2    O4    A    
C44   C46   A    
C8    C60   S    
C62   H47   S    
N2    Zn2   S    
C37   C39   A    
C52   H29   S    
C1    C6    S    
C47   C48   D    
O8    Zn1   S    
C4    C6    A    
C59   H41   S    
C5    C7    A    
C24   O8    A    
C6    C8    A    
C3    C5    A    
C29   C34   A    
C1    O1    A    
C40   H13   S    
C32   C34   A    
C58   H42   S    
C63   H54   S    
O4    Zn1   S    
C37   H1    S    
C50   H22   S    
C62   H46   S    
C22   N2    A    
C51   H31   S    
C50   H24   S    
C41   C47   S    
C33   H7    S    
C42   C48   S    
C53   H27   S    
C19   N1    A    
C9    C11   A    
C57   H44   S    
C10   C12   A    
C54   H38   S    
C16   C18   A    
C56   H33   S    
C12   C14   A    
C23   C35   S    
C22   H6    S    
O6    Zn2   S    
C7    C57   S    
C2    C5    S    
C16   H18   S    
C64   H56   S    
C19   C29   A    
C49   H20   S    
C46   C51   S    
C62   H48   S    
C7    C9    A    
C39   H14   S    
C21   C25   A    
C52   H28   S    
C30   C33   A    
C50   H23   S    
C20   N2    A    
C17   C63   S    
C23   O7    A    
C64   H57   S    
C49   H21   S    
C11   C12   A    
C31   C49   S    
C38   H2    S    
C3    H15   S    
C25   C27   A    
C4    H16   S    
C26   C28   A    
C24   C36   S    
C20   H4    S    
C28   C30   A    
C9    C15   A    
C63   H55   S    
C43   C45   A    
C45   C54   S    
C60   C61   S    
C47   H10   S    
C38   C40   A    
C11   C13   A    
C24   O6    A    
C2    O2    A    
C44   H12   S    
C55   H36   S    
C36   C38   A    
C61   H49   S    
C4    C14   A    
O7    Zn2   S    
C57   H45   S    
C49   H19   S    
C19   H3    S    
C56   H34   S    
C52   C53   S    
C8    C10   A    
C55   C56   S    
C22   C26   A    
C27   C28   A    
O5    Zn1   S    
C10   C16   A    
C53   H25   S    
C59   H39   S    
C60   H51   S    
O3    Zn2   S    
C63   H53   S    
C35   C45   A    
