data_mof_unit_59617.cif
_audit_creation_date              2012-12-10T17:33:57-0500
_audit_creation_method            fapswitch 2.2
_symmetry_space_group_name_H-M    P1
_symmetry_Int_Tables_number       1
_space_group_crystal_system       triclinic
_cell_length_a                    10.65796
_cell_length_b                    12.049054
_cell_length_c                    12.707933
_cell_angle_alpha                 94.508363
_cell_angle_beta                  91.489844
_cell_angle_gamma                 86.755529
_cell_volume                      1623.89372456

loop_
_atom_site_label
_atom_site_type_symbol
_atom_type_description
_atom_site_fract_x
_atom_site_fract_y
_atom_site_fract_z
_atom_type_partial_charge
C1    C     C_R   0.482600 0.522906 0.699748 0.875222
C2    C     C_R   0.480100 0.447388 0.971682 0.021714
C3    C     C_R   0.501451 0.552220 0.025552 0.023931
C4    C     C_R   0.742129 0.500795 0.503662 0.854623
C5    C     C_R   0.549502 0.557413 0.129044 0.137572
C6    C     C_R   0.539339 0.356234 0.130396 0.144811
C7    C     C_R   0.514952 0.348970 0.021552 0.241083
C8    C     C_R   0.373276 0.953109 0.407028 0.076730
C9    C     C_R   0.390466 0.835981 0.411313 0.285769
C10   C     C_R   0.552259 0.859741 0.543398 0.011687
C11   C     C_R   0.537332 0.978480 0.543827 0.026681
C12   C     C_3   0.122253 0.500001 0.508793 0.042936
C13   C     C_R   0.450848 0.024244 0.470347 -0.058997
C14   C     C_R   0.446157 0.140617 0.460497 -0.034842
C15   C     C_R   0.601774 0.167358 0.594113 -0.097998
C16   C     C_R   0.515850 0.477428 0.299536 0.886528
C17   C     C_R   0.606869 0.054226 0.612362 -0.035771
C18   C     C_R   0.258396 0.500268 0.505323 0.868387
C19   C     C_3   0.935537 0.425144 0.593372 0.052901
C20   C     C_3   0.080621 0.427252 0.595638 -0.471451
C21   C     C_3   0.930172 0.450649 0.397213 -0.177439
C22   C     C_3   0.921583 0.621039 0.530434 -0.385882
C23   C     C_3   0.074997 0.449520 0.400008 -0.440621
C24   C     C_3   0.879119 0.500582 0.506270 -0.001599
C25   C     C_2   0.874767 0.508640 0.303966 0.381229
C26   C     C_3   0.703496 0.699989 0.108384 -0.736325
C27   C     C_3   0.480400 0.180221 0.189743 -0.718633
C28   C     C_3   0.669579 0.240166 0.915798 -0.794095
C29   C     C_3   0.407581 0.852426 0.871931 -0.730540
C30   C     C_2   0.347997 0.360816 0.822765 0.339041
C31   C     C_3   0.896528 0.374451 0.773015 -0.783513
C32   C     C_3   0.166846 0.046291 0.386202 -0.791596
C33   C     C_2   0.676380 0.024872 0.709421 0.423434
C34   C     C_3   0.064500 0.621728 0.529699 0.068376
C35   C     C_3   0.202830 0.771060 0.309431 -0.695670
C36   C     C_2   0.661965 0.807048 0.595884 0.525185
C37   C     C_3   0.116173 0.796854 0.631208 -0.781114
C38   C     C_R   0.539310 0.462531 0.186032 -0.296242
C39   C     C_R   0.452566 0.539455 0.811519 -0.253046
C40   C     C_R   0.471526 0.650386 0.975947 -0.184099
C41   C     C_R   0.449659 0.646059 0.866880 0.210085
C42   C     C_R   0.436215 0.445222 0.866866 -0.038065
H1    H     H_    0.910804 0.337745 0.569937 0.160941
H2    H     H_    0.113597 0.361872 0.385784 0.166033
H3    H     H_    0.882094 0.676682 0.470649 0.246836
H4    H     H_    0.885002 0.656252 0.607591 0.191988
H5    H     H_    0.800664 0.470634 0.256107 0.051608
H6    H     H_    0.646020 0.650831 0.249528 0.269582
H7    H     H_    0.790249 0.718248 0.155189 0.276141
H8    H     H_    0.665074 0.780216 0.080408 0.233847
H9    H     H_    0.730910 0.641518 0.039700 0.246723
H10   H     H_    0.638519 0.266286 0.243889 0.235786
H11   H     H_    0.518715 0.108894 0.233154 0.217325
H12   H     H_    0.088803 0.668589 0.462313 0.186009
H13   H     H_    0.446462 0.146772 0.110964 0.252902
H14   H     H_    0.399857 0.222868 0.232873 0.228187
H15   H     H_    0.479027 0.209454 0.916119 0.269961
H16   H     H_    0.702836 0.151639 0.901798 0.263782
H17   H     H_    0.739426 0.282296 0.969315 0.247720
H18   H     H_    0.662878 0.279594 0.839715 0.229235
H19   H     H_    0.356168 0.735466 0.752478 0.251783
H20   H     H_    0.387833 0.918451 0.816545 0.261270
H21   H     H_    0.495502 0.871642 0.916815 0.271442
H22   H     H_    0.327400 0.853523 0.926237 0.216191
H23   H     H_    0.111406 0.496002 0.335937 0.197145
H24   H     H_    0.331318 0.346564 0.738481 0.104669
H25   H     H_    0.907195 0.535564 0.729539 0.229080
H26   H     H_    0.846269 0.405617 0.845802 0.243385
H27   H     H_    0.997077 0.356737 0.794052 0.266115
H28   H     H_    0.854839 0.296270 0.740431 0.230365
H29   H     H_    0.314249 0.044588 0.281090 0.222040
H30   H     H_    0.183123 0.129489 0.426331 0.225421
H31   H     H_    0.133236 0.992268 0.445280 0.248644
H32   H     H_    0.091959 0.056379 0.324828 0.245533
H33   H     H_    0.764003 0.063398 0.730966 0.053783
H34   H     H_    0.468799 0.729303 0.022554 0.170832
H35   H     H_    0.389216 0.750860 0.264180 0.233557
H36   H     H_    0.182451 0.820964 0.240519 0.241914
H37   H     H_    0.150846 0.809695 0.378356 0.235814
H38   H     H_    0.169340 0.686396 0.289115 0.245046
H39   H     H_    0.651877 0.740539 0.646664 0.120462
H40   H     H_    0.083787 0.647853 0.696244 0.226009
H41   H     H_    0.151924 0.829580 0.709751 0.235431
H42   H     H_    0.020156 0.834550 0.618053 0.280156
H43   H     H_    0.179887 0.821468 0.570448 0.245800
H44   H     H_    0.382247 0.179300 0.405578 0.135826
H45   H     H_    0.655633 0.225366 0.643668 0.129236
H46   H     H_    0.117539 0.458938 0.674235 0.170951
H47   H     H_    0.121076 0.340255 0.581575 0.180425
H48   H     H_    0.903194 0.362466 0.384878 0.099815
N1    N     N_R   0.523380 0.207800 0.519350 -0.100079
N2    N     N_2   0.114039 0.676609 0.627490 -0.305265
N3    N     N_R   0.476620 0.792180 0.480650 -0.185853
N4    N     N_2   0.611663 0.654164 0.173422 -0.310476
N5    N     N_2   0.577814 0.257207 0.179708 -0.271524
N6    N     N_2   0.547462 0.246064 0.963004 -0.281422
N7    N     N_2   0.422339 0.745002 0.812625 -0.284338
N8    N     N_2   0.884124 0.458120 0.697206 -0.301286
N9    N     N_2   0.280259 0.997274 0.336831 -0.305566
N10   N     N_2   0.336669 0.762274 0.331512 -0.256254
O1    O     O_R   0.506240 0.421700 0.658830 -0.627219
O2    O     O_2   0.284061 0.312584 0.881185 -0.598526
O3    O     O_2   0.633220 0.963094 0.769185 -0.600842
O4    O     O_2   0.766740 0.838253 0.581735 -0.657593
O5    O     O_R   0.491240 0.609310 0.646410 -0.632814
O6    O     O_R   0.692710 0.406190 0.506230 -0.626973
O7    O     O_R   0.677700 0.593810 0.493810 -0.646263
O8    O     O_R   0.508760 0.390690 0.353590 -0.612375
O9    O     O_R   0.493760 0.578300 0.341170 -0.610757
O10   O     O_R   0.322300 0.406190 0.506190 -0.640684
O11   O     O_R   0.307290 0.593810 0.493770 -0.586596
O12   O     O_2   0.910697 0.598420 0.282538 -0.610781
Zn1   Zn    Zn3+2 0.510020 0.374730 0.508290 0.923768
Zn2   Zn    Zn3+2 0.489980 0.625270 0.491710 0.946584

loop_
_geom_bond_atom_site_label_1
_geom_bond_atom_site_label_2
_ccdc_geom_bond_type
C26   N4    S    
C29   H21   S    
C8    C13   A    
C9    N3    A    
O1    Zn1   S    
C27   N5    S    
C19   C20   S    
C5    N4    S    
C32   H30   S    
C7    N6    S    
C12   C23   S    
H6    N4    S    
H10   N5    S    
C37   H43   S    
C8    N9    S    
C26   H8    S    
C32   H32   S    
C4    C24   S    
C27   H13   S    
C1    O5    A    
C35   H38   S    
H40   N2    S    
H35   N10   S    
C31   N8    S    
H25   N8    S    
C33   H33   S    
C31   H28   S    
C2    C7    A    
C8    C9    A    
H15   N6    S    
C6    C38   A    
C37   H42   S    
C25   H5    S    
C25   O12   D    
C29   H22   S    
C13   C14   A    
C30   O2    D    
C17   C33   S    
C19   N8    S    
C19   H1    S    
C16   O9    A    
C39   C42   A    
C21   H48   S    
C28   H18   S    
C31   H26   S    
C22   C34   S    
C4    O7    A    
O6    Zn1   S    
O5    Zn2   S    
C18   O11   A    
C14   H44   S    
C39   C41   A    
C26   H7    S    
C32   H31   S    
C16   O8    A    
C27   H14   S    
C10   N3    A    
C4    O6    A    
C23   H2    S    
N1    Zn1   S    
O8    Zn1   S    
O7    Zn2   S    
C36   H39   S    
C12   C20   S    
O10   Zn1   S    
C30   H24   S    
O9    Zn2   S    
C40   C41   A    
C22   H4    S    
C3    C40   A    
C34   H12   S    
C9    N10   S    
C21   C23   S    
C41   N7    S    
C12   C34   S    
C35   N10   S    
C1    O1    A    
C15   H45   S    
C28   H17   S    
C15   C17   A    
C21   C25   S    
C29   H20   S    
C11   C17   A    
C37   N2    S    
C33   O3    D    
C30   C42   S    
H19   N7    S    
C18   O10   A    
C3    C5    A    
C27   H11   S    
C6    C7    A    
C28   H16   S    
C20   H47   S    
C35   H36   S    
C32   N9    S    
C29   N7    S    
C28   N6    S    
C23   H23   S    
C2    C3    A    
C26   H9    S    
C11   C13   A    
C36   O4    D    
H29   N9    S    
C2    C42   A    
C20   H46   S    
C35   H37   S    
C19   C24   S    
O11   Zn2   S    
C22   C24   S    
N3    Zn2   S    
C34   N2    S    
C14   N1    A    
C10   C11   A    
C1    C39   S    
C15   N1    A    
C40   H34   S    
C31   H27   S    
C22   H3    S    
C6    N5    S    
C21   C24   S    
C12   C18   S    
C37   H41   S    
C10   C36   S    
C5    C38   A    
C16   C38   S    
