data_mof_unit_17041.cif
_audit_creation_date              2012-10-26T18:51:45-0400
_audit_creation_method            fapswitch 2.2
_symmetry_space_group_name_H-M    P1
_symmetry_Int_Tables_number       1
_space_group_crystal_system       triclinic
_cell_length_a                    11.719677
_cell_length_b                    14.741838
_cell_length_c                    14.85047
_cell_angle_alpha                 63.484819
_cell_angle_beta                  104.392072
_cell_angle_gamma                 103.864066
_cell_volume                      2199.15383684

loop_
_atom_site_label
_atom_site_type_symbol
_atom_type_description
_atom_site_fract_x
_atom_site_fract_y
_atom_site_fract_z
_atom_type_partial_charge
C1    C     C_R   0.482994 0.120807 0.311449 0.551059
C2    C     C_R   0.381948 0.594853 0.075529 0.046769
C3    C     C_R   0.725649 0.301158 0.640952 -0.141338
C4    C     C_R   0.270529 0.690781 0.372251 -0.158372
C5    C     C_R   0.684011 0.213829 0.622089 0.188585
C6    C     C_R   0.316714 0.784194 0.378598 0.183421
C7    C     C_R   0.505347 0.278952 0.523922 0.018658
C8    C     C_R   0.491394 0.718271 0.486229 0.030157
C9    C     C_R   0.542428 0.368077 0.545389 -0.032160
C10   C     C_R   0.451072 0.622912 0.477275 -0.011470
C11   C     C_R   0.657882 0.380268 0.600594 0.050957
C12   C     C_R   0.513220 0.879025 0.688161 0.568453
C13   C     C_R   0.334493 0.608387 0.424339 0.031165
C14   C     C_R   0.470544 0.446443 0.511474 0.022572
C15   C     C_R   0.520053 0.540928 0.521148 0.033737
C16   C     C_R   0.283927 0.999621 0.499668 0.552849
C17   C     C_R   0.716050 0.000482 0.500171 0.541899
C18   C     C_R   0.636897 0.550514 0.573644 -0.088065
C19   C     C_R   0.349256 0.431275 0.472017 -0.048002
C20   C     C_R   0.704439 0.471068 0.615020 0.159978
C21   C     C_R   0.281863 0.511096 0.426748 0.202486
C22   C     C_1   0.161880 0.998952 0.499376 0.022428
C23   C     C_R   0.417739 0.318597 0.990612 -0.014698
C24   C     C_1   0.838073 0.001317 0.500234 -0.002765
C25   C     C_1   0.059647 0.999586 0.499538 -0.011073
C26   C     C_1   0.940302 0.000794 0.499959 -0.023927
C27   C     C_R   0.469408 0.189320 0.200871 0.024855
C28   C     C_R   0.495471 0.808842 0.794595 0.032901
C29   C     C_R   0.441875 0.218556 0.022561 -0.100699
C30   C     C_R   0.443262 0.772976 0.957193 -0.095966
C31   C     C_R   0.468958 0.154470 0.126148 0.141655
C32   C     C_R   0.479484 0.844076 0.864228 0.122686
C33   C     C_R   0.450569 0.290022 0.169268 -0.130834
C34   C     C_R   0.421470 0.666620 0.982826 -0.014096
C35   C     C_R   0.476865 0.702995 0.821391 -0.114355
C36   C     C_R   0.419162 0.354042 0.065300 0.015058
C37   C     C_R   0.432249 0.631757 0.910969 0.020656
C38   C     C_2   0.365877 0.340857 0.808113 0.603222
C39   C     C_2   0.359803 0.630077 0.148068 0.594754
C40   C     C_3   0.578661 0.988908 0.905211 -0.253488
C41   C     C_3   0.624039 0.049773 0.182322 -0.273736
C42   C     C_2   0.314496 0.546551 0.752987 0.572646
C43   C     C_2   0.292670 0.414759 0.178191 0.586554
C44   C     C_3   0.914278 0.523069 0.607383 -0.294212
C45   C     C_R   0.397025 0.455379 0.033978 -0.019162
C46   C     C_3   0.078532 0.471807 0.454418 -0.302101
C47   C     C_2   0.242731 0.866587 0.321820 0.624795
C48   C     C_2   0.765092 0.136698 0.667331 0.616657
C49   C     C_R   0.404046 0.525510 0.932625 -0.017864
C50   C     C_R   0.376943 0.486266 0.856741 0.028256
C51   C     C_R   0.364806 0.488860 0.098853 0.035685
C52   C     C_R   0.388241 0.382791 0.885927 0.050331
Cu1   Cu    Cu3+1 0.469550 0.918260 0.475690 1.011912
Cu2   Cu    Cu3+1 0.530450 0.081740 0.524310 1.007674
H1    H     H_    0.679653 0.619479 0.583499 0.092014
H2    H     H_    0.183727 0.682855 0.326812 0.174919
H3    H     H_    0.435072 0.292167 0.729025 0.333746
H4    H     H_    0.428411 0.705005 0.239273 0.338448
H5    H     H_    0.409123 0.974688 0.823296 0.250101
H6    H     H_    0.548035 0.963398 0.979001 0.113661
H7    H     H_    0.593189 0.074021 0.869038 0.165275
H8    H     H_    0.664700 0.961704 0.919433 0.203287
H9    H     H_    0.457004 0.024031 0.102384 0.259036
H10   H     H_    0.670170 0.099276 0.115709 0.136857
H11   H     H_    0.637852 0.969337 0.208387 0.158326
H12   H     H_    0.303705 0.356342 0.478429 0.085695
H13   H     H_    0.663650 0.074012 0.245746 0.158841
H14   H     H_    0.279925 0.580990 0.603221 0.334085
H15   H     H_    0.270699 0.349841 0.323962 0.315624
H16   H     H_    0.828851 0.525166 0.712438 0.268107
H17   H     H_    0.002661 0.524265 0.656534 0.199755
H18   H     H_    0.904706 0.602269 0.549243 0.155598
H19   H     H_    0.910281 0.472912 0.568558 0.151909
H20   H     H_    0.140797 0.437802 0.356236 0.280304
H21   H     H_    0.985229 0.462539 0.415522 0.161353
H22   H     H_    0.091460 0.536664 0.476637 0.150859
H23   H     H_    0.496454 0.676190 0.770715 0.139869
H24   H     H_    0.093233 0.400277 0.524072 0.183697
H25   H     H_    0.215348 0.999138 0.199579 0.338473
H26   H     H_    0.924334 0.103630 0.671820 0.339880
H27   H     H_    0.462568 0.318493 0.227051 0.153859
H28   H     H_    0.441905 0.189354 0.967427 0.140799
H29   H     H_    0.428346 0.802527 0.007395 0.154246
H30   H     H_    0.573375 0.731594 0.533683 0.131046
H31   H     H_    0.422736 0.269463 0.475052 0.139975
H32   H     H_    0.812231 0.306661 0.687519 0.162527
N1    N     N_R   0.576230 0.204580 0.560790 -0.258090
N2    N     N_R   0.423770 0.795420 0.439210 -0.257972
N3    N     N_2   0.490215 0.950837 0.837894 -0.476346
N4    N     N_2   0.497848 0.055847 0.153897 -0.457358
N5    N     N_2   0.821364 0.484456 0.669432 -0.519049
N6    N     N_2   0.159431 0.491872 0.386094 -0.490881
O1    O     O_R   0.459870 0.022090 0.338120 -0.429580
O2    O     O_R   0.461708 0.322858 0.781185 -0.703436
O3    O     O_2   0.259265 0.615097 0.166571 -0.478840
O4    O     O_R   0.454524 0.681261 0.194250 -0.706153
O5    O     O_2   0.245143 0.601794 0.743222 -0.515333
O6    O     O_R   0.332647 0.539662 0.667087 -0.682134
O7    O     O_2   0.207949 0.356757 0.156757 -0.496419
O8    O     O_R   0.323626 0.408008 0.277501 -0.702886
O9    O     O_2   0.147999 0.858059 0.347563 -0.527682
O10   O     O_R   0.274671 0.948764 0.233124 -0.669767
O11   O     O_2   0.741464 0.055241 0.738470 -0.512198
O12   O     O_R   0.540130 0.977910 0.661880 -0.424922
O13   O     O_R   0.874498 0.161298 0.633877 -0.706327
O14   O     O_R   0.511290 0.160150 0.379180 -0.517770
O15   O     O_R   0.488710 0.839850 0.620820 -0.516980
O16   O     O_R   0.311490 0.930960 0.479480 -0.464230
O17   O     O_R   0.688510 0.069040 0.520520 -0.469132
O18   O     O_R   0.362910 0.069020 0.520540 -0.521707
O19   O     O_R   0.637090 0.930980 0.479460 -0.520609
O20   O     O_2   0.263817 0.321494 0.768475 -0.493458

loop_
_geom_bond_atom_site_label_1
_geom_bond_atom_site_label_2
_ccdc_geom_bond_type
C15   C18   A    
C47   O9    D    
C34   C37   A    
H16   N5    S    
C43   C51   S    
C46   H22   S    
C16   O18   A    
C41   H13   S    
Cu1   Cu2   S    
C27   C33   A    
C12   C28   S    
C40   H6    S    
C23   C29   A    
Cu2   O12   S    
C35   C37   A    
C43   O7    D    
C12   O12   A    
C6    N2    A    
C10   C15   A    
C42   O6    S    
Cu2   N1    S    
C46   N6    S    
C45   C51   A    
C30   H29   S    
C33   C36   A    
C40   H8    S    
Cu2   O18   S    
C19   H12   S    
H5    N3    S    
H20   N6    S    
C4    C13   A    
H4    O4    S    
C2    C39   S    
C7    N1    A    
C48   O13   S    
C28   C35   A    
C22   C25   T    
C50   C52   A    
H25   O10   S    
C40   N3    S    
C1    O14   A    
Cu1   O19   S    
C41   N4    S    
C47   O10   S    
C4    H2    S    
C3    H32   S    
C17   O19   A    
C46   H21   S    
C20   N5    S    
C5    C48   S    
C11   C20   A    
C17   C24   S    
C6    C47   S    
C30   C34   A    
C27   C31   A    
C28   C32   A    
C43   O8    S    
C4    C6    A    
C42   O5    D    
C46   H24   S    
Cu2   O14   S    
C41   H11   S    
C25   C26   S    
C48   O11   D    
Cu1   O1    S    
H26   O13   S    
C35   H23   S    
C40   H7    S    
Cu2   O17   S    
C44   H17   S    
C8    N2    A    
C9    C14   A    
C37   C49   A    
Cu1   O15   S    
C32   N3    S    
C45   C49   A    
C31   N4    S    
C38   O2    S    
C13   C21   A    
C36   C45   A    
C9    C11   A    
C39   O3    D    
C44   N5    S    
C18   H1    S    
C42   C50   S    
C8    C10   A    
C23   C36   A    
H3    O2    S    
C38   O20   D    
C7    C9    A    
C16   C22   S    
C19   C21   A    
C8    H30   S    
C14   C19   A    
C24   C26   T    
C3    C5    A    
C10   C13   A    
C17   O17   A    
C12   O15   A    
C29   H28   S    
C29   C31   A    
C30   C32   A    
Cu1   O16   S    
C2    C34   A    
C23   C52   A    
C7    H31   S    
H9    N4    S    
C44   H18   S    
Cu1   N2    S    
C18   C20   A    
C44   H19   S    
H14   O6    S    
C39   O4    S    
C3    C11   A    
C2    C51   A    
C16   O16   A    
C5    N1    A    
H15   O8    S    
C38   C52   S    
C1    O1    A    
C49   C50   A    
C1    C27   S    
C14   C15   A    
C41   H10   S    
C33   H27   S    
C21   N6    S    
