data_mof_unit_61781.cif
_audit_creation_date              2012-12-10T21:09:15-0500
_audit_creation_method            fapswitch 2.2
_symmetry_space_group_name_H-M    P1
_symmetry_Int_Tables_number       1
_space_group_crystal_system       triclinic
_cell_length_a                    10.819298
_cell_length_b                    17.568322
_cell_length_c                    16.747163
_cell_angle_alpha                 90.262517
_cell_angle_beta                  104.066112
_cell_angle_gamma                 90.149664
_cell_volume                      3087.74707538

loop_
_atom_site_label
_atom_site_type_symbol
_atom_type_description
_atom_site_fract_x
_atom_site_fract_y
_atom_site_fract_z
_atom_type_partial_charge
C1    C     C_R   0.503161 0.353432 0.500269 0.901945
C2    C     C_R   0.581983 0.546622 0.265570 -0.005899
C3    C     C_R   0.580733 0.546748 0.761319 0.036424
C4    C     C_R   0.418929 0.453502 0.238581 0.036978
C5    C     C_R   0.581571 0.547295 0.845611 -0.268084
C6    C     C_R   0.418164 0.452997 0.154301 -0.268156
C7    C     C_R   0.498678 0.499523 0.875362 0.086044
C8    C     C_R   0.501492 0.500542 0.124669 0.086221
C9    C     C_1   0.499723 0.499927 0.963401 0.049238
C10   C     C_1   0.500507 0.500170 0.036640 0.049451
C11   C     C_R   0.258540 0.502145 0.465941 0.955529
C12   C     C_R   0.496864 0.646556 0.499731 0.894719
C13   C     C_R   0.741478 0.502185 0.534080 0.960443
C14   C     C_2   0.122397 0.510903 0.446402 -0.348411
C15   C     C_2   0.877739 0.510859 0.553709 -0.351624
C16   C     C_2   0.068002 0.526340 0.507767 -0.118689
C17   C     C_2   0.932325 0.526383 0.492539 -0.135461
C18   C     C_R   0.421785 0.848165 0.543504 -0.169558
C19   C     C_R   0.577082 0.151722 0.455846 -0.170759
C20   C     C_R   0.419263 0.769161 0.543940 0.148662
C21   C     C_R   0.579597 0.230726 0.455312 0.148070
C22   C     C_R   0.493695 0.728748 0.499669 -0.085750
C23   C     C_R   0.496600 0.886104 0.499289 0.108552
C24   C     C_R   0.506325 0.271208 0.500335 -0.090474
C25   C     C_R   0.566862 0.767677 0.454360 -0.217674
C26   C     C_R   0.434341 0.232304 0.546450 -0.217211
C27   C     C_R   0.568592 0.846486 0.454404 -0.137304
C28   C     C_R   0.432627 0.153497 0.546494 -0.137298
C29   C     C_R   0.503447 0.113832 0.500884 0.109043
C30   C     C_1   0.499013 0.966204 0.499827 -0.030711
C31   C     C_1   0.501016 0.033732 0.500407 -0.030785
C32   C     C_R   0.415810 0.451870 0.818360 0.090775
C33   C     C_R   0.584715 0.547931 0.181779 0.091161
C34   C     C_R   0.418432 0.453161 0.734547 -0.008946
H1    H     H_    0.877190 0.533300 0.429342 0.190781
H2    H     H_    0.378022 0.262947 0.581357 0.165427
H3    H     H_    0.626171 0.876452 0.419913 0.152569
H4    H     H_    0.375955 0.123567 0.581617 0.152592
H5    H     H_    0.354815 0.416486 0.690994 0.146721
H6    H     H_    0.645860 0.583104 0.309205 0.140287
H7    H     H_    0.644923 0.583828 0.739120 0.141367
H8    H     H_    0.354417 0.416592 0.260690 0.141138
H9    H     H_    0.123219 0.533121 0.571062 0.202226
H10   H     H_    0.646686 0.584856 0.887292 0.177155
H11   H     H_    0.352773 0.415639 0.112536 0.177162
H12   H     H_    0.933146 0.503698 0.616722 0.165424
H13   H     H_    0.066909 0.503871 0.383286 0.165705
H14   H     H_    0.364890 0.879961 0.577111 0.163129
H15   H     H_    0.633079 0.119883 0.421664 0.162600
H16   H     H_    0.624073 0.737047 0.420040 0.164061
I1    I     I_    0.294048 0.716564 0.607591 -0.350200
I2    I     I_    0.703136 0.283135 0.390285 -0.334278
I3    I     I_    0.285480 0.377419 0.854868 -0.364227
I4    I     I_    0.715783 0.621989 0.145491 -0.366384
N1    N     N_R   0.500030 0.500030 0.707240 -0.102535
N2    N     N_R   0.499970 0.499970 0.292760 -0.101668
O1    O     O_R   0.500000 0.389130 0.566570 -0.621776
O2    O     O_R   0.500000 0.610870 0.433430 -0.624737
O3    O     O_R   0.499990 0.389100 0.433480 -0.593569
O4    O     O_R   0.500010 0.610900 0.566520 -0.596578
O5    O     O_R   0.317810 0.500010 0.541690 -0.615690
O6    O     O_R   0.682190 0.499990 0.458310 -0.612205
O7    O     O_R   0.317800 0.499990 0.408610 -0.616901
O8    O     O_R   0.682200 0.500010 0.591390 -0.617516
Zn1   Zn    Zn3+2 0.500010 0.500020 0.588860 0.973773
Zn2   Zn    Zn3+2 0.499990 0.499980 0.411140 0.975680

loop_
_geom_bond_atom_site_label_1
_geom_bond_atom_site_label_2
_ccdc_geom_bond_type
O5    Zn1   S    
C15   C17   D    
C14   H13   S    
C6    H11   S    
C1    O1    A    
C25   C27   A    
C5    C7    A    
C9    C10   T    
C19   H15   S    
C26   C28   A    
C28   H4    S    
C3    C5    A    
C12   O2    A    
O8    Zn1   S    
C1    O3    A    
O7    Zn2   S    
C34   N1    A    
C29   C31   S    
C19   C29   A    
C2    N2    A    
C4    N2    A    
C16   H9    S    
C13   O8    A    
C4    H8    S    
C27   H3    S    
N2    Zn2   S    
C13   O6    A    
C2    C33   A    
C26   H2    S    
C28   C29   A    
N1    Zn1   S    
C5    H10   S    
C24   C26   A    
O4    Zn1   S    
C20   I1    S    
C18   C20   A    
C8    C33   A    
C13   C15   S    
O3    Zn2   S    
C30   C31   T    
C8    C10   S    
C11   C14   S    
C14   C16   D    
O6    Zn2   S    
C18   C23   A    
C12   O4    A    
C23   C30   S    
C2    H6    S    
C32   I3    S    
C12   C22   S    
C1    C24   S    
C4    C6    A    
C21   C24   A    
O1    Zn1   S    
C33   I4    S    
C7    C9    S    
C25   H16   S    
C3    H7    S    
C6    C8    A    
C7    C32   A    
C17   H1    S    
C15   H12   S    
C32   C34   A    
C19   C21   A    
C11   O7    A    
C3    N1    A    
O2    Zn2   S    
C21   I2    S    
C23   C27   A    
C34   H5    S    
C20   C22   A    
C16   C17   S    
C11   O5    A    
C22   C25   A    
C18   H14   S    
