data_mof_unit_7318.cif
_audit_creation_date              2012-12-11T15:54:41-0500
_audit_creation_method            fapswitch 2.2
_symmetry_space_group_name_H-M    P1
_symmetry_Int_Tables_number       1
_space_group_crystal_system       triclinic
_cell_length_a                    6.9546
_cell_length_b                    14.605016
_cell_length_c                    16.160146
_cell_angle_alpha                 90.044089
_cell_angle_beta                  90.029599
_cell_angle_gamma                 89.953999
_cell_volume                      1641.41783148

loop_
_atom_site_label
_atom_site_type_symbol
_atom_type_description
_atom_site_fract_x
_atom_site_fract_y
_atom_site_fract_z
_atom_type_partial_charge
O1    O     O_R   0.638180 0.333920 0.163320 -0.518439
O2    O     O_R   0.361820 0.666080 0.836680 -0.517631
O3    O     O_R   0.308470 0.344960 0.336080 -0.483741
O4    O     O_R   0.691530 0.655040 0.663920 -0.486928
O5    O     O_R   0.138140 0.166110 0.336680 -0.528244
O6    O     O_R   0.861860 0.833890 0.663320 -0.493927
C1    C     C_R   0.477154 0.368244 0.364042 0.803176
C2    C     C_R   0.523115 0.630935 0.636535 0.796421
O7    O     O_R   0.308460 0.344950 0.163930 -0.541381
O8    O     O_R   0.691540 0.655050 0.836070 -0.545479
O9    O     O_R   0.138140 0.166100 0.163310 -0.558213
O10   O     O_R   0.861860 0.833900 0.836690 -0.535151
C3    C     C_R   0.477866 0.365672 0.133881 0.746314
C4    C     C_R   0.522153 0.634415 0.866161 0.725138
O11   O     O_R   0.638180 0.333930 0.336700 -0.542240
O12   O     O_R   0.361820 0.666070 0.663300 -0.538806
O13   O     O_3   0.471670 0.191340 0.250000 -0.395358
O14   O     O_3   0.528330 0.808660 0.750000 -0.372686
V1    V     V_3+5 0.196830 0.260900 0.250000 1.629550
V2    V     V_3+5 0.803170 0.739100 0.750000 1.674649
O15   O     O_R   0.808420 0.155070 0.163920 -0.533470
O16   O     O_R   0.191580 0.844930 0.836080 -0.555305
C5    C     C_R   0.978500 0.134803 0.133551 0.813684
C6    C     C_R   0.021556 0.865927 0.865830 0.782611
O17   O     O_R   0.808420 0.155080 0.336070 -0.521853
O18   O     O_R   0.191580 0.844920 0.663930 -0.545786
C7    C     C_R   0.977838 0.132550 0.364592 0.857100
C8    C     C_R   0.020513 0.870530 0.638451 0.839814
V3    V     V_3+5 0.696830 0.239130 0.250000 1.590898
V4    V     V_3+5 0.303170 0.760870 0.750000 1.595403
O19   O     O_3   0.971850 0.308690 0.250010 -0.336533
O20   O     O_3   0.028150 0.691310 0.749990 -0.337571
C9    C     C_R   0.010189 0.191350 0.541294 0.262838
C10   C     C_R   0.032646 0.809623 0.465028 0.257347
C11   C     C_R   0.990452 0.219389 0.623025 -0.198058
C12   C     C_R   0.080177 0.782182 0.385462 -0.195908
C13   C     C_R   0.937663 0.158474 0.683789 0.389280
C14   C     C_R   0.064189 0.842604 0.320520 0.392147
C15   C     C_R   0.916734 0.065744 0.664733 0.254797
C16   C     C_R   0.001552 0.932042 0.335642 0.241303
C17   C     C_R   0.967500 0.031756 0.584363 -0.098754
C18   C     C_R   0.000587 0.968637 0.417885 -0.084091
C19   C     C_R   0.990073 0.096732 0.518612 -0.046532
C20   C     C_R   0.013616 0.904789 0.485046 -0.037041
C21   C     C_R   0.999375 0.936594 0.568397 -0.077597
C22   C     C_R   0.989266 0.065138 0.434451 -0.088248
H1    H     H_    0.009575 0.290811 0.639289 0.238934
H2    H     H_    0.105635 0.710490 0.372252 0.234069
C23   C     C_R   0.174616 0.970989 0.968172 -0.155046
C24   C     C_R   0.825688 0.030065 0.030770 -0.112573
H3    H     H_    0.310860 0.950426 0.943702 0.176280
H4    H     H_    0.689849 0.053954 0.052608 0.172792
C25   C     C_R   0.171066 0.031131 0.035536 0.312582
C26   C     C_R   0.829311 0.960938 0.970904 0.349608
C27   C     C_R   0.993471 0.065708 0.065312 -0.120877
C28   C     C_R   0.006646 0.933927 0.934813 -0.128283
C29   C     C_R   0.336166 0.498561 0.450343 0.458180
C30   C     C_R   0.665316 0.499023 0.551331 0.463177
C31   C     C_R   0.351412 0.558698 0.517459 -0.188748
C32   C     C_R   0.650027 0.438201 0.484393 -0.176731
H5    H     H_    0.235148 0.604873 0.529201 0.236680
H6    H     H_    0.765869 0.390729 0.473351 0.229985
C33   C     C_R   0.514585 0.561478 0.568364 -0.194672
C34   C     C_R   0.486859 0.436422 0.432990 -0.189607
C35   C     C_R   0.342282 0.497534 0.053452 -0.159708
C36   C     C_R   0.658123 0.503085 0.946971 -0.161876
H7    H     H_    0.219913 0.497367 0.094936 0.201857
H8    H     H_    0.780537 0.503265 0.905512 0.202365
C37   C     C_R   0.350295 0.563854 0.990705 0.407033
C38   C     C_R   0.650158 0.436804 0.009723 0.414970
C39   C     C_R   0.509414 0.566998 0.935716 -0.197094
C40   C     C_R   0.490822 0.433467 0.064588 -0.192378
Cl1   Cl    Cl    0.090877 0.798989 0.219291 -0.552099
Cl2   Cl    Cl    0.894463 0.201813 0.784058 -0.494560
Cl3   Cl    Cl    0.160078 0.643810 0.987253 -0.637099
Cl4   Cl    Cl    0.840685 0.357046 0.013236 -0.602043
Cl5   Cl    Cl    0.079656 0.281127 0.476116 -0.643820
Cl6   Cl    Cl    0.954607 0.718584 0.527304 -0.632902
Cl7   Cl    Cl    0.782679 0.002511 0.737107 -0.630028
Cl8   Cl    Cl    0.872057 0.980886 0.254201 -0.698856
N1    N     N_2   0.347998 0.049378 0.075429 -0.549687
H9    H     H_    0.387242 0.117250 0.079138 0.264557
C41   C     C_3   0.382296 0.994986 0.148867 -0.373039
H10   H     H_    0.378967 0.921025 0.133221 0.236046
H11   H     H_    0.525108 0.011667 0.174780 0.224011
H12   H     H_    0.272802 0.009157 0.197041 0.210880
N2    N     N_2   0.652949 0.916735 0.952878 -0.542129
H13   H     H_    0.610403 0.917526 0.891883 0.299357
C42   C     C_3   0.622756 0.831287 0.996382 -0.441441
H14   H     H_    0.475665 0.805449 0.983584 0.198381
H15   H     H_    0.637975 0.841796 0.064141 0.237868
H16   H     H_    0.728522 0.778880 0.976246 0.207245
Cl9   Cl    Cl    0.127905 0.507952 0.388559 -0.568737
Cl10  Cl    Cl    0.872456 0.489827 0.613719 -0.570325

loop_
_geom_bond_atom_site_label_1
_geom_bond_atom_site_label_2
_ccdc_geom_bond_type
C36   H8    S    
C13   Cl2   S    
O13   V3    S    
C4    C39   S    
O4    C2    A    
V1    O19   S    
N1    H9    S    
C15   C17   A    
O9    V1    S    
C24   C26   A    
C25   N1    S    
C11   C13   A    
O3    C1    A    
C26   N2    S    
C23   C25   A    
C29   C31   A    
O12   V4    S    
C32   H6    S    
C18   C22   A    
C37   C39   A    
O7    C3    A    
C9    C11   A    
O5    C7    A    
O7    V1    S    
O6    C8    A    
C41   H10   S    
O8    V2    S    
C35   H7    S    
C24   H4    S    
C16   Cl8   S    
O3    V1    S    
O14   V4    S    
C42   H15   S    
C10   C12   A    
C16   C18   A    
C11   H1    S    
C2    O12   A    
C14   C16   A    
C29   Cl9   S    
C17   C19   A    
C18   C20   A    
N1    C41   S    
O11   V3    S    
C12   H2    S    
C25   C27   A    
O17   V3    S    
C26   C28   A    
C8    C21   S    
C31   H5    S    
C9    C19   A    
C10   C20   A    
O8    C4    A    
C1    O11   A    
C23   H3    S    
O15   V3    S    
C15   Cl7   S    
C36   C39   A    
O10   V2    S    
O1    V3    S    
C42   H16   S    
C7    C22   S    
C41   H11   S    
O18   V4    S    
N2    C42   S    
C38   Cl4   S    
O17   C7    A    
O16   C6    A    
O1    C3    A    
C12   C14   A    
C23   C28   A    
C20   C21   A    
C29   C34   A    
V2    O20   S    
C30   C33   A    
O16   V4    S    
C31   C33   A    
C5    C27   S    
O5    V1    S    
C3    C40   S    
C6    C28   S    
C35   C40   A    
O6    V2    S    
O10   C6    A    
O18   C8    A    
C24   C27   A    
O2    V4    S    
C32   C34   A    
O15   C5    A    
C30   Cl10  S    
V3    O19   S    
C10   Cl6   S    
V4    O20   S    
C9    Cl5   S    
C36   C38   A    
C35   C37   A    
O9    C5    A    
O13   V1    S    
C37   Cl3   S    
O14   V2    S    
O2    C4    A    
C19   C22   A    
C1    C34   S    
C2    C33   S    
O4    V2    S    
C41   H12   S    
N2    H13   S    
C13   C15   A    
C17   C21   A    
C38   C40   A    
C42   H14   S    
C30   C32   A    
C14   Cl1   S    
