data_mof_unit_19506.cif
_audit_creation_date              2012-12-10T18:31:58-0500
_audit_creation_method            fapswitch 2.2
_symmetry_space_group_name_H-M    P1
_symmetry_Int_Tables_number       1
_space_group_crystal_system       triclinic
_cell_length_a                    10.656927
_cell_length_b                    15.028613
_cell_length_c                    15.465055
_cell_angle_alpha                 81.903143
_cell_angle_beta                  89.938229
_cell_angle_gamma                 104.772916
_cell_volume                      2369.34426125

loop_
_atom_site_label
_atom_site_type_symbol
_atom_type_description
_atom_site_fract_x
_atom_site_fract_y
_atom_site_fract_z
_atom_type_partial_charge
Br1   Br    Br    0.925945 0.637971 0.342596 -0.613891
Br2   Br    Br    0.251402 0.329503 0.323288 -0.564156
Br3   Br    Br    0.744948 0.668467 0.678532 -0.584891
C1    C     C_R   0.480978 0.441635 0.662054 0.869967
C2    C     C_R   0.531363 0.452873 0.896785 0.079586
C3    C     C_R   0.568106 0.369492 0.924124 0.128293
C4    C     C_R   0.741903 0.500295 0.501283 0.873685
C5    C     C_R   0.553730 0.522900 0.951061 0.046449
C6    C     C_R   0.577315 0.499828 0.039859 0.070044
C7    C     C_R   0.607450 0.413977 0.067605 -0.188344
C8    C     C_R   0.607228 0.351270 0.009364 -0.213532
C9    C     C_R   0.561965 0.616503 0.917561 -0.234431
C10   C     C_R   0.570466 0.683400 0.972640 0.193166
C11   C     C_R   0.568253 0.656431 0.063514 0.099291
C12   C     C_3   0.120992 0.498566 0.501613 0.090195
C13   C     C_R   0.570823 0.564011 0.097289 0.051876
C14   C     C_R   0.562539 0.719553 0.121317 -0.238178
C15   C     C_R   0.550316 0.690846 0.211621 0.203532
C16   C     C_R   0.520630 0.558887 0.337736 0.906843
C17   C     C_R   0.556717 0.535924 0.187425 -0.258447
C18   C     C_R   0.687240 0.841772 0.641196 -0.324071
C19   C     C_R   0.659283 0.754050 0.616928 0.404775
C20   C     C_R   0.515556 0.794383 0.510612 -0.108153
C21   C     C_R   0.542171 0.886038 0.531668 -0.040516
C22   C     C_R   0.628723 0.908635 0.599845 0.054353
C23   C     C_3   0.079968 0.513810 0.405778 -0.378024
C24   C     C_R   0.485662 0.954970 0.487877 0.089242
C25   C     C_R   0.514660 0.045152 0.514195 0.049279
C26   C     C_R   0.597144 0.063285 0.584262 -0.275731
C27   C     C_R   0.656363 0.997248 0.625969 0.233597
C28   C     C_R   0.257693 0.498577 0.501811 0.848409
C29   C     C_R   0.400817 0.936608 0.418698 -0.220607
C30   C     C_R   0.343698 0.003300 0.377996 -0.179835
C31   C     C_R   0.370995 0.091178 0.403119 0.120612
C32   C     C_R   0.458339 0.114317 0.470275 0.017732
C33   C     C_R   0.311503 0.156447 0.360800 -0.331654
C34   C     C_3   0.099745 0.579073 0.548495 -0.399628
C35   C     C_R   0.339152 0.244750 0.384047 0.418023
C36   C     C_R   0.485732 0.206536 0.489641 -0.125013
C37   C     C_3   0.893736 0.406294 0.549971 -0.438915
C38   C     C_3   0.037201 0.405190 0.550241 -0.411081
C39   C     C_3   0.934099 0.515218 0.403235 0.405281
C40   C     C_3   0.956768 0.578001 0.550699 -0.390292
C41   C     C_3   0.878899 0.500651 0.500306 0.087383
C42   C     C_3   0.663407 0.811589 0.291292 -0.692788
C43   C     C_3   0.451842 0.795694 0.921251 -0.791219
C44   C     C_3   0.247891 0.470855 0.803230 -0.784538
C45   C     C_R   0.487287 0.406831 0.754257 -0.085933
C46   C     C_3   0.816487 0.111819 0.698602 -0.790851
C47   C     C_3   0.889717 0.364766 0.332449 -0.750215
C48   C     C_R   0.542947 0.596905 0.244619 -0.078467
C49   C     C_R   0.565983 0.306189 0.865381 -0.206535
C50   C     C_R   0.531788 0.327151 0.779403 -0.243620
C51   C     C_R   0.471661 0.462954 0.816470 0.168633
H1    H     H_    0.837069 0.346316 0.519867 0.204467
H2    H     H_    0.565503 0.639449 0.847998 0.181684
H3    H     H_    0.564799 0.791149 0.096896 0.172237
H4    H     H_    0.554423 0.232351 0.536827 0.138085
H5    H     H_    0.277958 0.985984 0.325839 0.152883
H6    H     H_    0.755135 0.856737 0.692513 0.187524
H7    H     H_    0.448999 0.769975 0.461797 0.152845
H8    H     H_    0.067845 0.394156 0.618865 0.167268
H9    H     H_    0.614720 0.127915 0.609738 0.148972
H10   H     H_    0.375632 0.871232 0.393890 0.142072
H11   H     H_    0.243634 0.139010 0.309821 0.178212
H12   H     H_    0.155941 0.647735 0.513612 0.206758
H13   H     H_    0.050013 0.345858 0.518639 0.201904
H14   H     H_    0.103277 0.461104 0.369982 0.210334
H15   H     H_    0.946049 0.647955 0.522967 0.243947
H16   H     H_    0.920209 0.564268 0.619980 0.216296
H17   H     H_    0.134058 0.572058 0.616543 0.184880
H18   H     H_    0.478502 0.796720 0.245319 0.214148
H19   H     H_    0.717500 0.855311 0.232204 0.227171
H20   H     H_    0.722631 0.766283 0.323454 0.287723
H21   H     H_    0.647152 0.857963 0.337669 0.225843
H22   H     H_    0.638098 0.799750 0.880909 0.232129
H23   H     H_    0.142530 0.580990 0.372502 0.179157
H24   H     H_    0.400232 0.754787 0.871413 0.248627
H25   H     H_    0.465329 0.870839 0.897223 0.238375
H26   H     H_    0.391695 0.777858 0.983035 0.254288
H27   H     H_    0.409219 0.576711 0.754758 0.253542
H28   H     H_    0.228967 0.434758 0.744792 0.214839
H29   H     H_    0.186651 0.520762 0.801352 0.243893
H30   H     H_    0.220490 0.419282 0.863487 0.260394
H31   H     H_    0.702584 0.981272 0.757268 0.221019
H32   H     H_    0.896551 0.110800 0.744270 0.247817
H33   H     H_    0.755730 0.154331 0.721999 0.223494
H34   H     H_    0.635371 0.287687 0.031555 0.148040
H35   H     H_    0.860049 0.143779 0.632585 0.252052
H36   H     H_    0.782184 0.465504 0.317114 0.250740
H37   H     H_    0.801586 0.313623 0.315296 0.233527
H38   H     H_    0.932674 0.330200 0.388468 0.250174
H39   H     H_    0.958715 0.384994 0.274942 0.266146
H40   H     H_    0.548803 0.464362 0.214037 0.180413
H41   H     H_    0.597253 0.243297 0.884582 0.145784
H42   H     H_    0.543117 0.282518 0.732302 0.160802
H43   H     H_    0.854982 0.396006 0.618589 0.171954
H44   H     H_    0.638730 0.396048 0.132652 0.147765
N1    N     N_R   0.573860 0.731700 0.552730 -0.116420
N2    N     N_R   0.426060 0.268290 0.447230 -0.120610
N3    N     N_2   0.539656 0.755990 0.267851 -0.309089
N4    N     N_2   0.577255 0.776933 0.935924 -0.317572
N5    N     N_2   0.383254 0.520583 0.803574 -0.315482
N6    N     N_2   0.739646 0.017470 0.697136 -0.307180
N7    N     N_2   0.853691 0.445863 0.354179 -0.298148
O1    O     O_R   0.462770 0.383110 0.605620 -0.627417
O2    O     O_R   0.510160 0.531900 0.639510 -0.587746
O3    O     O_R   0.661510 0.425600 0.483070 -0.629634
O4    O     O_R   0.708900 0.574390 0.516960 -0.567067
O5    O     O_R   0.489840 0.468100 0.360490 -0.587905
O6    O     O_R   0.537230 0.616890 0.394380 -0.583357
O7    O     O_R   0.291100 0.425610 0.483040 -0.581981
O8    O     O_R   0.338490 0.574400 0.516930 -0.637737
Zn1   Zn    Zn3+2 0.468350 0.400660 0.477370 0.968876
Zn2   Zn    Zn3+2 0.531650 0.599340 0.522630 0.981551

loop_
_geom_bond_atom_site_label_1
_geom_bond_atom_site_label_2
_ccdc_geom_bond_type
C20   N1    A    
C26   H9    S    
C46   H33   S    
C21   C24   A    
C51   N5    S    
C46   N6    S    
O7    Zn1   S    
C38   H13   S    
C45   C51   A    
C43   N4    S    
O1    Zn1   S    
C25   C26   A    
C6    C13   A    
C17   C48   A    
N1    Zn2   S    
C2    C3    A    
H18   N3    S    
C49   H41   S    
C42   H19   S    
C31   C32   A    
C44   H28   S    
O3    Zn1   S    
C7    H44   S    
C12   C34   S    
C18   C22   A    
C25   C32   A    
C5    C6    A    
C47   N7    S    
C20   C21   A    
C44   H29   S    
C6    C7    A    
O5    Zn1   S    
C5    C9    A    
C30   H5    S    
C10   C11   A    
C50   H42   S    
C11   C14   A    
C39   C41   S    
C38   H8    S    
C15   C48   A    
C14   C15   A    
H22   N4    S    
C45   C50   A    
C1    O2    A    
C23   H23   S    
C44   N5    S    
C2    C51   A    
N2    Zn1   S    
C21   C22   A    
C29   H10   S    
C18   H6    S    
C35   N2    A    
C37   H43   S    
C43   H24   S    
C33   H11   S    
C12   C23   S    
C44   H30   S    
C36   H4    S    
C1    O1    A    
C4    O4    A    
C42   H20   S    
C15   N3    S    
C34   C40   S    
C32   C36   A    
C40   C41   S    
C26   C27   A    
C2    C5    A    
Br2   C35   S    
C20   H7    S    
C8    H34   S    
C13   C17   A    
C37   H1    S    
C34   H12   S    
C30   C31   A    
C4    C41   S    
O2    Zn2   S    
C9    H2    S    
H31   N6    S    
C42   N3    S    
C47   H38   S    
C37   C38   S    
C40   H16   S    
C34   H17   S    
C11   C13   A    
C3    C8    A    
C49   C50   A    
C23   C39   S    
C1    C45   S    
H27   N5    S    
C16   O5    A    
C22   C27   A    
C17   H40   S    
C19   N1    A    
C24   C29   A    
C46   H32   S    
H36   N7    S    
C46   H35   S    
C28   O7    A    
C47   H39   S    
C12   C28   S    
C16   O6    A    
C42   H21   S    
C23   H14   S    
C29   C30   A    
C33   C35   A    
C43   H26   S    
C36   N2    A    
C43   H25   S    
C31   C33   A    
C39   N7    S    
C7    C8    A    
O4    Zn2   S    
C12   C38   S    
C16   C48   S    
Br1   C39   S    
C37   C41   S    
C9    C10   A    
C40   H15   S    
C27   N6    S    
C24   C25   A    
C4    O3    A    
Br3   C19   S    
O6    Zn2   S    
C3    C49   A    
C10   N4    S    
C18   C19   A    
C47   H37   S    
C28   O8    A    
C14   H3    S    
O8    Zn2   S    
