data_mof_unit_40118.cif
_audit_creation_date              2012-12-11T14:24:57-0500
_audit_creation_method            fapswitch 2.2
_symmetry_space_group_name_H-M    P1
_symmetry_Int_Tables_number       1
_space_group_crystal_system       triclinic
_cell_length_a                    19.115665
_cell_length_b                    10.998617
_cell_length_c                    18.783324
_cell_angle_alpha                 90.389777
_cell_angle_beta                  90.012031
_cell_angle_gamma                 89.434283
_cell_volume                      3948.83253501

loop_
_atom_site_label
_atom_site_type_symbol
_atom_type_description
_atom_site_fract_x
_atom_site_fract_y
_atom_site_fract_z
_atom_type_partial_charge
C1    C     C_R   0.715607 0.335437 0.138468 0.560859
C2    C     C_R   0.230143 0.855019 0.062005 -0.007063
C3    C     C_R   0.612328 0.504493 0.436144 -0.084031
C4    C     C_R   0.951747 0.943948 0.490189 -0.136470
C5    C     C_R   0.088442 0.111478 0.471466 -0.104103
C6    C     C_R   0.439550 0.503412 0.503968 -0.164347
C7    C     C_R   0.587763 0.615136 0.460525 -0.107670
C8    C     C_R   0.939021 0.926278 0.418006 -0.122443
C9    C     C_R   0.125839 0.167972 0.524423 -0.086953
C10   C     C_R   0.433471 0.464175 0.433851 -0.117983
C11   C     C_R   0.621486 0.670373 0.516023 -0.098336
C12   C     C_R   0.874389 0.886390 0.396456 -0.085888
C13   C     C_R   0.269035 0.359069 0.937457 -0.006656
C14   C     C_R   0.192573 0.125692 0.539992 -0.078163
C15   C     C_R   0.373188 0.407908 0.411716 -0.073146
C16   C     C_R   0.682917 0.619294 0.541180 -0.084145
C17   C     C_R   0.750165 0.910536 0.422945 -0.007326
C18   C     C_R   0.247086 0.928435 0.571272 -0.013385
C19   C     C_R   0.246776 0.414709 0.425896 -0.017157
C20   C     C_R   0.742423 0.423815 0.572480 -0.017290
C21   C     C_R   0.707849 0.326326 0.360150 0.579222
C22   C     C_R   0.271440 0.379443 0.645304 0.538663
C23   C     C_R   0.208461 0.827119 0.360518 0.574400
C24   C     C_R   0.730131 0.354985 0.061995 -0.007187
C25   C     C_R   0.787020 0.839393 0.638160 0.520528
C26   C     C_R   0.529467 0.158296 0.350981 0.528943
C27   C     C_R   0.436161 0.151582 0.639334 0.537970
C28   C     C_R   0.031652 0.658086 0.352120 0.521759
C29   C     C_R   0.938371 0.651331 0.639123 0.513794
C30   C     C_R   0.741201 0.970552 0.355654 0.528151
C31   C     C_R   0.258568 0.973631 0.642704 0.550126
C32   C     C_R   0.240942 0.470001 0.356041 0.530788
C33   C     C_R   0.757923 0.472899 0.642752 0.569087
C34   C     C_3   0.528971 0.260260 0.970456 -0.131022
C35   C     C_R   0.709386 0.813952 0.975422 0.019012
C36   C     C_3   0.472742 0.262083 0.029832 -0.133067
C37   C     C_3   0.028973 0.760268 0.970456 -0.131622
C38   C     C_3   0.972743 0.762073 0.029832 -0.132774
C39   C     C_3   0.569588 0.159103 0.010398 -0.106669
C40   C     C_3   0.431289 0.163049 0.989385 -0.113239
C41   C     C_3   0.069597 0.659117 0.010397 -0.107247
C42   C     C_3   0.931298 0.663033 0.989382 -0.112863
C43   C     C_3   0.512611 0.160973 0.068480 0.051960
C44   C     C_3   0.488204 0.161337 0.931260 0.048411
C45   C     C_3   0.012619 0.660970 0.068478 0.052024
C46   C     C_R   0.289724 0.808013 0.023391 0.019931
C47   C     C_3   0.988213 0.661338 0.931257 0.047824
C48   C     C_2   0.620340 0.930396 0.454350 0.582558
C49   C     C_2   0.275641 0.718725 0.610327 0.560141
C50   C     C_2   0.113630 0.398506 0.444831 0.598864
C51   C     C_2   0.788098 0.215292 0.604887 0.577203
C52   C     C_R   0.209360 0.314036 0.975407 0.019557
C53   C     C_R   0.789703 0.307957 0.023370 0.019474
C54   C     C_R   0.708840 0.824145 0.050924 0.024348
C55   C     C_R   0.291221 0.822100 0.948082 0.022894
C56   C     C_R   0.208820 0.324193 0.050910 0.023949
C57   C     C_R   0.283690 0.338307 0.861186 0.553361
C58   C     C_R   0.791194 0.322048 0.948059 0.024297
C59   C     C_R   0.818421 0.932617 0.047736 -0.156059
C60   C     C_R   0.182100 0.935725 0.952830 -0.155432
C61   C     C_R   0.318407 0.432656 0.047727 -0.156321
C62   C     C_R   0.682087 0.435700 0.952820 -0.156007
C63   C     C_R   0.823827 0.911902 0.975833 -0.158002
C64   C     C_R   0.176003 0.912251 0.024265 -0.158874
C65   C     C_R   0.323806 0.411967 0.975823 -0.158135
C66   C     C_R   0.675993 0.412225 0.024257 -0.159348
C67   C     C_R   0.649784 0.760886 0.942751 -0.101055
C68   C     C_R   0.215611 0.835448 0.138470 0.560766
C69   C     C_R   0.348277 0.748916 0.055245 -0.102005
C70   C     C_R   0.149750 0.261011 0.942729 -0.100922
C71   C     C_R   0.848251 0.248835 0.055214 -0.101994
C72   C     C_R   0.097174 0.208180 0.983195 -0.149974
C73   C     C_R   0.901348 0.196552 0.013964 -0.149220
C74   C     C_R   0.597205 0.708080 0.983224 -0.149965
C75   C     C_R   0.401381 0.696635 0.014005 -0.149932
C76   C     C_R   0.602463 0.704567 0.056726 -0.117092
C77   C     C_R   0.397193 0.697944 0.940422 -0.116855
C78   C     C_R   0.102436 0.204626 0.056696 -0.117076
C79   C     C_R   0.783706 0.838263 0.861186 0.558230
C80   C     C_R   0.897150 0.197864 0.940380 -0.117918
C81   C     C_R   0.657827 0.761622 0.090493 -0.066200
C82   C     C_R   0.342468 0.759248 0.907551 -0.067667
C83   C     C_R   0.157804 0.261662 0.090472 -0.066073
C84   C     C_R   0.842425 0.259179 0.907516 -0.066862
C85   C     C_R   0.533155 0.155261 0.143969 0.538215
C86   C     C_R   0.467153 0.155245 0.855880 0.556335
C87   C     C_R   0.033155 0.655261 0.143970 0.538324
C88   C     C_R   0.967158 0.655246 0.855877 0.556849
C89   C     C_R   0.759026 0.898013 0.084879 -0.003460
C90   C     C_3   0.471789 0.061905 0.029003 -0.104566
C91   C     C_R   0.241498 0.899324 0.915197 -0.001906
C92   C     C_R   0.259014 0.398038 0.084870 -0.003464
C93   C     C_R   0.741482 0.399296 0.915182 0.000009
C94   C     C_R   0.454667 0.152474 0.563302 0.017912
C95   C     C_R   0.491265 0.168751 0.418480 0.025056
C96   C     C_R   0.962365 0.648195 0.565243 0.008463
C97   C     C_R   0.999511 0.666725 0.421932 0.034949
C98   C     C_R   0.434184 0.059300 0.514157 0.041835
C99   C     C_R   0.444526 0.077854 0.440154 0.048217
C100  C     C_R   0.935240 0.564141 0.514479 0.039908
C101  C     C_3   0.528260 0.060123 0.970179 -0.100926
C102  C     C_R   0.946263 0.586139 0.441275 0.056471
C103  C     C_R   0.519861 0.245600 0.469690 -0.106778
C104  C     C_R   0.498397 0.244062 0.539673 -0.097083
C105  C     C_R   0.038836 0.723867 0.475047 -0.116749
C106  C     C_R   0.018641 0.719892 0.545716 -0.108441
C107  C     C_R   0.413233 0.942117 0.535478 -0.086099
C108  C     C_R   0.417950 0.992862 0.390731 -0.099850
C109  C     C_R   0.910897 0.447807 0.533363 -0.080553
C110  C     C_R   0.915982 0.508293 0.390098 -0.084208
C111  C     C_R   0.898329 0.360175 0.480921 -0.117152
C112  C     C_3   0.971805 0.561895 0.028996 -0.104255
C113  C     C_R   0.896654 0.392222 0.409780 -0.105909
C114  C     C_R   0.400812 0.850838 0.485279 -0.133876
C115  C     C_R   0.398913 0.877947 0.413375 -0.126150
C116  C     C_R   0.776561 0.878953 0.566253 0.001965
C117  C     C_R   0.210698 0.847000 0.437241 -0.028860
C118  C     C_R   0.261613 0.422137 0.572914 0.002950
C119  C     C_R   0.707359 0.343246 0.437326 -0.027462
C120  C     C_R   0.832874 0.889617 0.518367 0.027475
C121  C     C_R   0.178469 0.952472 0.466031 0.031676
C122  C     C_R   0.320560 0.439043 0.527909 0.020315
C123  C     C_3   0.028277 0.560131 0.970173 -0.101677
C124  C     C_R   0.672003 0.445854 0.466740 0.029818
C125  C     C_R   0.818668 0.888699 0.445384 -0.000709
C126  C     C_R   0.210013 0.004625 0.524088 0.000109
C127  C     C_R   0.313557 0.412785 0.455488 -0.012779
C128  C     C_R   0.700851 0.497283 0.526629 0.002823
C129  C     C_R   0.694759 0.916807 0.472946 0.013456
C130  C     C_R   0.257894 0.805390 0.553872 0.030026
C131  C     C_R   0.186579 0.413083 0.470764 0.013279
C132  C     C_R   0.758227 0.302581 0.553105 0.013947
C133  C     C_R   0.743568 0.964481 0.151148 0.529568
C134  C     C_R   0.769059 0.858991 0.937467 -0.007049
C135  C     C_R   0.256677 0.964824 0.849035 0.543238
C136  C     C_R   0.243565 0.464488 0.151145 0.531831
C137  C     C_R   0.756672 0.464812 0.849028 0.554804
C138  C     C_R   0.709291 0.904099 0.544295 -0.151140
C139  C     C_R   0.245542 0.767173 0.483601 -0.178107
C140  C     C_R   0.195517 0.419721 0.544191 -0.158567
C141  C     C_R   0.746100 0.266793 0.482251 -0.171275
C142  C     C_R   0.901500 0.916202 0.539978 -0.052898
C143  C     C_R   0.115686 0.006622 0.440478 -0.081700
C144  C     C_R   0.385089 0.487925 0.550896 -0.068105
Cr1   Cr    Cr6+3 0.772820 0.169820 0.252640 0.979461
Cr2   Cr    Cr6+3 0.383280 0.011130 0.749340 1.032881
Cr3   Cr    Cr6+3 0.116720 0.511130 0.250660 1.029719
Cr4   Cr    Cr6+3 0.883280 0.511130 0.749340 1.015483
Cr5   Cr    Cr6+3 0.227180 0.169820 0.747360 0.998081
Cr6   Cr    Cr6+3 0.272820 0.669820 0.252640 0.981195
Cr7   Cr    Cr6+3 0.727180 0.669820 0.747360 1.004276
Cr8   Cr    Cr6+3 0.615040 0.323610 0.249150 0.984816
Cr9   Cr    Cr6+3 0.384960 0.323610 0.750850 1.011409
Cr10  Cr    Cr6+3 0.115040 0.823610 0.249150 0.985357
Cr11  Cr    Cr6+3 0.884960 0.823610 0.750850 1.000706
Cr12  Cr    Cr6+3 0.616720 0.011130 0.250660 1.032022
H1    H     H_    0.626831 0.156394 0.020407 0.119776
H2    H     H_    0.419071 0.009909 0.334040 0.127798
H3    H     H_    0.910217 0.416530 0.587306 0.171141
H4    H     H_    0.917147 0.529144 0.333857 0.120216
H5    H     H_    0.890014 0.266706 0.495172 0.160584
H6    H     H_    0.885618 0.324565 0.369550 0.146423
H7    H     H_    0.391162 0.758862 0.502320 0.147886
H8    H     H_    0.387456 0.807441 0.374916 0.151810
H9    H     H_    0.917983 0.925779 0.594225 0.182648
H10   H     H_    0.083739 0.962779 0.401650 0.139672
H11   H     H_    0.394605 0.525179 0.602927 0.203090
H12   H     H_    0.374043 0.163228 0.979424 0.118682
H13   H     H_    0.581849 0.463983 0.394713 0.143307
H14   H     H_    0.667206 0.907933 0.583029 0.168095
H15   H     H_    0.261828 0.677531 0.465791 0.131615
H16   H     H_    0.151144 0.417246 0.580016 0.165543
H17   H     H_    0.766518 0.180905 0.462314 0.153875
H18   H     H_    0.002333 0.965427 0.510230 0.114083
H19   H     H_    0.037674 0.146642 0.455796 0.130034
H20   H     H_    0.486286 0.543036 0.524661 0.121491
H21   H     H_    0.541037 0.655344 0.437886 0.126593
H22   H     H_    0.978192 0.940266 0.378037 0.113503
H23   H     H_    0.126840 0.656419 0.020407 0.119071
H24   H     H_    0.103014 0.244052 0.552484 0.136997
H25   H     H_    0.473827 0.477571 0.395404 0.099589
H26   H     H_    0.600038 0.752252 0.539376 0.136505
H27   H     H_    0.866131 0.869364 0.340197 0.126446
H28   H     H_    0.226395 0.178339 0.572551 0.151798
H29   H     H_    0.370309 0.375872 0.357085 0.124432
H30   H     H_    0.714159 0.672231 0.575239 0.147112
H31   H     H_    0.550282 0.341298 0.943853 0.110258
H32   H     H_    0.452470 0.344701 0.056945 0.105338
H33   H     H_    0.050281 0.841313 0.943858 0.109306
H34   H     H_    0.874053 0.663194 0.979421 0.118064
H35   H     H_    0.952470 0.844684 0.056951 0.104972
H36   H     H_    0.447866 0.981005 0.053867 0.132820
H37   H     H_    0.551497 0.977834 0.944705 0.135058
H38   H     H_    0.947888 0.480986 0.053857 0.132491
H39   H     H_    0.051520 0.477853 0.944694 0.133914
H40   H     H_    0.859916 0.981953 0.073821 0.137139
H41   H     H_    0.140915 0.987977 0.927599 0.140972
H42   H     H_    0.359905 0.481985 0.073812 0.137289
H43   H     H_    0.640904 0.487954 0.927589 0.140958
H44   H     H_    0.639739 0.760638 0.886665 0.162483
H45   H     H_    0.562791 0.301374 0.456596 0.115727
H46   H     H_    0.356767 0.741779 0.111362 0.163374
H47   H     H_    0.139696 0.260833 0.886644 0.161522
H48   H     H_    0.856738 0.241678 0.111331 0.163230
H49   H     H_    0.871680 0.939774 0.950049 0.148535
H50   H     H_    0.128247 0.942146 0.050336 0.146857
H51   H     H_    0.371660 0.439842 0.950040 0.148882
H52   H     H_    0.628241 0.442128 0.050331 0.146969
H53   H     H_    0.053106 0.166388 0.956978 0.098036
H54   H     H_    0.944714 0.150427 0.039496 0.093329
H55   H     H_    0.553143 0.666259 0.957013 0.098428
H56   H     H_    0.520941 0.309114 0.576461 0.144490
H57   H     H_    0.444747 0.650522 0.039545 0.093390
H58   H     H_    0.063318 0.158338 0.087766 0.101878
H59   H     H_    0.936335 0.151197 0.908536 0.102727
H60   H     H_    0.563346 0.658287 0.087802 0.101781
H61   H     H_    0.436386 0.651284 0.908585 0.105215
H62   H     H_    0.661058 0.754149 0.147779 0.137966
H63   H     H_    0.339870 0.754386 0.850106 0.146132
H64   H     H_    0.161034 0.254166 0.147757 0.140216
H65   H     H_    0.839813 0.254326 0.850069 0.140932
H66   H     H_    0.538831 0.860754 0.400235 0.334956
H67   H     H_    0.085136 0.772338 0.461627 0.108660
H68   H     H_    0.237978 0.612718 0.688192 0.343791
H69   H     H_    0.046815 0.319994 0.375325 0.324851
H70   H     H_    0.790302 0.153887 0.705941 0.350190
H71   H     H_    0.047004 0.772797 0.584902 0.148878
H72   H     H_    0.411923 0.914426 0.589974 0.193707
O1    O     O_R   0.788190 0.043000 0.172520 -0.540881
O2    O     O_R   0.454170 0.051610 0.669840 -0.510938
O3    O     O_R   0.045830 0.551610 0.330160 -0.493104
O4    O     O_R   0.954170 0.551610 0.669840 -0.507591
O5    O     O_R   0.681920 0.959720 0.327070 -0.452955
O6    O     O_R   0.318080 0.959720 0.672930 -0.505834
O7    O     O_R   0.181920 0.459720 0.327070 -0.453600
O8    O     O_R   0.818080 0.459720 0.672930 -0.514432
O9    O     O_3   0.668190 0.168190 0.250820 -0.290105
O10   O     O_3   0.331810 0.168190 0.749180 -0.293295
O11   O     O_3   0.168190 0.668190 0.250820 -0.291195
O12   O     O_R   0.211810 0.043000 0.827480 -0.528863
O13   O     O_3   0.831810 0.668190 0.749180 -0.304160
O14   O     O_R   0.766240 0.292300 0.176860 -0.513826
O15   O     O_R   0.233760 0.292300 0.823140 -0.514546
O16   O     O_R   0.266240 0.792300 0.176860 -0.513565
O17   O     O_R   0.733760 0.792300 0.823140 -0.507441
O18   O     O_R   0.670310 0.409160 0.168720 -0.513883
O19   O     O_R   0.329690 0.409160 0.831280 -0.517429
O20   O     O_R   0.170310 0.909160 0.168720 -0.512572
O21   O     O_R   0.829690 0.909160 0.831280 -0.517414
O22   O     O_R   0.556160 0.251900 0.173380 -0.522753
O23   O     O_R   0.288190 0.543000 0.172520 -0.539978
O24   O     O_R   0.443840 0.251900 0.826620 -0.512072
O25   O     O_R   0.056160 0.751900 0.173380 -0.522350
O26   O     O_R   0.943840 0.751900 0.826620 -0.511246
O27   O     O_R   0.545410 0.050140 0.168240 -0.518673
O28   O     O_R   0.454590 0.050140 0.831760 -0.510339
O29   O     O_R   0.045410 0.550140 0.168240 -0.518488
O30   O     O_R   0.954590 0.550140 0.831760 -0.510977
O31   O     O_R   0.681530 0.958350 0.176970 -0.507600
O32   O     O_R   0.318470 0.958350 0.823030 -0.507011
O33   O     O_R   0.181530 0.458350 0.176970 -0.506017
O34   O     O_R   0.711810 0.543000 0.827480 -0.527120
O35   O     O_R   0.818470 0.458350 0.823030 -0.504273
O36   O     O_R   0.788610 0.044480 0.334450 -0.544261
O37   O     O_R   0.211390 0.044480 0.665550 -0.524529
O38   O     O_R   0.288610 0.544480 0.334450 -0.542764
O39   O     O_R   0.711390 0.544480 0.665550 -0.527225
O40   O     O_R   0.766630 0.293670 0.326970 -0.504682
O41   O     O_R   0.233370 0.293670 0.673030 -0.522168
O42   O     O_R   0.266630 0.793670 0.326970 -0.499225
O43   O     O_R   0.733370 0.793670 0.673030 -0.515454
O44   O     O_R   0.670730 0.410640 0.330640 -0.519201
O45   O     O_R   0.556550 0.253260 0.323480 -0.548928
O46   O     O_R   0.329270 0.410640 0.669360 -0.528794
O47   O     O_R   0.170730 0.910640 0.330640 -0.514251
O48   O     O_R   0.829270 0.910640 0.669360 -0.498619
O49   O     O_2   0.582712 0.995083 0.491178 -0.544014
O50   O     O_R   0.591575 0.856431 0.401461 -0.669393
O51   O     O_2   0.335227 0.713407 0.633569 -0.561577
O52   O     O_R   0.221663 0.656464 0.643795 -0.698727
O53   O     O_2   0.065612 0.441047 0.479892 -0.546328
O54   O     O_R   0.098745 0.324639 0.385857 -0.663070
O55   O     O_2   0.831512 0.140222 0.585551 -0.549818
O56   O     O_R   0.443450 0.253260 0.676520 -0.499888
O57   O     O_R   0.765897 0.217634 0.675836 -0.676727
O58   O     O_R   0.056550 0.753260 0.323480 -0.551204
O59   O     O_R   0.943450 0.753260 0.676520 -0.523903
O60   O     O_R   0.545830 0.051610 0.330160 -0.489591

loop_
_geom_bond_atom_site_label_1
_geom_bond_atom_site_label_2
_ccdc_geom_bond_type
Cr2   O6    S    
C111  H5    S    
H70   O57   S    
Cr5   O37   S    
C57   O19   A    
C78   H58   S    
C114  C115  A    
C15   H29   S    
C135  O32   A    
C45   C87   S    
C84   H65   S    
C4    C142  A    
C95   C99   A    
C5    C143  A    
C7    H21   S    
C38   C45   S    
C131  C140  A    
Cr3   O3    S    
C46   C55   A    
C139  H15   S    
C97   C105  A    
C137  O34   A    
C94   C104  A    
C100  C109  A    
C15   C127  A    
C17   C30   S    
C117  C139  A    
C20   C132  A    
C118  C140  A    
C19   C32   S    
C35   C134  A    
C31   O6    A    
C85   O27   A    
C50   O53   D    
C43   C85   S    
C67   H44   S    
C71   C73   A    
C120  C125  A    
C3    H13   S    
C49   O52   S    
C36   H32   S    
C103  H45   S    
C143  H10   S    
Cr7   O17   S    
C37   C38   S    
C42   H34   S    
C47   C123  S    
C53   C58   A    
Cr1   O36   S    
C120  C142  A    
C111  C113  A    
C67   C74   A    
H69   O54   S    
C33   O8    A    
C20   C33   S    
C119  C141  A    
C48   C129  S    
C18   C130  A    
C53   C71   A    
C56   C83   A    
C22   C118  S    
C136  O33   A    
C29   O4    A    
Cr11  O48   S    
C44   C101  S    
Cr12  O9    S    
C59   C63   A    
C14   C126  A    
C74   H55   S    
C60   C64   A    
C21   C119  S    
C77   H61   S    
C77   C82   A    
Cr1   O40   S    
C30   O5    A    
C50   C131  S    
C61   C65   A    
Cr6   O11   S    
C62   C93   A    
C49   O51   D    
C106  H71   S    
C18   C31   S    
C54   C81   A    
C21   O44   A    
Cr10  O25   S    
C28   C97   S    
C23   O42   A    
Cr2   O32   S    
C87   O29   A    
Cr8   O22   S    
Cr11  O21   S    
C90   H36   S    
C68   O20   A    
C99   C108  A    
C74   C76   A    
C108  C115  A    
C62   H43   S    
C25   O48   A    
C2    C68   S    
C109  C111  A    
C93   C137  S    
C12   H27   S    
C13   C57   S    
C86   O28   A    
H68   O52   S    
C118  C122  A    
C122  C127  A    
C42   C112  S    
C72   C78   A    
Cr7   O34   S    
C82   H63   S    
Cr2   O10   S    
C37   C47   S    
C28   O58   A    
C69   H46   S    
C23   O47   A    
C95   C103  A    
C71   H48   S    
C89   C133  S    
C62   C66   A    
C144  H11   S    
C34   C39   S    
C25   C116  S    
C27   O56   A    
C75   H57   S    
C116  C120  A    
C5    C9    A    
Cr7   O13   S    
C72   H53   S    
C110  C113  A    
C35   C67   A    
C8    C12   A    
C75   C77   A    
C112  H38   S    
C25   O43   A    
C22   O41   A    
C98   C99   A    
C104  H56   S    
C6    C144  A    
C109  H3    S    
C110  H4    S    
C132  C141  A    
C79   C134  S    
Cr1   O1    S    
C41   C45   S    
C41   H23   S    
C27   C94   S    
C23   C117  S    
C29   C96   S    
C61   C92   A    
C65   H51   S    
Cr3   O11   S    
C49   C130  S    
C18   C126  A    
C96   C100  A    
Cr1   O14   S    
Cr10  O58   S    
C34   C36   S    
C37   C41   S    
C34   H31   S    
C1    O14   A    
C40   C44   S    
C24   C66   A    
C1    C24   S    
C38   H35   S    
Cr9   O56   S    
C31   O37   A    
C80   C84   A    
C48   O49   D    
Cr9   O10   S    
C50   O54   S    
C79   O17   A    
C58   C93   A    
C3    C7    A    
Cr8   O45   S    
Cr11  O26   S    
C94   C98   A    
C135  O12   A    
C55   C91   A    
C21   O40   A    
C78   C83   A    
Cr4   O4    S    
Cr6   O38   S    
Cr8   O18   S    
C97   C102  A    
Cr12  O27   S    
C88   O30   A    
C124  C128  A    
Cr12  O31   S    
Cr6   O16   S    
C29   O59   A    
C4    H18   S    
C35   C54   A    
C5    H19   S    
C123  H39   S    
C92   C136  S    
C11   H26   S    
C130  C139  A    
C101  H37   S    
C80   H59   S    
C86   O24   A    
Cr9   O24   S    
C43   C90   S    
C63   C134  A    
C112  C123  S    
C88   O26   A    
C12   C125  A    
C24   C53   A    
C105  H67   S    
C64   H50   S    
C98   C107  A    
Cr3   O29   S    
C9    C14   A    
C107  C114  A    
C26   O60   A    
C26   O45   A    
C13   C52   A    
C66   H52   S    
C11   C16   A    
C76   H60   S    
C27   O2    A    
Cr5   O10   S    
C60   H41   S    
C137  O35   A    
Cr7   O39   S    
C102  C110  A    
C3    C124  A    
C70   H47   S    
C51   O57   S    
C61   H42   S    
C6    C10   A    
C51   C132  S    
C38   C42   S    
C59   H40   S    
C105  C106  A    
C1    O18   A    
Cr5   O41   S    
C57   O15   A    
Cr9   O19   S    
C69   C75   A    
C133  O1    A    
C133  O31   A    
C91   C135  S    
C63   H49   S    
C103  C104  A    
C10   H25   S    
C36   C43   S    
C40   C90   S    
C22   O46   A    
C32   O7    A    
Cr3   O7    S    
C37   H33   S    
C138  H14   S    
C121  C143  A    
C122  C144  A    
C4    C8    A    
C17   C125  A    
C45   C112  S    
Cr6   O23   S    
C13   C65   A    
C119  C124  A    
C2    C46   A    
C7    C11   A    
C33   O39   A    
Cr8   O44   S    
C20   C128  A    
C10   C15   A    
C59   C89   A    
C108  H2    S    
Cr5   O12   S    
C115  H8    S    
C117  C121  A    
C46   C69   A    
C113  H6    S    
C129  C138  A    
Cr1   O9    S    
C136  O23   A    
C32   O38   A    
Cr9   O46   S    
H66   O50   S    
Cr5   O15   S    
C85   O22   A    
C140  H16   S    
C39   H1    S    
C141  H17   S    
C79   O21   A    
C51   O55   D    
C44   C86   S    
C2    C64   A    
C39   C101  S    
C116  C138  A    
C19   C131  A    
Cr8   O9    S    
C17   C129  A    
C73   H54   S    
C36   C40   S    
C34   C44   S    
C54   C89   A    
C87   O25   A    
C39   C43   S    
Cr10  O11   S    
Cr4   O8    S    
C90   C101  S    
C58   C84   A    
Cr12  O5    S    
C107  H72   S    
C100  C102  A    
C55   C82   A    
C16   C128  A    
C28   O3    A    
C9    H24   S    
Cr6   O42   S    
Cr10  O20   S    
Cr4   O13   S    
Cr3   O33   S    
Cr11  O59   S    
Cr11  O13   S    
Cr12  O60   S    
Cr2   O2    S    
C60   C91   A    
C26   C95   S    
C96   C106  A    
Cr2   O28   S    
Cr4   O30   S    
C76   C81   A    
C14   H28   S    
C48   O50   S    
C47   C88   S    
C41   C123  S    
C121  C126  A    
C16   H30   S    
C142  H9    S    
C83   H64   S    
Cr7   O43   S    
C114  H7    S    
C6    H20   S    
C68   O16   A    
C81   H62   S    
C19   C127  A    
C73   C80   A    
C30   O36   A    
C42   C47   S    
Cr4   O35   S    
Cr10  O47   S    
C40   H12   S    
C52   C70   A    
C8    H22   S    
C56   C92   A    
C70   C72   A    
C52   C56   A    
