data_mof_unit_20975.cif
_audit_creation_date              2012-12-10T17:17:30-0500
_audit_creation_method            fapswitch 2.2
_symmetry_space_group_name_H-M    P1
_symmetry_Int_Tables_number       1
_space_group_crystal_system       triclinic
_cell_length_a                    10.346124
_cell_length_b                    10.82298
_cell_length_c                    12.498134
_cell_angle_alpha                 92.011877
_cell_angle_beta                  110.380597
_cell_angle_gamma                 95.455874
_cell_volume                      1302.44404764

loop_
_atom_site_label
_atom_site_type_symbol
_atom_type_description
_atom_site_fract_x
_atom_site_fract_y
_atom_site_fract_z
_atom_type_partial_charge
C1    C     C_R   0.049104 0.731446 0.489861 0.924065
C2    C     C_R   0.221488 0.570836 0.831717 -0.174926
C3    C     C_2   0.070772 0.862102 0.474631 -0.361292
C4    C     C_R   0.138251 0.527322 0.711871 0.875710
C5    C     C_2   0.968275 0.930783 0.467560 -0.147097
C6    C     C_2   0.912031 0.135208 0.496921 -0.382125
C7    C     C_2   0.990922 0.062683 0.464666 -0.129849
C8    C     C_2   0.434709 0.511906 0.502830 -0.051547
C9    C     C_2   0.568458 0.486193 0.487347 0.192023
C10   C     C_R   0.947322 0.268006 0.504203 0.952362
C11   C     C_R   0.864469 0.486868 0.286606 0.878537
C12   C     C_R   0.441887 0.574254 0.987829 0.051723
C13   C     C_R   0.772092 0.478044 0.966041 0.177241
C14   C     C_R   0.788330 0.488247 0.164289 -0.099189
C15   C     C_R   0.156456 0.597386 0.909759 -0.201909
C16   C     C_R   0.233136 0.615119 0.026844 0.255222
C17   C     C_R   0.373957 0.598421 0.066097 -0.195775
C18   C     C_3   0.562842 0.380314 0.404211 -0.701043
C19   C     C_3   0.826551 0.433476 0.875974 -0.901957
C20   C     C_3   0.165376 0.647599 0.110970 -0.896038
C21   C     C_R   0.367701 0.580410 0.870915 0.093961
C22   C     C_R   0.579676 0.542392 0.019956 0.051237
C23   C     C_R   0.642675 0.526714 0.936431 0.163625
C24   C     C_R   0.575361 0.562872 0.826456 -0.244585
C25   C     C_R   0.442276 0.596043 0.796687 -0.182202
C26   C     C_R   0.653195 0.519361 0.131693 -0.261329
C27   C     C_R   0.846306 0.462950 0.081431 -0.202380
H1    H     H_    0.947723 0.430329 0.106406 0.183710
H2    H     H_    0.427632 0.609494 0.157438 0.142006
H3    H     H_    0.397048 0.633701 0.715031 0.160013
H4    H     H_    0.079147 0.100501 0.442979 0.213044
H5    H     H_    0.527095 0.291990 0.432898 0.224054
H6    H     H_    0.496685 0.400198 0.317023 0.215121
H7    H     H_    0.658152 0.362320 0.393959 0.270773
H8    H     H_    0.753025 0.355774 0.820947 0.252626
H9    H     H_    0.836525 0.509196 0.821241 0.234750
H10   H     H_    0.929428 0.399153 0.914494 0.250918
H11   H     H_    0.053934 0.658450 0.067302 0.244785
H12   H     H_    0.869448 0.891140 0.471447 0.190394
H13   H     H_    0.173987 0.573272 0.171288 0.260228
H14   H     H_    0.218107 0.736733 0.160330 0.244928
H15   H     H_    0.824206 0.096766 0.518802 0.154640
H16   H     H_    0.169327 0.902377 0.470801 0.157973
H17   H     H_    0.441010 0.590937 0.560143 0.084495
H18   H     H_    0.682842 0.625832 0.599453 0.122689
H19   H     H_    0.624023 0.566303 0.762883 0.144014
H20   H     H_    0.606203 0.525849 0.195524 0.172080
H21   H     H_    0.047052 0.605928 0.879605 0.165950
I1    I     I_    0.243861 0.302264 0.324356 -0.380900
N1    N     N_2   0.313640 0.446500 0.454900 -0.025703
N2    N     N_2   0.686360 0.553430 0.545150 -0.206080
O1    O     O_R   0.936910 0.692950 0.509080 -0.610038
O2    O     O_R   0.138320 0.658600 0.480130 -0.623101
O3    O     O_R   0.002900 0.525670 0.675280 -0.608808
O4    O     O_R   0.204310 0.491320 0.646330 -0.606686
O5    O     O_R   0.861680 0.341400 0.519870 -0.623914
O6    O     O_R   0.063090 0.307050 0.490920 -0.574944
O7    O     O_R   0.795690 0.508680 0.353670 -0.633638
O8    O     O_R   0.997100 0.474330 0.324720 -0.586344
Zn1   Zn    Zn3+2 0.865520 0.522940 0.519330 0.923288
Zn2   Zn    Zn3+2 0.134480 0.477060 0.480670 0.985216

loop_
_geom_bond_atom_site_label_1
_geom_bond_atom_site_label_2
_ccdc_geom_bond_type
C12   C17   A    
C6    C10   S    
C2    C4    S    
C23   C24   A    
O6    Zn2   S    
C6    C7    D    
C8    N1    D    
C14   C27   A    
C11   O7    A    
C20   H11   S    
C19   H10   S    
C9    N2    D    
C16   C20   S    
C24   H19   S    
C3    C5    D    
C2    C21   A    
C20   H14   S    
O3    Zn1   S    
C14   C26   A    
C1    O2    A    
C2    C15   A    
C18   H7    S    
C3    H16   S    
C16   C17   A    
O2    Zn2   S    
C26   H20   S    
C11   O8    A    
O4    Zn2   S    
C10   O5    A    
C1    O1    A    
C7    H4    S    
O5    Zn1   S    
C19   H9    S    
C5    H12   S    
C4    O4    A    
C6    H15   S    
C20   H13   S    
C11   C14   S    
O8    Zn2   S    
C18   H5    S    
C18   H6    S    
H18   N2    S    
O7    Zn1   S    
C15   C16   A    
C12   C22   A    
C9    C18   S    
C25   H3    S    
C10   O6    A    
C17   H2    S    
C24   C25   A    
C13   C23   A    
I1    N1    S    
C22   C26   A    
C27   H1    S    
C5    C7    S    
N1    Zn2   S    
C21   C25   A    
C22   C23   A    
C13   C27   A    
C13   C19   S    
C19   H8    S    
N2    Zn1   S    
O1    Zn1   S    
C4    O3    A    
C15   H21   S    
C12   C21   A    
C8    H17   S    
C8    C9    S    
C1    C3    S    
