data_mof_unit_37020.cif
_audit_creation_date              2013-03-05T15:48:55-0500
_audit_creation_method            fapswitch 2.2
_symmetry_space_group_name_H-M    P1
_symmetry_Int_Tables_number       1
_space_group_crystal_system       triclinic
_cell_length_a                    6.98222
_cell_length_b                    13.704186
_cell_length_c                    20.053463
_cell_angle_alpha                 104.426386
_cell_angle_beta                  90.739405
_cell_angle_gamma                 90.86497
_cell_volume                      1857.83803546

loop_
_atom_site_label
_atom_site_type_symbol
_atom_site_description
_atom_site_fract_x
_atom_site_fract_y
_atom_site_fract_z
_atom_type_partial_charge
O1    O     O_R   0.506780 0.600060 0.449950 -0.605020
O2    O     O_R   0.179840 0.597110 0.589410 -0.561589
O3    O     O_R   0.004570 0.399940 0.550050 -0.596265
C1    C     C_R   0.349927 0.615471 0.617903 1.045861
O4    O     O_R   0.177380 0.612160 0.452890 -0.586865
O5    O     O_R   0.002100 0.415100 0.412560 -0.584264
C2    C     C_R   0.346131 0.637079 0.435332 1.021243
O6    O     O_R   0.509250 0.584900 0.587440 -0.569287
O7    O     O_3   0.337570 0.435330 0.486930 -0.270874
V1    V     V_3+5 0.064650 0.512000 0.502430 1.277390
O8    O     O_R   0.672090 0.402890 0.410590 -0.598983
C3    C     C_R   0.838864 0.382165 0.382841 0.969231
O9    O     O_R   0.674540 0.387840 0.547110 -0.595454
C4    C     C_R   0.842782 0.364341 0.565009 0.974990
V2    V     V_3+5 0.564040 0.488000 0.497570 1.261301
O10   O     O_3   0.840990 0.564670 0.513070 -0.244029
C5    C     C_R   0.908750 0.116911 0.603529 0.023767
H1    H     H_    0.903057 0.169684 0.511964 0.175462
H2    H     H_    0.938911 0.041574 0.573801 0.190655
C6    C     C_R   0.851427 0.287828 0.602730 -0.116701
C7    C     C_R   0.816362 0.309947 0.931112 -0.166858
C8    C     C_R   0.788548 0.385205 0.897013 -0.092183
C9    C     C_R   0.799593 0.363898 0.825618 -0.158564
C10   C     C_R   0.841332 0.265693 0.786043 0.106882
C11   C     C_R   0.871861 0.188656 0.821365 0.052244
C12   C     C_R   0.853683 0.241726 0.712691 0.058846
C13   C     C_R   0.894998 0.141633 0.675978 -0.023230
C14   C     C_R   0.928358 0.067654 0.711512 0.406983
C15   C     C_R   0.916398 0.090647 0.783245 -0.247499
C16   C     C_R   0.831573 0.314273 0.674135 -0.211642
C17   C     C_R   0.888061 0.189662 0.567441 -0.138957
C18   C     C_R   0.857699 0.212016 0.894330 -0.116199
H3    H     H_    0.804108 0.392320 0.697676 0.104180
H4    H     H_    0.803488 0.327891 0.986637 0.097851
H5    H     H_    0.773531 0.426230 0.803227 0.108993
H6    H     H_    0.755914 0.460708 0.926128 0.121438
H7    H     H_    0.945770 0.031592 0.808947 0.166611
C19   C     C_3   0.765195 0.164433 0.247126 -0.115687
C20   C     C_3   0.935901 0.209843 0.294186 0.426892
H8    H     H_    0.701421 0.088623 0.242382 0.170797
C21   C     C_3   0.844516 0.313334 0.311733 -0.247979
C22   C     C_3   0.671509 0.269804 0.264311 -0.060773
C23   C     C_3   0.776135 0.295611 0.202864 -0.138298
C24   C     C_3   0.949503 0.339569 0.250906 -0.185254
C25   C     C_3   0.043914 0.234315 0.233856 -0.168063
C26   C     C_3   0.869547 0.191287 0.186744 -0.196218
H9    H     H_    0.519261 0.285953 0.277123 0.161636
H10   H     H_    0.710144 0.330899 0.164180 0.112725
H11   H     H_    0.024439 0.412263 0.252762 0.123922
H12   H     H_    0.196206 0.219759 0.220526 0.164087
C27   C     C_3   0.529874 0.743040 0.729616 0.372790
C28   C     C_3   0.401803 0.833677 0.751983 0.270170
C29   C     C_3   0.352378 0.801631 0.817343 -0.325777
C30   C     C_3   0.482963 0.709401 0.795288 -0.264953
C31   C     C_3   0.309950 0.646308 0.755936 -0.179812
C32   C     C_3   0.179410 0.739077 0.779574 -0.018339
C33   C     C_3   0.230121 0.772978 0.713070 -0.050800
C34   C     C_3   0.361135 0.681088 0.690227 -0.325331
H13   H     H_    0.588207 0.683058 0.828628 0.146097
H14   H     H_    0.271482 0.568005 0.757456 0.139089
H15   H     H_    0.038096 0.734471 0.803269 0.169455
H16   H     H_    0.130412 0.795513 0.676795 0.258065
C35   C     C_R   0.377882 0.890530 0.394212 -0.143708
H17   H     H_    0.376484 0.968826 0.422031 0.213549
C36   C     C_R   0.355602 0.716224 0.397990 -0.249365
C37   C     C_R   0.335713 0.681052 0.065455 0.307081
C38   C     C_R   0.324626 0.606190 0.101522 -0.124865
C39   C     C_R   0.333656 0.630508 0.173217 -0.239961
C40   C     C_R   0.355117 0.731628 0.212139 0.121977
C41   C     C_R   0.367140 0.808211 0.175579 0.005967
C42   C     C_R   0.363245 0.759185 0.285992 0.093598
C43   C     C_R   0.382420 0.862706 0.321673 -0.056003
C44   C     C_R   0.401679 0.936981 0.284373 0.389716
C45   C     C_R   0.390892 0.909138 0.212585 -0.344800
C46   C     C_R   0.351523 0.687307 0.325845 -0.259313
C47   C     C_R   0.368473 0.818832 0.432877 0.300584
C48   C     C_R   0.356701 0.782725 0.102320 -0.171740
H18   H     H_    0.339967 0.607588 0.302576 0.105808
H19   H     H_    0.322864 0.567750 0.196341 0.121771
H20   H     H_    0.308315 0.527693 0.073960 0.124595
H21   H     H_    0.405253 0.968096 0.185643 0.159404
O11   O     O_R   0.203580 0.914920 0.912610 -0.594324
O12   O     O_R   0.535710 0.887810 0.047120 -0.606536
O13   O     O_R   0.710730 0.084950 0.087430 -0.599946
C49   C     C_R   0.366775 0.861700 0.063951 0.936983
O14   O     O_R   0.533010 0.902850 0.910600 -0.580505
O15   O     O_R   0.708010 0.100090 0.949930 -0.568262
C50   C     C_R   0.362098 0.875285 0.886095 1.056769
O16   O     O_R   0.206300 0.899780 0.050100 -0.598453
O17   O     O_3   0.375170 0.064580 0.013100 -0.276397
V3    V     V_3+5 0.648200 0.988020 0.997570 1.199551
O18   O     O_R   0.038030 0.112330 0.952840 -0.591914
C51   C     C_R   0.869408 0.134836 0.933385 0.936203
O19   O     O_R   0.040730 0.097300 0.089360 -0.598722
C52   C     C_R   0.873978 0.120007 0.116450 0.947478
V4    V     V_3+5 0.148780 0.012220 0.002360 1.196284
O20   O     O_3   0.871930 0.935430 0.986900 -0.285858
N1    N     N_R   0.455879 0.935741 0.748809 0.259973
O21   O     O_R   0.527749 0.950982 0.692800 -0.262522
O22   O     O_R   0.426094 0.012461 0.800457 -0.416786
N2    N     N_R   0.724791 0.752921 0.708562 0.249979
O23   O     O_R   0.826122 0.828498 0.744550 -0.438858
O24   O     O_R   0.810942 0.674783 0.671762 -0.403889
N3    N     N_R   0.993997 0.971447 0.674561 0.225304
O25   O     O_R   0.170477 0.967072 0.654861 -0.335156
O26   O     O_R   0.871364 0.907736 0.637232 -0.301104
N4    N     N_R   0.375384 0.852125 0.507038 0.248857
O27   O     O_R   0.291742 0.800391 0.544993 -0.382565
O28   O     O_R   0.456985 0.938136 0.537136 -0.312487
N5    N     N_R   0.435518 0.041492 0.318133 0.244107
O29   O     O_R   0.370093 0.110258 0.289984 -0.438052
O30   O     O_R   0.565366 0.067584 0.366725 -0.376588
C53   C     C_3   0.325275 0.651584 0.987765 -1.070175
H22   H     H_    0.309182 0.568716 0.967152 0.259229
H23   H     H_    0.200474 0.687593 0.969420 0.250030
H24   H     H_    0.458356 0.676611 0.966642 0.243910
N6    N     N_R   0.016848 0.163648 0.346054 0.247502
O31   O     O_R   0.971122 0.071213 0.345780 -0.375299
O32   O     O_R   0.135339 0.214585 0.392948 -0.359959

loop_
_geom_bond_atom_site_label_1
_geom_bond_atom_site_label_2
_geom_bond_distance
_ccdc_geom_bond_type
C24   H11   1.110343 S    
C42   C46   1.416758 A    
C31   C32   1.554856 S    
N2    O23   1.298606 A    
C37   C53   1.509415 S    
O15   V3    2.041537 S    
C21   C22   1.544461 S    
C1    O6    1.300113 A    
N3    O26   1.300406 A    
O17   V3    2.178276 S    
C33   H16   1.102082 S    
C20   C21   1.525416 S    
C6    C16   1.396086 A    
C29   C30   1.546328 S    
C28   C29   1.524396 S    
C12   C13   1.421624 A    
C36   C47   1.406847 A    
C7    C8    1.386720 A    
C14   C15   1.397697 A    
C10   C12   1.429138 A    
C19   C22   1.555074 S    
O14   V3    1.993000 S    
N6    O32   1.300570 A    
O5    C3    1.300319 A    
C19   C20   1.534433 S    
O14   C50   1.298855 A    
C35   C47   1.396387 A    
V2    O10   2.168015 S    
O18   V4    2.038956 S    
C32   C33   1.560675 S    
C44   C45   1.395121 A    
C40   C42   1.434479 A    
N5    O29   1.298776 A    
O8    V2    2.004698 S    
C26   C52   1.502718 S    
C39   C40   1.415551 A    
C41   C45   1.403456 A    
N4    O27   1.300341 A    
O1    V2    2.041938 S    
O13   V3    1.992943 S    
C23   H10   1.110111 S    
C20   C25   1.537203 S    
C53   H24   1.110581 S    
C39   H19   1.076124 S    
C18   C51   1.467150 S    
C48   C49   1.477292 S    
N2    O24   1.300089 A    
O9    C4    1.292523 A    
C41   C48   1.423508 A    
N4    O28   1.301779 A    
O19   C52   1.300219 A    
N3    O25   1.296541 A    
C46   H18   1.077103 S    
C30   H13   1.110371 S    
C8    C9    1.391502 A    
C11   C15   1.411462 A    
C7    C18   1.397302 A    
O11   V4    2.000265 S    
C27   C28   1.519841 S    
C5    C13   1.412127 A    
C4    C6    1.439163 S    
C44   N5    1.438039 S    
C10   C11   1.427329 A    
O4    C2    1.298986 A    
C49   O16   1.298762 A    
C7    H4    1.084055 S    
C20   N6    1.458013 S    
C38   C39   1.392998 A    
O13   C52   1.302204 A    
O2    C1    1.304602 A    
C23   C24   1.554043 S    
C3    C21   1.502335 S    
C2    C36   1.464687 S    
C14   N3    1.427456 S    
C9    C10   1.418305 A    
V4    O20   2.168108 S    
C27   C34   1.531157 S    
V3    O20   1.723727 S    
O19   V4    2.004837 S    
O3    C4    1.291940 A    
O12   C49   1.300370 A    
C12   C16   1.412311 A    
C47   N4    1.442772 S    
C9    H5    1.076154 S    
O9    V2    2.039097 S    
C5    C17   1.378316 A    
C21   C24   1.545372 S    
C27   N2    1.444491 S    
C22   C23   1.552320 S    
C45   H21   1.082235 S    
C15   H7    1.082960 S    
O2    V1    1.992849 S    
O12   V3    2.039040 S    
C24   C25   1.555896 S    
C53   H22   1.110961 S    
O7    V1    2.178270 S    
C29   C32   1.545536 S    
C37   C48   1.409679 A    
C30   C31   1.559971 S    
C16   H3    1.077292 S    
O1    C2    1.297797 A    
C38   H20   1.083553 S    
C43   C44   1.411201 A    
O5    V1    1.992939 S    
O8    C3    1.301629 A    
O17   V4    1.714602 S    
O6    V2    1.999589 S    
C8    H6    1.083025 S    
N1    O22   1.300362 A    
C36   C46   1.401381 A    
C27   C30   1.537284 S    
O16   V4    2.048412 S    
O7    V2    1.716685 S    
C42   C43   1.424251 A    
O3    V1    2.041532 S    
V1    O10   1.723700 S    
N6    O31   1.300339 A    
C19   H8    1.105598 S    
C33   C34   1.546153 S    
C25   H12   1.108649 S    
C11   C18   1.422841 A    
O11   C50   1.300852 A    
O15   C51   1.295727 A    
C28   N1    1.460144 S    
O18   C51   1.300987 A    
C5    H2    1.081102 S    
C37   C38   1.396555 A    
C29   C50   1.492110 S    
C22   H9    1.109432 S    
C40   C41   1.424195 A    
C23   C26   1.541811 S    
N5    O30   1.301219 A    
C19   C26   1.539231 S    
C28   C33   1.536265 S    
C35   H17   1.079256 S    
C25   C26   1.547119 S    
O4    V1    2.039008 S    
C35   C43   1.409840 A    
N1    O21   1.298176 A    
C31   C34   1.552801 S    
C1    C34   1.504432 S    
C13   C14   1.397395 A    
C32   H15   1.108370 S    
H1    C17   1.084305 S    
C31   H14   1.110125 S    
C53   H23   1.110548 S    
C6    C17   1.384447 A    
