data_mof_unit_60970.cif
_audit_creation_date              2012-10-26T20:54:28-0400
_audit_creation_method            fapswitch 2.2
_symmetry_space_group_name_H-M    P1
_symmetry_Int_Tables_number       1
_space_group_crystal_system       triclinic
_cell_length_a                    16.654425
_cell_length_b                    17.27388
_cell_length_c                    17.609323
_cell_angle_alpha                 92.077805
_cell_angle_beta                  90.107043
_cell_angle_gamma                 85.551549
_cell_volume                      5047.38103332

loop_
_atom_site_label
_atom_site_type_symbol
_atom_type_description
_atom_site_fract_x
_atom_site_fract_y
_atom_site_fract_z
_atom_type_partial_charge
C1    C     C_R   0.499940 0.500248 0.355826 0.548149
C2    C     C_R   0.502319 0.571192 0.236728 -0.138601
C3    C     C_R   0.510471 0.430219 0.843071 -0.118358
C4    C     C_R   0.502812 0.571478 0.157513 -0.117893
C5    C     C_R   0.501043 0.500853 0.884813 0.031672
C6    C     C_R   0.500954 0.501457 0.115207 0.031620
C7    C     C_1   0.501274 0.501290 0.965958 -0.039767
C8    C     C_1   0.501247 0.501546 0.034080 -0.039554
C9    C     C_R   0.828960 0.532240 0.559964 -0.148671
C10   C     C_R   0.173470 0.451392 0.451012 -0.150660
C11   C     C_R   0.743746 0.531207 0.560610 0.117345
C12   C     C_R   0.500035 0.500016 0.644171 0.544817
C13   C     C_R   0.258703 0.451081 0.451288 0.115181
C14   C     C_R   0.748020 0.469799 0.438558 0.116295
C15   C     C_R   0.251440 0.550070 0.548106 0.114725
C16   C     C_R   0.510583 0.349975 0.502751 0.544265
C17   C     C_R   0.488939 0.649887 0.500202 0.541505
C18   C     C_R   0.833242 0.471248 0.437525 -0.149895
C19   C     C_R   0.166136 0.550672 0.548275 -0.150415
C20   C     C_R   0.874735 0.502266 0.498435 -0.003920
C21   C     C_R   0.126132 0.501230 0.499590 -0.002504
C22   C     C_1   0.963517 0.502125 0.498575 -0.025279
C23   C     C_R   0.491370 0.571080 0.847498 -0.125941
C24   C     C_1   0.037328 0.501842 0.499054 -0.025134
C25   C     C_R   0.515429 0.265894 0.512688 0.017722
C26   C     C_R   0.480502 0.734277 0.504445 0.025527
C27   C     C_R   0.450126 0.232225 0.545008 -0.139433
C28   C     C_R   0.523889 0.774065 0.559028 -0.134573
C29   C     C_R   0.452075 0.152262 0.551997 -0.117789
C30   C     C_R   0.515103 0.854506 0.565217 -0.115384
C31   C     C_R   0.520075 0.104974 0.527740 0.040202
C32   C     C_R   0.462535 0.896178 0.516372 0.038247
C33   C     C_R   0.587074 0.138731 0.499557 -0.118291
C34   C     C_R   0.498882 0.431196 0.151940 -0.128037
C35   C     C_R   0.415895 0.856189 0.464077 -0.122965
C36   C     C_R   0.584588 0.218736 0.491823 -0.132264
C37   C     C_R   0.424937 0.775283 0.458025 -0.140819
C38   C     C_2   0.522664 0.020290 0.531316 -0.139267
C39   C     C_2   0.457194 0.981321 0.518217 -0.141881
C40   C     C_R   0.706232 0.565208 0.630761 0.088032
C41   C     C_R   0.708766 0.521279 0.696565 -0.083145
C42   C     C_R   0.689122 0.556976 0.767306 -0.109180
C43   C     C_R   0.668335 0.636903 0.773109 -0.108852
C44   C     C_R   0.667379 0.681156 0.708220 -0.140108
C45   C     C_R   0.491194 0.570661 0.768331 -0.122177
C46   C     C_R   0.687285 0.645580 0.637378 -0.094893
C47   C     C_R   0.300448 0.395858 0.396265 0.086847
C48   C     C_R   0.306548 0.415863 0.320017 -0.082206
C49   C     C_R   0.332387 0.359497 0.264540 -0.132245
C50   C     C_R   0.352869 0.283017 0.284788 -0.122526
C51   C     C_R   0.344494 0.262144 0.360092 -0.118861
C52   C     C_R   0.316043 0.317885 0.415110 -0.076857
C53   C     C_R   0.715334 0.429605 0.371852 0.086341
C54   C     C_R   0.710291 0.466135 0.301748 -0.086626
C55   C     C_R   0.692531 0.423812 0.235459 -0.111522
C56   C     C_R   0.498557 0.430976 0.231069 -0.124323
C57   C     C_R   0.680491 0.344778 0.238621 -0.114107
C58   C     C_R   0.687634 0.307762 0.307846 -0.131702
C59   C     C_R   0.706846 0.349823 0.373834 -0.079449
C60   C     C_R   0.285221 0.606864 0.601092 0.084594
C61   C     C_R   0.290848 0.683585 0.578962 -0.075050
C62   C     C_R   0.312422 0.740701 0.631775 -0.117607
C63   C     C_R   0.324385 0.722580 0.707826 -0.122677
C64   C     C_R   0.314206 0.647501 0.731160 -0.131626
C65   C     C_R   0.294749 0.589754 0.678083 -0.082843
C66   C     C_R   0.500152 0.500115 0.726565 0.031607
C67   C     C_R   0.499804 0.500904 0.273428 0.030130
C68   C     C_R   0.510020 0.429847 0.763848 -0.138259
Cu1   Cu    Cu3+1 0.580420 0.500000 0.499980 0.953439
Cu2   Cu    Cu3+1 0.419580 0.500000 0.500020 0.948030
H1    H     H_    0.397791 0.267775 0.565634 0.115227
H2    H     H_    0.581159 0.988897 0.538421 0.117519
H3    H     H_    0.640512 0.102965 0.481713 0.099243
H4    H     H_    0.374169 0.887592 0.426808 0.100658
H5    H     H_    0.548989 0.883964 0.608475 0.101290
H6    H     H_    0.400866 0.127645 0.576940 0.102672
H7    H     H_    0.484457 0.625961 0.879486 0.101622
H8    H     H_    0.497986 0.376746 0.119526 0.102290
H9    H     H_    0.485028 0.625199 0.739591 0.118426
H10   H     H_    0.498524 0.376331 0.259344 0.122828
H11   H     H_    0.517333 0.375092 0.731672 0.101247
H12   H     H_    0.562541 0.742855 0.598318 0.108703
H13   H     H_    0.503818 0.625462 0.269346 0.099384
H14   H     H_    0.518091 0.375678 0.871722 0.107238
H15   H     H_    0.504617 0.626034 0.129318 0.106843
H16   H     H_    0.727372 0.459758 0.693080 0.100600
H17   H     H_    0.690567 0.522807 0.817679 0.115330
H18   H     H_    0.653360 0.664567 0.827925 0.107240
H19   H     H_    0.652925 0.743309 0.713099 0.097525
H20   H     H_    0.691212 0.680885 0.588141 0.106017
H21   H     H_    0.289619 0.474655 0.303386 0.110233
H22   H     H_    0.336616 0.375153 0.205808 0.114388
H23   H     H_    0.859714 0.556758 0.608509 0.105512
H24   H     H_    0.373705 0.239678 0.241889 0.105497
H25   H     H_    0.358040 0.202444 0.375476 0.111406
H26   H     H_    0.304511 0.300223 0.472089 0.096870
H27   H     H_    0.721041 0.526969 0.298495 0.101679
H28   H     H_    0.688038 0.452260 0.181686 0.117613
H29   H     H_    0.666427 0.312130 0.187336 0.105927
H30   H     H_    0.680587 0.246119 0.309988 0.102064
H31   H     H_    0.719513 0.320151 0.425868 0.096507
H32   H     H_    0.278516 0.699026 0.520784 0.105811
H33   H     H_    0.318545 0.799278 0.613973 0.118435
H34   H     H_    0.144111 0.412350 0.412216 0.103742
H35   H     H_    0.340263 0.766975 0.748880 0.105907
H36   H     H_    0.321406 0.634021 0.790444 0.113945
H37   H     H_    0.285827 0.532091 0.697083 0.110133
H38   H     H_    0.867443 0.446446 0.388925 0.104147
H39   H     H_    0.130960 0.590551 0.586533 0.103747
H40   H     H_    0.389431 0.744761 0.416798 0.106318
H41   H     H_    0.636119 0.243048 0.468564 0.108712
H42   H     H_    0.400593 0.011988 0.502225 0.113403
N1    N     N_R   0.701220 0.499980 0.499970 -0.227439
N2    N     N_R   0.298780 0.500020 0.500030 -0.228959
O1    O     O_R   0.567930 0.499990 0.391240 -0.491132
O2    O     O_R   0.432070 0.500010 0.608760 -0.499635
O3    O     O_R   0.432120 0.500000 0.391270 -0.498835
O4    O     O_R   0.567880 0.500000 0.608730 -0.494035
O5    O     O_R   0.575780 0.386400 0.499970 -0.505428
O6    O     O_R   0.424220 0.613600 0.500030 -0.503669
O7    O     O_R   0.439960 0.386410 0.500000 -0.503897
O8    O     O_R   0.560040 0.613590 0.500000 -0.503023

loop_
_geom_bond_atom_site_label_1
_geom_bond_atom_site_label_2
_ccdc_geom_bond_type
C66   C68   A    
C35   H4    S    
C34   C56   A    
C23   C45   A    
C27   C29   A    
C15   C60   S    
C14   C18   A    
C3    C68   A    
C16   O7    A    
C53   C59   A    
C7    C8    T    
C29   H6    S    
C53   C54   A    
Cu2   N2    S    
C40   C46   A    
C41   H16   S    
Cu1   N1    S    
C68   H11   S    
C35   C37   A    
C38   C39   D    
Cu2   O3    S    
C57   H29   S    
Cu1   O4    S    
C33   C36   A    
C41   C42   A    
C32   C39   S    
C17   O6    A    
C15   C19   A    
Cu1   O1    S    
Cu2   O6    S    
C48   H21   S    
C31   C33   A    
C54   H27   S    
C63   H35   S    
C13   N2    A    
C61   C62   A    
C2    H13   S    
C11   C40   S    
C43   H18   S    
C44   C46   A    
C19   H39   S    
C10   C21   A    
C38   H2    S    
C28   H12   S    
C51   C52   A    
C59   H31   S    
C32   C35   A    
C58   H30   S    
C4    C6    A    
C2    C67   A    
C16   O5    A    
C13   C47   S    
C50   H24   S    
C6    C8    S    
C4    H15   S    
Cu2   O2    S    
C58   C59   A    
C12   C66   S    
Cu1   O5    S    
C6    C34   A    
C60   C61   A    
C2    C4    A    
C43   C44   A    
C62   C63   A    
C9    C20   A    
C47   C48   A    
C5    C23   A    
C36   H41   S    
C50   C51   A    
C15   N2    A    
C45   H9    S    
C1    O3    A    
C23   H7    S    
C9    C11   A    
C37   H40   S    
C12   O4    A    
C33   H3    S    
C48   C49   A    
C20   C22   S    
C60   C65   A    
C55   C57   A    
C22   C24   T    
C42   C43   A    
C17   C26   S    
C49   H22   S    
C14   N1    A    
C9    H23   S    
C45   C66   A    
C27   H1    S    
C5    C7    S    
C62   H33   S    
C16   C25   S    
C54   C55   A    
C39   H42   S    
C19   C21   A    
C3    C5    A    
C10   C13   A    
C26   C37   A    
C64   H36   S    
C47   C52   A    
C46   H20   S    
C25   C27   A    
C56   C67   A    
C26   C28   A    
C56   H10   S    
C31   C38   S    
C64   C65   A    
C10   H34   S    
C61   H32   S    
C29   C31   A    
C34   H8    S    
C30   C32   A    
C30   H5    S    
Cu2   O7    S    
C57   C58   A    
Cu1   O8    S    
C55   H28   S    
C28   C30   A    
C1    C67   S    
C52   H26   S    
C18   C20   A    
Cu1   Cu2   S    
C11   N1    A    
C18   H38   S    
C25   C36   A    
C63   C64   A    
C17   O8    A    
C14   C53   S    
C49   C50   A    
C21   C24   S    
C3    H14   S    
C40   C41   A    
C42   H17   S    
C1    O1    A    
C65   H37   S    
C44   H19   S    
C51   H25   S    
C12   O2    A    
