data_mof_unit_60668.cif
_audit_creation_date              2012-12-10T16:57:09-0500
_audit_creation_method            fapswitch 2.2
_symmetry_space_group_name_H-M    P1
_symmetry_Int_Tables_number       1
_space_group_crystal_system       triclinic
_cell_length_a                    20.883095
_cell_length_b                    15.987245
_cell_length_c                    13.132093
_cell_angle_alpha                 90.165213
_cell_angle_beta                  90.807124
_cell_angle_gamma                 89.945501
_cell_volume                      4383.86696122

loop_
_atom_site_label
_atom_site_type_symbol
_atom_type_description
_atom_site_fract_x
_atom_site_fract_y
_atom_site_fract_z
_atom_type_partial_charge
C1    C     C_R   0.621001 0.840205 0.469122 0.510545
C2    C     C_2   0.991597 0.532019 0.945635 0.210312
C3    C     C_R   0.379655 0.159970 0.531106 0.479391
C4    C     C_R   0.379709 0.839875 0.530800 0.478895
C5    C     C_R   0.879656 0.659971 0.531107 0.479373
C6    C     C_R   0.879709 0.339876 0.530799 0.478910
C7    C     C_R   0.529828 0.002304 0.772457 0.531483
C8    C     C_R   0.029828 0.502304 0.772457 0.531485
C9    C     C_R   0.470353 0.999760 0.228094 0.507889
C10   C     C_R   0.970353 0.499760 0.228094 0.507887
C11   C     C_2   0.332781 0.772855 0.545204 0.293182
C12   C     C_R   0.620734 0.160173 0.470129 0.510574
C13   C     C_2   0.332074 0.226061 0.547096 0.293122
C14   C     C_2   0.832781 0.272856 0.545202 0.293168
C15   C     C_2   0.832075 0.726062 0.547097 0.293130
C16   C     C_2   0.273897 0.785197 0.506212 -0.098333
C17   C     C_2   0.279406 0.224294 0.487682 -0.099210
C18   C     C_2   0.773892 0.285204 0.506230 -0.098344
C19   C     C_2   0.779405 0.724291 0.487688 -0.099201
C20   C     C_2   0.668889 0.226339 0.461389 -0.128678
C21   C     C_2   0.671062 0.777269 0.453792 -0.128034
C22   C     C_2   0.168891 0.726336 0.461382 -0.128681
C23   C     C_R   0.121001 0.340205 0.469122 0.510546
C24   C     C_2   0.171062 0.277270 0.453789 -0.128028
C25   C     C_2   0.724755 0.219885 0.511873 -0.121899
C26   C     C_2   0.727619 0.785092 0.501934 -0.120687
C27   C     C_2   0.224758 0.719882 0.511865 -0.121904
C28   C     C_2   0.227619 0.285092 0.501934 -0.120688
C29   C     C_2   0.460496 0.998653 0.118380 -0.104232
C30   C     C_2   0.960497 0.498653 0.118380 -0.104232
C31   C     C_3   0.406922 0.696348 0.642518 0.001226
C32   C     C_3   0.416775 0.612130 0.693957 -0.374424
C33   C     C_3   0.398618 0.291288 0.667940 0.000743
C34   C     C_R   0.120734 0.660173 0.470128 0.510574
C35   C     C_3   0.400033 0.362335 0.745177 -0.369300
C36   C     C_3   0.906911 0.196341 0.642521 0.001224
C37   C     C_3   0.916763 0.112113 0.693932 -0.374418
C38   C     C_3   0.898618 0.791255 0.667975 0.000747
C39   C     C_3   0.900044 0.862309 0.745204 -0.369298
C40   C     C_2   0.502830 0.034319 0.056676 -0.161479
C41   C     C_2   0.002829 0.534320 0.056675 -0.161478
C42   C     C_2   0.539952 0.010943 0.883302 -0.039930
C43   C     C_2   0.039952 0.510943 0.883302 -0.039929
C44   C     C_2   0.491597 0.032018 0.945635 0.210313
H1    H     H_    0.734622 0.164961 0.558101 0.211134
H2    H     H_    0.661903 0.724959 0.402607 0.109833
H3    H     H_    0.158507 0.780611 0.414298 0.109448
H4    H     H_    0.161905 0.224963 0.402601 0.109837
H5    H     H_    0.546696 0.061757 0.087288 0.116759
H6    H     H_    0.046695 0.561761 0.087288 0.116760
H7    H     H_    0.587639 0.999731 0.914618 0.056270
H8    H     H_    0.087639 0.499733 0.914618 0.056273
H9    H     H_    0.420232 0.963381 0.087297 0.118523
H10   H     H_    0.920234 0.463379 0.087297 0.118524
H11   H     H_    0.406061 0.745585 0.702703 0.136900
H12   H     H_    0.735880 0.837445 0.553428 0.211851
H13   H     H_    0.447928 0.706956 0.590913 0.146314
H14   H     H_    0.419168 0.561874 0.635566 0.161636
H15   H     H_    0.462277 0.612621 0.738743 0.099160
H16   H     H_    0.376527 0.599067 0.745961 0.162840
H17   H     H_    0.433135 0.306353 0.606716 0.130215
H18   H     H_    0.413550 0.232929 0.707747 0.159727
H19   H     H_    0.367411 0.348144 0.808917 0.169736
H20   H     H_    0.449422 0.370400 0.776078 0.098669
H21   H     H_    0.384463 0.421476 0.708268 0.158522
H22   H     H_    0.906016 0.245561 0.702726 0.136885
H23   H     H_    0.234622 0.664961 0.558100 0.211141
H24   H     H_    0.947934 0.206982 0.590960 0.146312
H25   H     H_    0.919189 0.061874 0.635522 0.161655
H26   H     H_    0.962249 0.112608 0.738761 0.099160
H27   H     H_    0.876499 0.099019 0.745892 0.162833
H28   H     H_    0.933165 0.806282 0.606780 0.130220
H29   H     H_    0.913505 0.732886 0.707804 0.159758
H30   H     H_    0.867383 0.848163 0.808907 0.169736
H31   H     H_    0.949424 0.870321 0.776159 0.098683
H32   H     H_    0.884530 0.921463 0.708268 0.158504
H33   H     H_    0.404247 0.072496 0.961011 0.324329
H34   H     H_    0.235878 0.337442 0.553433 0.211842
H35   H     H_    0.904246 0.572497 0.961009 0.324327
H36   H     H_    0.262143 0.843845 0.468358 0.079815
H37   H     H_    0.274148 0.176695 0.428710 0.080001
H38   H     H_    0.762133 0.343861 0.468401 0.079818
H39   H     H_    0.774143 0.676684 0.428725 0.079997
H40   H     H_    0.658504 0.280617 0.414311 0.109444
O1    O     O_3   0.500000 0.000000 0.500000 -0.444332
O2    O     O_R   0.880760 0.402800 0.590320 -0.553082
O3    O     O_R   0.577210 0.000000 0.711160 -0.554783
O4    O     O_R   0.077210 0.500000 0.711160 -0.554778
O5    O     O_R   0.475030 0.069050 0.275760 -0.529724
O6    O     O_R   0.475030 0.930950 0.275760 -0.532672
O7    O     O_R   0.975030 0.569050 0.275760 -0.529725
O8    O     O_R   0.975030 0.430950 0.275760 -0.532673
O9    O     O_R   0.632300 0.097230 0.527310 -0.539194
O10   O     O_R   0.632300 0.902770 0.527310 -0.538086
O11   O     O_R   0.132300 0.597230 0.527310 -0.539196
O12   O     O_3   0.000000 0.500000 0.500000 -0.444332
O13   O     O_R   0.132300 0.402770 0.527310 -0.538088
O14   O     O_R   0.419940 0.833680 0.459580 -0.545647
O15   O     O_R   0.419940 0.166320 0.459580 -0.559366
O16   O     O_R   0.919940 0.333680 0.459580 -0.545612
O17   O     O_R   0.919940 0.666320 0.459580 -0.559342
O18   O     O_R   0.472710 0.000000 0.737340 -0.468449
O19   O     O_R   0.972710 0.500000 0.737340 -0.468454
O20   O     O_3   0.348583 0.694912 0.586762 -0.576546
O21   O     O_3   0.335812 0.283235 0.627775 -0.575454
O22   O     O_3   0.848592 0.194898 0.586709 -0.576527
O23   O     O_R   0.566980 0.833700 0.422750 -0.536807
O24   O     O_3   0.835821 0.783255 0.627758 -0.575469
O25   O     O_3   0.431285 0.049826 0.905946 -0.659581
O26   O     O_3   0.931285 0.549827 0.905945 -0.659600
O27   O     O_R   0.566980 0.166300 0.422750 -0.536843
O28   O     O_R   0.066980 0.333700 0.422750 -0.536803
O29   O     O_R   0.066980 0.666300 0.422750 -0.536841
O30   O     O_R   0.380760 0.097200 0.590320 -0.533006
O31   O     O_R   0.380760 0.902800 0.590320 -0.553062
O32   O     O_R   0.880760 0.597200 0.590320 -0.533044
Zn1   Zn    Zn3+2 0.434690 0.000000 0.602700 0.961691
Zn2   Zn    Zn3+2 0.934690 0.500000 0.602700 0.961666
Zn3   Zn    Zn3+2 0.584000 0.000000 0.565300 0.937448
Zn4   Zn    Zn3+2 0.084000 0.500000 0.565300 0.937448
Zn5   Zn    Zn3+2 0.490640 0.098690 0.416020 0.933415
Zn6   Zn    Zn3+2 0.490640 0.901310 0.416020 0.938155
Zn7   Zn    Zn3+2 0.990640 0.598690 0.416020 0.933422
Zn8   Zn    Zn3+2 0.990640 0.401310 0.416020 0.938171

loop_
_geom_bond_atom_site_label_1
_geom_bond_atom_site_label_2
_ccdc_geom_bond_type
C21   C26   D    
C1    C21   S    
C4    O14   A    
O27   Zn5   S    
C14   C18   D    
C4    O31   A    
C8    C43   S    
C32   H14   S    
C34   O29   A    
C15   C19   D    
C23   O28   A    
C30   H10   S    
O17   Zn7   S    
C29   H9    S    
O12   Zn2   S    
C36   C37   S    
O28   Zn8   S    
C37   H25   S    
O8    Zn8   S    
C38   C39   S    
C36   H22   S    
C43   H8    S    
C39   H30   S    
C20   C25   D    
C35   H21   S    
C2    C41   S    
C40   H5    S    
O10   Zn3   S    
C7    C42   S    
O1    Zn3   S    
C19   C26   S    
C18   H38   S    
C7    O3    A    
C33   H18   S    
O31   Zn1   S    
C7    O18   A    
C23   C24   S    
C30   C41   D    
O1    Zn5   S    
C35   H20   S    
C39   H31   S    
O4    Zn4   S    
C28   H34   S    
C3    C13   S    
C9    C29   S    
C42   H7    S    
O15   Zn5   S    
C44   O25   S    
C16   C27   S    
C22   H3    S    
C10   O8    A    
O7    Zn7   S    
C37   H26   S    
O6    Zn6   S    
C18   C25   S    
C42   C44   D    
C19   H39   S    
C5    O17   A    
C22   C34   S    
C38   H28   S    
O12   Zn8   S    
C36   O22   S    
C24   H4    S    
C33   O21   S    
C34   O11   A    
C13   O21   S    
C9    O5    A    
C1    O10   A    
C8    O4    A    
C6    O16   A    
C15   O24   S    
O1    Zn1   S    
O3    Zn3   S    
C6    C14   S    
C11   C16   D    
C10   C30   S    
C31   C32   S    
O29   Zn7   S    
C14   O22   S    
C2    C43   D    
C12   C20   S    
O1    Zn6   S    
O2    Zn2   S    
C39   H32   S    
C4    C11   S    
H33   O25   S    
C11   O20   S    
O18   Zn1   S    
C1    O23   A    
C23   O13   A    
C10   O7    A    
C22   C27   D    
C20   H40   S    
C5    O32   A    
C12   O9    A    
O19   Zn2   S    
C32   H16   S    
C25   H1    S    
C41   H6    S    
C21   H2    S    
O14   Zn6   S    
C2    O26   S    
H35   O26   S    
C17   C28   S    
O12   Zn4   S    
C24   C28   D    
C3    O30   A    
C26   H12   S    
C9    O6    A    
C36   H24   S    
O11   Zn4   S    
C6    O2    A    
C13   C17   D    
C31   H11   S    
C31   O20   S    
C31   H13   S    
O13   Zn4   S    
C37   H27   S    
O5    Zn5   S    
O23   Zn6   S    
C29   C40   D    
C33   C35   S    
O32   Zn2   S    
C17   H37   S    
O12   Zn7   S    
C38   O24   S    
C8    O19   A    
C5    C15   S    
O30   Zn1   S    
C27   H23   S    
C3    O15   A    
C40   C44   S    
C33   H17   S    
C35   H19   S    
O9    Zn3   S    
C32   H15   S    
C16   H36   S    
O16   Zn8   S    
C12   O27   A    
C38   H29   S    
