data_mof_unit_45844.cif
_audit_creation_date              2013-03-05T15:44:28-0500
_audit_creation_method            fapswitch 2.2
_symmetry_space_group_name_H-M    P1
_symmetry_Int_Tables_number       1
_space_group_crystal_system       triclinic
_cell_length_a                    19.91585
_cell_length_b                    7.228085
_cell_length_c                    19.705322
_cell_angle_alpha                 91.027905
_cell_angle_beta                  98.350931
_cell_angle_gamma                 91.340003
_cell_volume                      2805.15210526

loop_
_atom_site_label
_atom_site_type_symbol
_atom_site_description
_atom_site_fract_x
_atom_site_fract_y
_atom_site_fract_z
_atom_type_partial_charge
O1    O     O_R   0.673210 0.377390 0.686390 -0.555385
O2    O     O_R   0.326790 0.622610 0.313610 -0.555385
O3    O     O_R   0.826790 0.877390 0.813610 -0.549445
O4    O     O_R   0.173210 0.122610 0.186390 -0.549443
O5    O     O_R   0.810750 0.706450 0.681250 -0.544501
O6    O     O_R   0.189250 0.293550 0.318750 -0.544500
O7    O     O_R   0.689250 0.206450 0.818750 -0.549965
O8    O     O_R   0.310750 0.793550 0.181250 -0.549966
C1    C     C_R   0.831083 0.538763 0.665462 0.809319
C2    C     C_R   0.168917 0.461237 0.334538 0.809318
C3    C     C_R   0.668710 0.038171 0.834389 0.812704
C4    C     C_R   0.331290 0.961829 0.165611 0.812701
O9    O     O_R   0.672750 0.707060 0.678240 -0.546484
O10   O     O_R   0.327250 0.292940 0.321760 -0.546484
O11   O     O_R   0.827250 0.207060 0.821760 -0.549768
O12   O     O_R   0.172750 0.792940 0.178240 -0.549760
O13   O     O_R   0.687800 0.877990 0.810580 -0.554104
O14   O     O_R   0.312200 0.122010 0.189420 -0.554105
O15   O     O_R   0.812200 0.377990 0.689420 -0.552974
O16   O     O_R   0.187800 0.622010 0.310580 -0.552974
C5    C     C_R   0.648324 0.535102 0.661596 0.833438
C6    C     C_R   0.351675 0.464898 0.338404 0.833437
C7    C     C_R   0.851504 0.041726 0.839122 0.831709
C8    C     C_R   0.148496 0.958274 0.160878 0.831705
O17   O     O_3   0.755100 0.544060 0.793420 -0.273016
O18   O     O_3   0.244900 0.455940 0.206580 -0.273013
O19   O     O_3   0.744900 0.044060 0.706580 -0.272281
O20   O     O_3   0.255100 0.955940 0.293420 -0.272282
V1    V     V_3+5 0.749050 0.818670 0.741950 1.205298
V2    V     V_3+5 0.250950 0.181330 0.258050 1.205299
V3    V     V_3+5 0.750950 0.318670 0.758050 1.204351
V4    V     V_3+5 0.249050 0.681330 0.241950 1.204357
C9    C     C_R   0.087630 0.954756 0.106825 -0.160224
C10   C     C_R   0.912370 0.045246 0.893176 -0.160223
C11   C     C_R   0.413112 0.490042 0.390848 -0.158178
C12   C     C_R   0.586888 0.509957 0.609152 -0.158179
C13   C     C_R   0.016376 0.206546 0.948036 0.406099
C14   C     C_R   0.983618 0.793479 0.051970 0.406108
C15   C     C_R   0.486879 0.317973 0.563578 0.391883
C16   C     C_R   0.513121 0.682024 0.436422 0.391884
C17   C     C_R   0.961123 0.189033 0.894979 -0.052297
C18   C     C_R   0.038871 0.810986 0.105026 -0.052264
C19   C     C_R   0.540717 0.363965 0.615698 -0.071478
C20   C     C_R   0.459284 0.636033 0.384302 -0.071476
C21   C     C_R   0.919935 0.914577 0.945332 -0.055246
C22   C     C_R   0.080067 0.085420 0.054666 -0.055239
C23   C     C_R   0.577551 0.615452 0.549787 -0.046934
C24   C     C_R   0.422448 0.384548 0.450213 -0.046934
C25   C     C_R   0.975745 0.925502 0.999066 -0.027401
C26   C     C_R   0.024254 0.074507 0.000935 -0.027400
C27   C     C_R   0.522726 0.576088 0.496754 -0.019033
C28   C     C_R   0.477274 0.423911 0.503246 -0.019033
H1    H     H_    0.119546 0.190812 0.055323 0.153118
H2    H     H_    0.880460 0.809172 0.944673 0.153114
H3    H     H_    0.384869 0.277629 0.455667 0.152313
H4    H     H_    0.615131 0.722372 0.544333 0.152313
H5    H     H_    0.044613 0.708163 0.144673 0.128103
H6    H     H_    0.955376 0.291867 0.855337 0.128119
H7    H     H_    0.452071 0.719808 0.338869 0.131295
H8    H     H_    0.547930 0.280189 0.661130 0.131296
C29   C     C_R   0.571763 0.879231 0.879257 0.025397
C30   C     C_R   0.428237 0.120769 0.120743 0.025399
C31   C     C_R   0.930735 0.667677 0.615747 0.039091
C32   C     C_R   0.069264 0.332324 0.384252 0.039090
C33   C     C_R   0.618923 0.027468 0.883476 -0.128695
C34   C     C_R   0.381077 0.972532 0.116524 -0.128696
C35   C     C_R   0.880310 0.529381 0.615756 -0.125137
C36   C     C_R   0.119690 0.470619 0.384244 -0.125138
C37   C     C_R   0.618353 0.164840 0.934375 -0.001808
C38   C     C_R   0.381647 0.835160 0.065625 -0.001810
C39   C     C_R   0.877651 0.379851 0.569147 -0.011027
C40   C     C_R   0.122349 0.620149 0.430853 -0.011028
C41   C     C_R   0.571022 0.156875 0.981059 -0.022879
C42   C     C_R   0.428979 0.843124 0.018942 -0.022877
C43   C     C_R   0.925204 0.365068 0.522899 -0.018818
C44   C     C_R   0.074795 0.634933 0.477100 -0.018818
C45   C     C_R   0.523555 0.006083 0.976435 -0.022321
C46   C     C_R   0.476445 0.993916 0.023565 -0.022322
C47   C     C_R   0.976145 0.505636 0.523291 -0.022837
C48   C     C_R   0.023854 0.494366 0.476708 -0.022838
C49   C     C_R   0.523760 0.866425 0.925051 0.030355
C50   C     C_R   0.476241 0.133574 0.074949 0.030354
C51   C     C_R   0.978894 0.658370 0.569913 0.021870
C52   C     C_R   0.021105 0.341631 0.430086 0.021868
C53   C     C_R   0.571156 0.294545 0.033024 0.314019
C54   C     C_R   0.428844 0.705453 0.966976 0.314020
C55   C     C_R   0.922133 0.214246 0.475648 0.324973
C56   C     C_R   0.077866 0.785756 0.524351 0.324973
C57   C     C_R   0.523563 0.283677 0.079200 0.350345
C58   C     C_R   0.476437 0.716321 0.920801 0.350344
C59   C     C_R   0.970361 0.201705 0.430189 0.337864
C60   C     C_R   0.029638 0.798297 0.569809 0.337862
H9    H     H_    0.572589 0.775097 0.839302 0.141291
H10   H     H_    0.427411 0.224903 0.160698 0.141291
H11   H     H_    0.932302 0.781243 0.652499 0.143484
H12   H     H_    0.067697 0.218758 0.347500 0.143483
H13   H     H_    0.656164 0.275759 0.937910 0.147590
H14   H     H_    0.343835 0.724241 0.062090 0.147591
H15   H     H_    0.837345 0.276845 0.568836 0.144479
H16   H     H_    0.162655 0.723153 0.431164 0.144480
N1    N     N_R   0.062960 0.361368 0.947510 0.094167
O21   O     O_R   0.077353 0.469528 0.001410 -0.358189
O22   O     O_R   0.080894 0.414172 0.889800 -0.291462
N2    N     N_R   0.937018 0.638700 0.052512 0.094156
O23   O     O_R   0.922633 0.530463 0.998632 -0.358155
O24   O     O_R   0.919049 0.586026 0.110223 -0.291405
N3    N     N_R   0.443809 0.160579 0.572576 0.093308
O25   O     O_R   0.433878 0.028985 0.526003 -0.336464
O26   O     O_R   0.425290 0.131734 0.632249 -0.279960
N4    N     N_R   0.556193 0.839414 0.427422 0.093309
O27   O     O_R   0.566125 0.971014 0.473993 -0.336460
O28   O     O_R   0.574715 0.868247 0.367750 -0.279953
N5    N     N_R   0.620212 0.445014 0.040010 0.109312
O29   O     O_R   0.620668 0.564018 0.991363 -0.365971
O30   O     O_R   0.662930 0.467361 0.096275 -0.224667
N6    N     N_R   0.379789 0.554983 0.959991 0.109309
O31   O     O_R   0.379330 0.435985 0.008640 -0.365977
O32   O     O_R   0.337070 0.532635 0.903725 -0.224682
N7    N     N_R   0.869515 0.073866 0.472762 0.108908
O33   O     O_R   0.865365 0.969908 0.525233 -0.364743
O34   O     O_R   0.827069 0.045213 0.416643 -0.227083
N8    N     N_R   0.130484 0.926137 0.527236 0.108911
O35   O     O_R   0.134636 0.030089 0.474765 -0.364743
O36   O     O_R   0.172931 0.954786 0.583353 -0.227093
Cl1   Cl    Cl    0.522264 0.466275 0.140199 -0.568376
Cl2   Cl    Cl    0.477737 0.533724 0.859802 -0.568383
Cl3   Cl    Cl    0.967716 0.003487 0.375539 -0.576983
Cl4   Cl    Cl    0.032282 0.996516 0.624459 -0.576996

loop_
_geom_bond_atom_site_label_1
_geom_bond_atom_site_label_2
_geom_bond_distance
_ccdc_geom_bond_type
O17   V3    1.755827 S    
C24   H3    1.080851 S    
C47   C51   1.418433 A    
O1    C5    1.326614 A    
N1    O21   1.301060 A    
C55   C59   1.408639 A    
O19   V1    1.782416 S    
O13   V1    1.995903 S    
O3    C7    1.336154 A    
C40   C44   1.410954 A    
O15   V3    1.994072 S    
N2    O24   1.301401 A    
C5    C12   1.487840 S    
C57   Cl1   1.772329 S    
C45   C46   1.415168 A    
O7    C3    1.329876 A    
C6    C11   1.487838 S    
O5    C1    1.332622 A    
C50   C57   1.413644 A    
C59   Cl3   1.771966 S    
C9    C18   1.402008 A    
C32   C36   1.400319 A    
O9    V1    1.971856 S    
C17   H6    1.083816 S    
C14   C18   1.405180 A    
O16   V4    1.994072 S    
O4    C8    1.336153 A    
C29   H9    1.081556 S    
C20   H7    1.083961 S    
C31   H11   1.081756 S    
O1    V3    1.997099 S    
C54   N6    1.436036 S    
N6    O31   1.300253 A    
C12   C23   1.399982 A    
O2    V4    1.997101 S    
O3    V1    1.970772 S    
C38   C42   1.410452 A    
C32   C52   1.411600 A    
C14   N2    1.437981 S    
N4    O27   1.301247 A    
C1    O15   1.328743 A    
C56   C60   1.408640 A    
C2    O16   1.328744 A    
O2    C6    1.326613 A    
N3    O25   1.301246 A    
C37   C41   1.410452 A    
O14   V2    1.995903 S    
C52   C59   1.413211 A    
C45   C49   1.417382 A    
C44   C56   1.415290 A    
C16   C20   1.402211 A    
C48   C52   1.418433 A    
O11   C7    1.331237 A    
C15   C28   1.417663 A    
C30   C50   1.409364 A    
O12   C8    1.331237 A    
C9    C22   1.402694 A    
N3    O26   1.301294 A    
C10   C17   1.402010 A    
C38   H14   1.081307 S    
O10   V2    1.971854 S    
C11   C24   1.399982 A    
C60   Cl4   1.771962 S    
C18   H5    1.083818 S    
N2    O23   1.301065 A    
O5    V1    2.009314 S    
N7    O34   1.300935 A    
C31   C35   1.400320 A    
C39   C43   1.410954 A    
O7    V3    2.003427 S    
C30   C34   1.401487 A    
C27   C28   1.427503 A    
O8    V4    2.003426 S    
C32   H12   1.081756 S    
C56   N8    1.435929 S    
C54   C58   1.407875 A    
C14   C25   1.420286 A    
C53   C57   1.407876 A    
O18   V4    1.755827 S    
C15   C19   1.402212 A    
C39   H15   1.081291 S    
C31   C51   1.411601 A    
C36   C40   1.400747 A    
C15   N3    1.437798 S    
C1    C35   1.484850 S    
C55   N7    1.435927 S    
C51   C60   1.413210 A    
C46   C50   1.417381 A    
C21   C25   1.419109 A    
O8    C4    1.329875 A    
C7    C10   1.492359 S    
C58   Cl2   1.772326 S    
O9    C5    1.341576 A    
C10   C21   1.402694 A    
C42   C54   1.414678 A    
C11   C20   1.403454 A    
C41   C53   1.414677 A    
C19   H8    1.083961 S    
C49   C58   1.413644 A    
C43   C55   1.415288 A    
O6    V2    2.009313 S    
C21   H2    1.080450 S    
C30   H10   1.081557 S    
N8    O36   1.300906 A    
N5    O29   1.300243 A    
C40   H16   1.081291 S    
C3    O13   1.325925 A    
C44   C48   1.418063 A    
O6    C2    1.332622 A    
C23   C27   1.417263 A    
N7    O33   1.300116 A    
O11   V3    2.018801 S    
C2    C36   1.484849 S    
O12   V4    2.018801 S    
C16   C27   1.417663 A    
C22   C26   1.419113 A    
C8    C9    1.492355 S    
O10   C6    1.341576 A    
O20   V2    1.782414 S    
C29   C49   1.409364 A    
C13   N1    1.437985 S    
C13   C26   1.420293 A    
C34   C38   1.400050 A    
C4    C34   1.484077 S    
C33   C37   1.400050 A    
C22   H1    1.080447 S    
C53   N5    1.436032 S    
N6    O32   1.300914 A    
C35   C39   1.400746 A    
C13   C17   1.405187 A    
N4    O28   1.301287 A    
C16   N4    1.437799 S    
C47   C48   1.416441 A    
C29   C33   1.401484 A    
C24   C28   1.417263 A    
N1    O22   1.301398 A    
C25   C26   1.426275 A    
C42   C46   1.418860 A    
C4    O14   1.325926 A    
C41   C45   1.418859 A    
C12   C19   1.403455 A    
N8    O35   1.300111 A    
C43   C47   1.418062 A    
O4    V2    1.970772 S    
C3    C33   1.484079 S    
C23   H4    1.080852 S    
N5    O30   1.300900 A    
C37   H13   1.081308 S    
