data_mof_unit_30501.cif
_audit_creation_date              2012-12-10T17:45:27-0500
_audit_creation_method            fapswitch 2.2
_symmetry_space_group_name_H-M    P1
_symmetry_Int_Tables_number       1
_space_group_crystal_system       triclinic
_cell_length_a                    11.535841
_cell_length_b                    10.63814
_cell_length_c                    9.993154
_cell_angle_alpha                 89.303207
_cell_angle_beta                  89.691467
_cell_angle_gamma                 93.717869
_cell_volume                      1223.66391801

loop_
_atom_site_label
_atom_site_type_symbol
_atom_type_description
_atom_site_fract_x
_atom_site_fract_y
_atom_site_fract_z
_atom_type_partial_charge
C1    C     C_R   0.502173 0.260928 0.500700 0.832827
C2    C     C_R   0.515424 0.872672 0.497387 -0.053958
C3    C     C_R   0.343872 0.339508 0.150399 -0.154981
C4    C     C_R   0.282237 0.499666 0.500272 0.892263
C5    C     C_R   0.258874 0.263095 0.091977 -0.368522
C6    C     C_R   0.250915 0.258584 0.954415 0.391977
C7    C     C_R   0.333198 0.329858 0.873854 0.467962
C8    C     C_R   0.419440 0.418205 0.931704 0.012938
C9    C     C_R   0.421748 0.419967 0.075967 -0.013490
C10   C     C_R   0.574799 0.576805 0.069439 0.668428
C11   C     C_R   0.574820 0.576622 0.927014 -0.195757
C12   C     C_R   0.792492 0.089946 0.676028 -0.352963
C13   C     C_R   0.505685 0.739483 0.499247 0.954680
C14   C     C_R   0.717730 0.499627 0.499677 0.957014
C15   C     C_1   0.161604 0.498878 0.500763 -0.151627
C16   C     C_1   0.059304 0.498402 0.500473 0.027651
C17   C     C_1   0.940517 0.498378 0.499710 0.039041
C18   C     C_1   0.838277 0.498823 0.499270 -0.107081
C19   C     C_R   0.698444 0.146724 0.620453 -0.233649
C20   C     C_R   0.797957 0.958986 0.672119 0.449139
C21   C     C_R   0.707711 0.885744 0.612664 0.585809
C22   C     C_R   0.609451 0.942094 0.558549 -0.119538
C23   C     C_R   0.605849 0.073785 0.561700 0.031538
C24   C     C_R   0.510702 0.129080 0.501746 -0.024855
C25   C     C_R   0.422902 0.058711 0.436760 -0.188003
C26   C     C_R   0.425061 0.930534 0.434973 -0.193158
F1    F     F_    0.720515 0.760525 0.604191 -0.658115
F2    F     F_    0.651713 0.656142 0.133855 -0.632073
H1    H     H_    0.351327 0.103244 0.389674 0.139073
H2    H     H_    0.947333 0.964167 0.761610 0.341193
H3    H     H_    0.636174 0.639598 0.872624 0.210144
H4    H     H_    0.700306 0.248216 0.622710 0.174356
H5    H     H_    0.861997 0.148525 0.720347 0.187248
H6    H     H_    0.354441 0.875796 0.387503 0.151587
H7    H     H_    0.344444 0.332768 0.255898 0.229580
H8    H     H_    0.199014 0.206127 0.155186 0.167602
H9    H     H_    0.113138 0.141344 0.964791 0.344571
H10   H     H_    0.286375 0.229074 0.717969 0.357362
N1    N     N_R   0.498930 0.498800 0.142780 -0.153342
N2    N     N_R   0.498900 0.498720 0.857170 -0.121070
O1    O     O_R   0.500000 0.316780 0.614690 -0.564968
O2    O     O_3   0.327445 0.310933 0.739625 -0.713480
O3    O     O_3   0.891183 0.899760 0.723678 -0.703176
O4    O     O_R   0.499990 0.316750 0.385360 -0.650450
O5    O     O_R   0.334450 0.500030 0.614670 -0.538928
O6    O     O_R   0.334440 0.500000 0.385330 -0.652706
O7    O     O_R   0.500010 0.683250 0.614640 -0.590345
O8    O     O_R   0.500000 0.683220 0.385310 -0.577773
O9    O     O_R   0.665560 0.500000 0.614670 -0.586734
O10   O     O_R   0.665550 0.499970 0.385330 -0.569446
O11   O     O_3   0.163180 0.184289 0.894840 -0.786058
Zn1   Zn    Zn3+2 0.500010 0.500020 0.653130 1.028781
Zn2   Zn    Zn3+2 0.499990 0.499980 0.346870 1.013481

loop_
_geom_bond_atom_site_label_1
_geom_bond_atom_site_label_2
_ccdc_geom_bond_type
C2    C22   A    
C13   O8    A    
C19   C23   A    
C23   C24   A    
C6    C7    A    
C3    C9    A    
C1    O4    A    
C6    O11   S    
C14   C18   S    
O1    Zn1   S    
C3    H7    S    
O9    Zn1   S    
C12   C20   A    
C4    C15   S    
C17   C18   T    
C21   F1    S    
C11   H3    S    
C7    C8    A    
C2    C26   A    
C25   C26   A    
C14   O10   A    
C21   C22   A    
C24   C25   A    
N1    Zn2   S    
C5    C6    A    
C19   H4    S    
C12   C19   A    
C1    O1    A    
O8    Zn2   S    
H10   O2    S    
C4    O5    A    
C25   H1    S    
C11   N2    A    
H9    O11   S    
H2    O3    S    
O10   Zn2   S    
C16   C17   S    
C10   C11   A    
C15   C16   T    
C14   O9    A    
C5    H8    S    
C9    N1    A    
C20   O3    S    
C20   C21   A    
O6    Zn2   S    
C1    C24   S    
C7    O2    S    
C10   F2    S    
C13   O7    A    
C2    C13   S    
C22   C23   A    
C8    C9    A    
O7    Zn1   S    
C4    O6    A    
C8    N2    A    
O5    Zn1   S    
C12   H5    S    
N2    Zn1   S    
O4    Zn2   S    
C26   H6    S    
C10   N1    A    
C3    C5    A    
