data_mof_unit_22464.cif
_audit_creation_date              2012-12-10T16:50:11-0500
_audit_creation_method            fapswitch 2.2
_symmetry_space_group_name_H-M    P1
_symmetry_Int_Tables_number       1
_space_group_crystal_system       triclinic
_cell_length_a                    23.528337
_cell_length_b                    8.683921
_cell_length_c                    7.439786
_cell_angle_alpha                 103.467466
_cell_angle_beta                  95.270032
_cell_angle_gamma                 91.707741
_cell_volume                      1469.97788577

loop_
_atom_site_label
_atom_site_type_symbol
_atom_type_description
_atom_site_fract_x
_atom_site_fract_y
_atom_site_fract_z
_atom_type_partial_charge
C1    C     C_R   0.498296 0.199404 0.452795 0.891401
C2    C     C_R   0.501704 0.800596 0.547205 0.891352
C3    C     C_R   0.246949 0.557235 0.680923 -0.079410
C4    C     C_R   0.753233 0.440941 0.320717 -0.073999
C5    C     C_R   0.305514 0.552238 0.671296 -0.218396
C6    C     C_R   0.694637 0.446852 0.329570 -0.217864
C7    C     C_R   0.327819 0.499359 0.500182 -0.129586
C8    C     C_R   0.672183 0.500996 0.500237 -0.130072
C9    C     C_R   0.289603 0.454636 0.334426 0.107691
C10   C     C_R   0.710258 0.546902 0.666244 0.111771
C11   C     C_R   0.230570 0.473005 0.344471 0.193580
C12   C     C_R   0.769305 0.528374 0.657042 0.183545
C13   C     C_R   0.209243 0.516528 0.519150 0.241227
C14   C     C_R   0.790759 0.482565 0.482844 0.236559
C15   C     C_2   0.497458 0.031286 0.426379 -0.344483
C16   C     C_2   0.502543 0.968714 0.573620 -0.344545
C17   C     C_R   0.390695 0.497094 0.499741 0.837077
C18   C     C_R   0.609303 0.503074 0.500313 0.836196
C19   C     C_R   0.881070 0.632211 0.529494 0.638031
C20   C     C_R   0.119054 0.365564 0.468820 0.613248
C21   C     C_R   0.878097 0.352363 0.407947 0.621928
C22   C     C_R   0.121862 0.643785 0.600916 0.640729
C23   C     C_R   0.937762 0.355207 0.413912 -0.071513
C24   C     C_R   0.062189 0.640435 0.594342 -0.059189
C25   C     C_R   0.969821 0.498235 0.493714 -0.057988
C26   C     C_R   0.030180 0.498069 0.510988 -0.038628
C27   C     C_R   0.941545 0.640914 0.555303 -0.137117
C28   C     C_R   0.058506 0.356143 0.446148 -0.136129
C29   C     C_R   0.965501 0.216759 0.344952 -0.118433
C30   C     C_R   0.034376 0.778151 0.665458 -0.133618
C31   C     C_R   0.025054 0.213911 0.358482 0.323227
C32   C     C_R   0.974960 0.782897 0.644149 0.434878
Cu1   Cu    Cu3+1 0.506340 0.517380 0.684380 0.990055
Cu2   Cu    Cu3+1 0.493660 0.482620 0.315620 0.990226
H1    H     H_    0.940215 0.108974 0.279020 0.254292
H2    H     H_    0.059516 0.884141 0.738117 0.240654
H3    H     H_    0.230786 0.592918 0.815075 0.197030
H4    H     H_    0.769579 0.403853 0.186973 0.193873
H5    H     H_    0.333452 0.588212 0.799462 0.196625
H6    H     H_    0.666793 0.410256 0.201258 0.195526
H7    H     H_    0.492661 0.958741 0.284865 0.182060
H8    H     H_    0.507340 0.041258 0.715134 0.182018
H9    H     H_    0.455145 0.378288 0.947207 0.241211
H10   H     H_    0.544852 0.621717 0.052795 0.241203
N1    N     N_R   0.851337 0.488747 0.470396 -0.472091
N2    N     N_R   0.148685 0.508853 0.532375 -0.464772
N3    N     N_2   0.484110 0.456420 0.038520 -0.210184
N4    N     N_2   0.515890 0.543580 0.961480 -0.210218
O1    O     O_R   0.504120 0.286130 0.619770 -0.585407
O2    O     O_R   0.495880 0.713870 0.380230 -0.585380
O3    O     O_R   0.493410 0.256770 0.308360 -0.578692
O4    O     O_R   0.506590 0.743230 0.691640 -0.578701
O5    O     O_R   0.423230 0.514630 0.655730 -0.591878
O6    O     O_R   0.576770 0.485370 0.344270 -0.591599
O7    O     O_R   0.412530 0.485280 0.344320 -0.554854
O8    O     O_R   0.587470 0.514720 0.655680 -0.555248
O9    O     O_2   0.851293 0.763898 0.564808 -0.403864
O10   O     O_2   0.149018 0.234754 0.426236 -0.430262
O11   O     O_2   0.847002 0.214110 0.343223 -0.459087
O12   O     O_2   0.152887 0.781420 0.671424 -0.473832
S1    S     S_3+6 0.053935 0.029984 0.255691 0.098355
O13   O     O_2   0.007209 0.906547 0.167048 -0.249219
O14   O     O_2   0.090910 0.054325 0.109270 -0.171524
O15   O     O_3   0.093772 0.961477 0.416578 -0.434160
H11   H     H_    0.086982 0.031664 0.537175 0.356575
S2    S     S_3+6 0.946406 0.968600 0.740112 0.069072
O16   O     O_2   0.912364 0.025476 0.589657 -0.230125
O17   O     O_2   0.908297 0.949152 0.885692 -0.202002
O18   O     O_3   0.998762 0.106936 0.837958 -0.536454
H12   H     H_    0.978742 0.203391 0.890692 0.376501
I1    I     I_    0.316725 0.340542 0.069946 -0.281971
I2    I     I_    0.682864 0.662384 0.929905 -0.277761
I3    I     I_    0.172196 0.443384 0.097955 -0.189342
I4    I     I_    0.827559 0.561283 0.904267 -0.198118

loop_
_geom_bond_atom_site_label_1
_geom_bond_atom_site_label_2
_ccdc_geom_bond_type
S2    O17   D    
C12   I4    S    
C31   S1    S    
C19   O9    S    
Cu1   O4    S    
Cu2   O3    S    
C23   C29   A    
C24   C26   A    
C21   O11   S    
C22   O12   S    
C13   N2    S    
S2    O18   S    
Cu1   O1    S    
C15   C16   D    
S1    O14   D    
C2    O2    A    
C7    C17   S    
C1    C15   S    
C2    C16   S    
C17   O7    A    
C3    C13   A    
C18   O8    A    
Cu1   O8    S    
S2    O16   D    
Cu2   O7    S    
O18   H12   S    
C10   C12   A    
C14   N1    S    
C21   N1    A    
Cu1   O5    S    
Cu2   O2    S    
C15   H7    S    
C4    C6    A    
C11   I3    S    
C5    C7    A    
C6    C8    A    
C20   C28   A    
C25   C26   A    
C8    C18   S    
S1    O15   S    
C9    C11   A    
N3    N4    D    
Cu1   Cu2   S    
C1    O3    A    
C2    O4    A    
C22   N2    A    
C12   C14   A    
Cu2   O6    S    
C5    H5    S    
C22   C24   A    
C20   O10   S    
C17   O5    A    
C19   C27   A    
C32   S2    S    
C7    C9    A    
C27   C32   A    
C16   H8    S    
C28   C31   A    
C9    I1    S    
C4    H4    S    
C3    C5    A    
C19   N1    A    
C25   C27   A    
C29   H1    S    
C26   C28   A    
C30   H2    S    
O15   H11   S    
C21   C23   A    
C29   C31   A    
C30   C32   A    
C11   C13   A    
C1    O1    A    
C6    H6    S    
C23   C25   A    
C4    C14   A    
S1    O13   D    
C24   C30   A    
C18   O6    A    
C3    H3    S    
C8    C10   A    
Cu1   N4    S    
Cu2   N3    S    
H9    N3    S    
C20   N2    A    
H10   N4    S    
C10   I2    S    
