data_mof_unit_31652.cif
_audit_creation_date              2012-12-11T16:12:45-0500
_audit_creation_method            fapswitch 2.2
_symmetry_space_group_name_H-M    P1
_symmetry_Int_Tables_number       1
_space_group_crystal_system       triclinic
_cell_length_a                    7.130734
_cell_length_b                    21.102369
_cell_length_c                    23.791391
_cell_angle_alpha                 90.004667
_cell_angle_beta                  89.999722
_cell_angle_gamma                 89.995421
_cell_volume                      3580.01858069

loop_
_atom_site_label
_atom_site_type_symbol
_atom_type_description
_atom_site_fract_x
_atom_site_fract_y
_atom_site_fract_z
_atom_type_partial_charge
O1    O     O_R   0.615270 0.806540 0.192260 -0.536041
O2    O     O_R   0.384730 0.193460 0.807740 -0.535438
O3    O     O_R   0.384730 0.193460 0.692260 -0.535926
O4    O     O_R   0.615270 0.806540 0.307740 -0.535432
O5    O     O_R   0.115270 0.693460 0.307740 -0.535956
O6    O     O_R   0.884730 0.306540 0.692260 -0.535368
O7    O     O_R   0.884730 0.306540 0.807740 -0.536012
O8    O     O_R   0.115270 0.693460 0.192260 -0.535473
O9    O     O_R   0.285500 0.813970 0.307340 -0.535603
O10   O     O_R   0.714500 0.186030 0.692660 -0.537562
O11   O     O_R   0.714500 0.186030 0.807340 -0.535649
O12   O     O_R   0.285500 0.813970 0.192660 -0.537620
O13   O     O_R   0.785500 0.686030 0.192660 -0.535733
O14   O     O_R   0.214500 0.313970 0.807340 -0.537620
O15   O     O_R   0.214500 0.313970 0.692660 -0.535829
O16   O     O_R   0.785500 0.686030 0.307340 -0.537364
C1    C     C_R   0.453756 0.828823 0.326257 0.722164
C2    C     C_R   0.546279 0.171163 0.673749 0.729118
C3    C     C_R   0.546247 0.171184 0.826264 0.721864
C4    C     C_R   0.453720 0.828837 0.173747 0.728677
C5    C     C_R   0.953758 0.671184 0.173739 0.721752
C6    C     C_R   0.046275 0.328835 0.826252 0.728804
C7    C     C_R   0.046237 0.328825 0.673758 0.722207
C8    C     C_R   0.953740 0.671152 0.326224 0.729029
O17   O     O_3   0.448760 0.710460 0.250000 -0.371788
O18   O     O_3   0.551240 0.289540 0.750000 -0.371945
O19   O     O_3   0.948760 0.789540 0.250000 -0.371943
O20   O     O_3   0.051240 0.210460 0.750000 -0.371852
V1    V     V_3+5 0.173900 0.757330 0.250000 1.396878
V2    V     V_3+5 0.826100 0.242670 0.750000 1.396621
V3    V     V_3+5 0.673900 0.742670 0.250000 1.396895
V4    V     V_3+5 0.326100 0.257330 0.750000 1.396273
C9    C     C_3   0.072930 0.529776 0.545132 0.298999
C10   C     C_3   0.931862 0.469970 0.455404 0.308900
C11   C     C_3   0.926188 0.470145 0.045374 0.297679
C12   C     C_3   0.067231 0.529835 0.955465 0.313570
C13   C     C_3   0.573871 0.970162 0.954640 0.297554
C14   C     C_3   0.432686 0.029846 0.044545 0.313555
C15   C     C_3   0.425805 0.029854 0.454660 0.297467
C16   C     C_3   0.567585 0.970187 0.544487 0.313632
C17   C     C_3   0.887171 0.547035 0.514981 0.042731
C18   C     C_3   0.116313 0.453038 0.485669 0.068039
C19   C     C_3   0.112301 0.452766 0.015378 0.015328
C20   C     C_3   0.882173 0.546844 0.985579 0.032965
C21   C     C_3   0.387757 0.952769 0.984622 0.015388
C22   C     C_3   0.617748 0.046869 0.014443 0.033052
C23   C     C_3   0.611945 0.047323 0.484596 0.015209
C24   C     C_3   0.382500 0.953089 0.514433 0.033085
C25   C     C_1   0.961046 0.625363 0.371453 -0.214807
C26   C     C_1   0.038730 0.374592 0.628515 -0.210132
C27   C     C_1   0.039087 0.374537 0.871586 -0.215809
C28   C     C_1   0.961167 0.625437 0.128454 -0.210560
C29   C     C_1   0.460906 0.874543 0.128416 -0.215853
C30   C     C_1   0.538838 0.125442 0.871553 -0.210730
C31   C     C_1   0.539079 0.125454 0.628421 -0.215701
C32   C     C_1   0.461182 0.874583 0.371531 -0.210579
C33   C     C_3   0.171031 0.523540 0.487220 0.327296
C34   C     C_3   0.832790 0.476387 0.513203 0.341140
C35   C     C_3   0.828403 0.476279 0.987466 0.355241
C36   C     C_3   0.165873 0.523428 0.013217 0.374675
C37   C     C_3   0.671604 0.976307 0.012556 0.355261
C38   C     C_3   0.334100 0.023428 0.986784 0.374743
C39   C     C_3   0.328290 0.023621 0.512602 0.355161
C40   C     C_3   0.665941 0.976693 0.486701 0.374955
C41   C     C_3   0.984457 0.541369 0.456879 -0.146053
C42   C     C_3   0.018413 0.458490 0.543486 -0.140508
C43   C     C_3   0.015593 0.458324 0.957242 -0.151358
C44   C     C_3   0.979944 0.541488 0.043379 -0.145080
C45   C     C_3   0.484411 0.958338 0.042767 -0.151340
C46   C     C_3   0.520032 0.041502 0.956635 -0.145056
C47   C     C_3   0.515514 0.041667 0.542767 -0.151295
C48   C     C_3   0.479994 0.958542 0.456599 -0.145055
C49   C     C_1   0.967732 0.587344 0.409770 -0.008033
C50   C     C_1   0.031780 0.412558 0.590306 0.055972
C51   C     C_1   0.032601 0.412449 0.910014 -0.009524
C52   C     C_1   0.967629 0.587472 0.090220 0.054759
C53   C     C_1   0.467400 0.912459 0.089992 -0.009595
C54   C     C_1   0.532359 0.087483 0.909790 0.054729
C55   C     C_1   0.532566 0.087538 0.589997 -0.009702
C56   C     C_1   0.467681 0.912556 0.409758 0.054732
N1    N     N_3   0.760142 0.597723 0.531740 -0.635079
H1    H     H_    0.748897 0.596611 0.575507 0.231021
H2    H     H_    0.823074 0.640801 0.521238 0.218438
N2    N     N_3   0.244577 0.402609 0.469274 -0.610678
H3    H     H_    0.268648 0.407145 0.426139 0.243445
H4    H     H_    0.176026 0.359433 0.475379 0.211905
N3    N     N_3   0.241562 0.402594 0.031744 -0.621340
H5    H     H_    0.252313 0.403213 0.075515 0.221547
H6    H     H_    0.181110 0.359345 0.020464 0.211644
N4    N     N_3   0.750247 0.596474 0.969974 -0.591474
H7    H     H_    0.733067 0.594459 0.926420 0.234514
H8    H     H_    0.811395 0.640089 0.979691 0.201140
N5    N     N_3   0.258571 0.902586 0.968241 -0.621428
H9    H     H_    0.247899 0.903191 0.924469 0.221469
H10   H     H_    0.319042 0.859344 0.979534 0.211670
N6    N     N_3   0.749601 0.096510 0.030063 -0.591478
H11   H     H_    0.766727 0.094505 0.073619 0.234508
H12   H     H_    0.688418 0.140119 0.020340 0.201181
N7    N     N_3   0.740854 0.097583 0.468207 -0.621225
H13   H     H_    0.751246 0.097051 0.424428 0.221917
H14   H     H_    0.680311 0.140785 0.479592 0.212394
N8    N     N_3   0.250953 0.903359 0.530061 -0.591041
H15   H     H_    0.234128 0.905287 0.573631 0.234620
H16   H     H_    0.312258 0.859795 0.520244 0.201884
O21   O     O_3   0.139257 0.559337 0.594517 -0.549896
C57   C     C_3   0.222622 0.618128 0.581329 0.117798
H17   H     H_    0.140068 0.645553 0.549921 0.107731
H18   H     H_    0.366549 0.610459 0.564858 0.176188
C58   C     C_3   0.237187 0.657789 0.634496 -0.740629
H19   H     H_    0.322623 0.632500 0.666448 0.228230
H20   H     H_    0.305044 0.703877 0.624766 0.174487
H21   H     H_    0.095025 0.666838 0.651815 0.225738
O22   O     O_3   0.870400 0.439535 0.405838 -0.553082
C59   C     C_3   0.780395 0.381865 0.418938 0.144025
H22   H     H_    0.631830 0.391265 0.430181 0.188223
H23   H     H_    0.849514 0.355936 0.454093 0.110556
C60   C     C_3   0.783243 0.339129 0.367495 -0.754744
H24   H     H_    0.930388 0.328491 0.355426 0.224591
H25   H     H_    0.709898 0.293959 0.377020 0.176441
H26   H     H_    0.711349 0.362789 0.331792 0.232585
O23   O     O_3   0.849765 0.442798 0.094453 -0.546955
C61   C     C_3   0.812205 0.377885 0.085808 0.116531
H27   H     H_    0.944022 0.350122 0.088594 0.108071
H28   H     H_    0.743618 0.368433 0.044644 0.148638
C62   C     C_3   0.680958 0.354684 0.131784 -0.705565
H29   H     H_    0.547916 0.381995 0.130674 0.217762
H30   H     H_    0.649107 0.303672 0.125371 0.168620
H31   H     H_    0.747758 0.360884 0.173602 0.225339
O24   O     O_3   0.142576 0.558207 0.906655 -0.545973
C63   C     C_3   0.167238 0.623945 0.914628 0.137532
H32   H     H_    0.220435 0.636027 0.957302 0.150362
H33   H     H_    0.032604 0.648965 0.907275 0.099528
C64   C     C_3   0.308176 0.648330 0.871828 -0.693310
H34   H     H_    0.255387 0.639871 0.828547 0.220989
H35   H     H_    0.330154 0.699996 0.877835 0.163477
H36   H     H_    0.444194 0.623495 0.877140 0.229251
O25   O     O_3   0.650343 0.942814 0.905562 -0.547086
C65   C     C_3   0.688073 0.877914 0.914214 0.116453
H37   H     H_    0.556326 0.850122 0.911459 0.107951
H38   H     H_    0.756757 0.868497 0.955366 0.148840
C66   C     C_3   0.819295 0.854717 0.868225 -0.706457
H39   H     H_    0.952258 0.882060 0.869305 0.218082
H40   H     H_    0.851299 0.803718 0.874646 0.168689
H41   H     H_    0.752407 0.860878 0.826419 0.223997
O26   O     O_3   0.357278 0.058211 0.093355 -0.546059
C67   C     C_3   0.332482 0.123943 0.085387 0.137280
H42   H     H_    0.279197 0.136008 0.042720 0.150509
H43   H     H_    0.467078 0.148987 0.092721 0.099487
C68   C     C_3   0.191559 0.148311 0.128207 -0.693143
H44   H     H_    0.244428 0.139868 0.171480 0.219694
H45   H     H_    0.169466 0.199971 0.122204 0.163564
H46   H     H_    0.055586 0.123451 0.122913 0.229543
O27   O     O_3   0.349159 0.057197 0.405605 -0.547254
C69   C     C_3   0.310575 0.122027 0.414357 0.115850
H47   H     H_    0.442037 0.150002 0.411863 0.108096
H48   H     H_    0.241128 0.131226 0.455429 0.150043
C70   C     C_3   0.179787 0.145195 0.368245 -0.705008
H49   H     H_    0.047176 0.117645 0.369045 0.218026
H50   H     H_    0.146969 0.196122 0.374771 0.171177
H51   H     H_    0.247438 0.139292 0.326521 0.223557
O28   O     O_3   0.643217 0.941834 0.593270 -0.546167
C71   C     C_3   0.668659 0.876139 0.585227 0.137349
H52   H     H_    0.722325 0.864199 0.542576 0.151373
H53   H     H_    0.534252 0.850940 0.592447 0.099459
C72   C     C_3   0.809552 0.851851 0.628093 -0.692455
H54   H     H_    0.756222 0.860093 0.671347 0.219003
H55   H     H_    0.832391 0.800241 0.621986 0.165642
H56   H     H_    0.945242 0.876929 0.622964 0.229871
O29   O     O_3   0.653379 0.450751 0.523632 -0.534294
C73   C     C_3   0.595309 0.462666 0.579440 0.187064
H57   H     H_    0.478038 0.497118 0.578457 0.189719
H58   H     H_    0.705765 0.482683 0.607455 0.093541
C74   C     C_3   0.524777 0.401252 0.605337 -0.689354
H59   H     H_    0.641364 0.366753 0.609202 0.208694
H60   H     H_    0.466015 0.410716 0.647730 0.187652
H61   H     H_    0.414495 0.380122 0.578338 0.240979
O30   O     O_3   0.355513 0.543916 0.475206 -0.528230
C75   C     C_3   0.362365 0.567026 0.419687 0.094373
H62   H     H_    0.303587 0.615723 0.418541 0.126666
H63   H     H_    0.293079 0.534204 0.389311 0.138056
C76   C     C_3   0.559530 0.573974 0.400667 -0.638984
H64   H     H_    0.630187 0.527534 0.403668 0.269597
H65   H     H_    0.562641 0.590293 0.356291 0.173590
H66   H     H_    0.625862 0.610293 0.427738 0.238831
O31   O     O_3   0.344781 0.549561 0.023404 -0.521128
C77   C     C_3   0.404300 0.537088 0.078993 0.195379
H67   H     H_    0.520574 0.502259 0.077518 0.206487
H68   H     H_    0.294144 0.517218 0.107206 0.084372
C78   C     C_3   0.476606 0.598141 0.105125 -0.688362
H69   H     H_    0.360470 0.632709 0.109757 0.207016
H70   H     H_    0.537110 0.588154 0.147206 0.188096
H71   H     H_    0.585858 0.619462 0.077888 0.242227
O32   O     O_3   0.644038 0.455336 0.975865 -0.517308
C79   C     C_3   0.638198 0.430133 0.921059 0.103099
H72   H     H_    0.698815 0.381659 0.921312 0.119674
H73   H     H_    0.706270 0.462245 0.889856 0.134016
C80   C     C_3   0.441603 0.421877 0.901911 -0.626858
H74   H     H_    0.369766 0.468160 0.903911 0.279713
H75   H     H_    0.440138 0.404624 0.857809 0.170294
H76   H     H_    0.375094 0.385914 0.929322 0.235273
O33   O     O_3   0.155172 0.049546 0.976585 -0.521121
C81   C     C_3   0.095708 0.037056 0.920993 0.195336
H77   H     H_    0.979481 0.002218 0.922463 0.206512
H78   H     H_    0.205907 0.017191 0.892786 0.084246
C82   C     C_3   0.023340 0.098097 0.894856 -0.688342
H79   H     H_    0.139451 0.132660 0.890199 0.207015
H80   H     H_    0.962778 0.088088 0.852788 0.188155
H81   H     H_    0.914120 0.119433 0.922103 0.242254
O34   O     O_3   0.855992 0.955388 0.024165 -0.517290
C83   C     C_3   0.861803 0.930143 0.078951 0.103052
H82   H     H_    0.801191 0.881672 0.078660 0.119636
H83   H     H_    0.793709 0.962236 0.110173 0.134032
C84   C     C_3   0.058389 0.921865 0.098103 -0.626870
H84   H     H_    0.130218 0.968147 0.096146 0.279710
H85   H     H_    0.059829 0.904573 0.142190 0.170360
H86   H     H_    0.124925 0.885925 0.070665 0.235271
O35   O     O_3   0.844958 0.950682 0.476431 -0.520989
C85   C     C_3   0.904146 0.963219 0.420824 0.194808
H87   H     H_    0.020202 0.998121 0.422272 0.206486
H88   H     H_    0.793751 0.983031 0.392661 0.084279
C86   C     C_3   0.976720 0.902223 0.394649 -0.687517
H89   H     H_    0.860715 0.867625 0.389960 0.207054
H90   H     H_    0.037296 0.912279 0.352592 0.187932
H91   H     H_    0.085962 0.880906 0.421894 0.242550
O36   O     O_3   0.143799 0.044403 0.524269 -0.517168
C87   C     C_3   0.138166 0.069868 0.578977 0.103053
H92   H     H_    0.198844 0.118331 0.578530 0.119796
H93   H     H_    0.206297 0.037875 0.610265 0.134074
C88   C     C_3   0.941640 0.078252 0.598154 -0.626992
H94   H     H_    0.869744 0.031973 0.596371 0.279587
H95   H     H_    0.940365 0.095732 0.642185 0.170423
H96   H     H_    0.875048 0.114083 0.570621 0.235607

loop_
_geom_bond_atom_site_label_1
_geom_bond_atom_site_label_2
_ccdc_geom_bond_type
O17   V3    S    
C79   H73   S    
N3    H5    S    
O18   V4    S    
N5    H9    S    
C16   C47   S    
O12   V1    S    
C46   C54   S    
C60   H24   S    
O29   C73   S    
C67   C68   S    
C29   C53   T    
C10   C18   S    
C68   H44   S    
C21   N5    S    
C47   C55   S    
C59   H22   S    
C85   H87   S    
C12   C43   S    
C41   C49   S    
O15   V4    S    
C39   O36   S    
C72   H54   S    
C82   H79   S    
C35   O32   S    
O16   V3    S    
O11   C3    A    
C36   O31   S    
C81   H78   S    
C40   O35   S    
C15   O27   S    
O7    C6    A    
O8    V1    S    
C11   C35   S    
O36   C87   S    
C17   C34   S    
O22   C59   S    
C86   H91   S    
C60   H25   S    
C20   C44   S    
C10   C34   S    
C84   H86   S    
C79   C80   S    
O19   V1    S    
C57   H17   S    
C20   C35   S    
C42   C50   S    
C21   C38   S    
O1    V3    S    
C48   C56   S    
C23   N7    S    
C38   C46   S    
O3    C2    A    
O2    V4    S    
O33   C81   S    
C80   H75   S    
C35   C43   S    
N4    H8    S    
C34   C42   S    
C70   H49   S    
O31   C77   S    
O27   C69   S    
O11   V2    S    
C81   C82   S    
N6    H12   S    
C62   H31   S    
C15   C48   S    
C11   C19   S    
C69   H48   S    
O32   C79   S    
O9    V1    S    
O15   C7    A    
C79   H72   S    
C14   C45   S    
C17   N1    S    
O16   C8    A    
O7    V2    S    
C13   O25   S    
C13   C46   S    
C68   H45   S    
C72   H55   S    
C24   C48   S    
C18   C33   S    
N1    H2    S    
C88   H94   S    
C9    C42   S    
O26   C67   S    
C67   H43   S    
C61   H27   S    
C84   H85   S    
O17   V1    S    
C59   C60   S    
C14   C22   S    
C81   H77   S    
C67   H42   S    
C22   C37   S    
O19   V3    S    
C78   H71   S    
O4    V3    S    
C75   H62   S    
C11   O23   S    
C34   O29   S    
C9    O21   S    
N2    H3    S    
C69   C70   S    
C58   H21   S    
O14   V4    S    
C23   C40   S    
C13   C21   S    
C7    C26   S    
C17   C41   S    
C12   C36   S    
O35   C85   S    
C76   H64   S    
C21   C45   S    
N1    H1    S    
C24   C39   S    
N8    H15   S    
C59   H23   S    
C10   O22   S    
C66   H40   S    
C70   H50   S    
C80   H76   S    
C63   H33   S    
C38   O33   S    
C86   H89   S    
C62   H30   S    
C64   H36   S    
C71   C72   S    
C31   C55   T    
O10   V2    S    
C85   H88   S    
N7    H13   S    
O20   V4    S    
C32   C56   T    
C24   N8    S    
N6    H11   S    
O12   C4    A    
O34   C83   S    
O23   C61   S    
C18   N2    S    
O3    V4    S    
C19   C43   S    
C61   C62   S    
C37   O34   S    
N8    H16   S    
C1    C32   S    
C23   C47   S    
C69   H47   S    
C74   H60   S    
C65   H38   S    
C19   C36   S    
O30   C75   S    
O4    C1    A    
C68   H46   S    
C3    C30   S    
O9    C1    A    
N7    H14   S    
C39   C47   S    
C87   H92   S    
C72   H56   S    
C87   H93   S    
N3    H6    S    
C10   C41   S    
C64   H34   S    
C25   C49   T    
C60   H26   S    
C63   C64   S    
C43   C51   S    
C77   H68   S    
C83   C84   S    
O5    V1    S    
C20   N4    S    
C13   C37   S    
C85   C86   S    
C15   C23   S    
C71   H52   S    
O25   C65   S    
C82   H81   S    
C37   C45   S    
C78   H69   S    
C16   C24   S    
O1    C4    A    
C9    C33   S    
C76   H66   S    
O6    V2    S    
O2    C3    A    
C14   O26   S    
O13   V3    S    
C18   C42   S    
C27   C51   T    
C4    C29   S    
C28   C52   T    
C65   C66   S    
O8    C5    A    
C75   H63   S    
O18   V2    S    
C66   H41   S    
C70   H51   S    
C44   C52   S    
C87   C88   S    
C15   C39   S    
O21   C57   S    
C2    C31   S    
C83   H83   S    
C16   C40   S    
C45   C53   S    
C86   H90   S    
C9    C17   S    
O14   C6    A    
C77   C78   S    
C58   H20   S    
C63   H32   S    
O24   C63   S    
C19   N3    S    
C16   O28   S    
C88   H95   S    
C71   H53   S    
O28   C71   S    
C66   H39   S    
O13   C5    A    
C33   O30   S    
C26   C50   T    
N4    H7    S    
C62   H29   S    
O5    C8    A    
C57   H18   S    
C11   C44   S    
O10   C2    A    
C84   H84   S    
O6    C7    A    
C8    C25   S    
O20   V2    S    
C74   H61   S    
C30   C54   T    
C40   C48   S    
C80   H74   S    
C22   C46   S    
C75   C76   S    
C12   C20   S    
C65   H37   S    
C74   H59   S    
C88   H96   S    
C76   H65   S    
C22   N6    S    
C36   C44   S    
N5    H10   S    
C83   H82   S    
C73   H57   S    
C58   H19   S    
C64   H35   S    
N2    H4    S    
C73   H58   S    
C78   H70   S    
C77   H67   S    
C12   O24   S    
C82   H80   S    
C61   H28   S    
C57   C58   S    
C5    C28   S    
C33   C41   S    
C6    C27   S    
C14   C38   S    
C73   C74   S    
