data_mof_unit_25053.cif
_audit_creation_date              2012-12-10T17:28:39-0500
_audit_creation_method            fapswitch 2.2
_symmetry_space_group_name_H-M    P1
_symmetry_Int_Tables_number       1
_space_group_crystal_system       triclinic
_cell_length_a                    10.645352
_cell_length_b                    12.041458
_cell_length_c                    12.876503
_cell_angle_alpha                 92.749199
_cell_angle_beta                  90.022118
_cell_angle_gamma                 86.138307
_cell_volume                      1644.93202688

loop_
_atom_site_label
_atom_site_type_symbol
_atom_type_description
_atom_site_fract_x
_atom_site_fract_y
_atom_site_fract_z
_atom_type_partial_charge
C1    C     C_R   0.498550 0.521545 0.700268 0.847587
C2    C     C_R   0.517320 0.559758 0.131946 -0.240803
C3    C     C_R   0.491163 0.447881 0.974705 0.157762
C4    C     C_R   0.511483 0.551823 0.025276 0.160645
C5    C     C_R   0.422480 0.952066 0.378366 0.193437
C6    C     C_R   0.580163 0.047369 0.620170 0.227860
C7    C     C_R   0.416049 0.836760 0.396699 0.553972
C8    C     C_R   0.582282 0.162569 0.603675 0.523016
C9    C     C_R   0.530705 0.859258 0.553790 -0.087364
C10   C     C_R   0.471264 0.140477 0.445282 -0.084063
C11   C     C_R   0.528045 0.976295 0.544152 -0.112494
C12   C     C_R   0.501776 0.478445 0.299734 0.856286
C13   C     C_R   0.473923 0.023177 0.454847 -0.091780
C14   C     C_R   0.739078 0.500282 0.500416 0.861941
C15   C     C_R   0.260954 0.499721 0.500509 0.869932
C16   C     C_R   0.876129 0.411622 0.322588 -0.154873
C17   C     C_R   0.124035 0.588352 0.678446 -0.150357
C18   C     C_R   0.944701 0.367605 0.236270 -0.130597
C19   C     C_R   0.055430 0.634407 0.763966 -0.130006
C20   C     C_R   0.075301 0.365737 0.236973 -0.121984
C21   C     C_R   0.924741 0.638363 0.762459 -0.113415
C22   C     C_R   0.137405 0.407997 0.323939 -0.157639
C23   C     C_R   0.501744 0.465728 0.188581 -0.078980
C24   C     C_R   0.862603 0.595636 0.675705 -0.170987
C25   C     C_R   0.069089 0.452754 0.412769 0.068528
C26   C     C_R   0.930963 0.547869 0.588063 0.070121
C27   C     C_R   0.937874 0.454358 0.412162 0.068513
C28   C     C_R   0.062237 0.545339 0.589039 0.065255
C29   C     C_R   0.128680 0.498490 0.501157 -0.205917
C30   C     C_R   0.871406 0.501017 0.500158 -0.189080
C31   C     C_3   0.767428 0.223994 0.664450 0.137653
C32   C     C_3   0.823611 0.309710 0.738094 -0.767252
C33   C     C_3   0.231701 0.802606 0.306559 0.142979
C34   C     C_R   0.499696 0.534158 0.811419 -0.078619
C35   C     C_3   0.148492 0.704811 0.303241 -0.813354
C36   C     C_R   0.524990 0.646361 0.968535 -0.193506
C37   C     C_R   0.477615 0.353341 0.031417 -0.190918
C38   C     C_R   0.519087 0.637538 0.861195 -0.205662
C39   C     C_R   0.482861 0.362263 0.138764 -0.205953
C40   C     C_R   0.484830 0.440024 0.868074 -0.236394
Cl1   Cl    Cl    0.378569 0.004521 0.256448 -0.681171
Cl2   Cl    Cl    0.636622 0.995770 0.739059 -0.645075
H1    H     H_    0.871260 0.673940 0.828910 0.153877
H2    H     H_    0.468718 0.360187 0.829440 0.199415
H3    H     H_    0.470315 0.289174 0.182555 0.193055
H4    H     H_    0.531327 0.710662 0.817374 0.190698
H5    H     H_    0.540513 0.726331 0.006972 0.173542
H6    H     H_    0.462206 0.273354 0.992963 0.175679
H7    H     H_    0.425909 0.179409 0.379939 0.207733
H8    H     H_    0.576583 0.820398 0.618959 0.204509
H9    H     H_    0.794709 0.240263 0.583442 0.143375
H10   H     H_    0.809275 0.140305 0.683129 0.175382
H11   H     H_    0.808623 0.288339 0.819923 0.258118
H12   H     H_    0.128715 0.332176 0.169730 0.152604
H13   H     H_    0.926187 0.311520 0.723190 0.206723
H14   H     H_    0.777293 0.393381 0.726393 0.251497
H15   H     H_    0.226952 0.837642 0.228386 0.211855
H16   H     H_    0.190951 0.866484 0.365079 0.128913
H17   H     H_    0.129236 0.681350 0.383385 0.257378
H18   H     H_    0.056986 0.729000 0.266410 0.212618
H19   H     H_    0.194718 0.632625 0.257788 0.264663
H20   H     H_    0.774687 0.412723 0.317704 0.139297
H21   H     H_    0.225517 0.586232 0.683638 0.137494
H22   H     H_    0.896247 0.335497 0.168460 0.148739
H23   H     H_    0.103895 0.666851 0.831627 0.148219
H24   H     H_    0.238944 0.406279 0.320017 0.141120
H25   H     H_    0.760938 0.599363 0.678916 0.139204
H26   H     H_    0.533204 0.639622 0.170639 0.193226
N1    N     N_R   0.523130 0.207800 0.519340 -0.171170
N2    N     N_R   0.476870 0.792200 0.480660 -0.160318
O1    O     O_R   0.506170 0.421700 0.658830 -0.561994
O2    O     O_3   0.358131 0.765036 0.326927 -0.580214
O3    O     O_R   0.493830 0.578300 0.341170 -0.558672
O4    O     O_R   0.491330 0.609310 0.646410 -0.645069
O5    O     O_R   0.508670 0.390690 0.353590 -0.645461
O6    O     O_R   0.690650 0.406190 0.506220 -0.617601
O7    O     O_R   0.309350 0.593810 0.493780 -0.593129
O8    O     O_R   0.675800 0.593810 0.493800 -0.615649
O9    O     O_R   0.324200 0.406190 0.506200 -0.615901
O10   O     O_3   0.635277 0.231671 0.677588 -0.568466
Zn1   Zn    Zn3+2 0.509910 0.374730 0.508290 0.972036
Zn2   Zn    Zn3+2 0.490090 0.625270 0.491710 0.985431

loop_
_geom_bond_atom_site_label_1
_geom_bond_atom_site_label_2
_ccdc_geom_bond_type
C4    C36   A    
C33   H16   S    
C32   H11   S    
C31   H10   S    
C7    N2    A    
C31   O10   S    
C12   C23   S    
C8    N1    A    
C1    O1    A    
C34   C40   A    
C1    O4    A    
C28   C29   A    
C19   C21   A    
O4    Zn2   S    
C2    H26   S    
C36   H5    S    
C35   H17   S    
C22   H24   S    
C33   O2    S    
C17   C19   A    
C21   H1    S    
C15   O9    A    
C22   C25   A    
C32   H13   S    
C5    C13   A    
C24   H25   S    
C39   H3    S    
C16   C27   A    
C12   O3    A    
C27   C30   A    
C16   H20   S    
C14   C30   S    
C1    C34   S    
C15   C29   S    
C25   C29   A    
C9    N2    A    
C20   H12   S    
C6    C11   A    
C5    C7    A    
O5    Zn1   S    
C6    C8    A    
C35   H18   S    
C14   O6    A    
C2    C4    A    
O8    Zn2   S    
C31   C32   S    
C35   H19   S    
C37   H6    S    
C9    C11   A    
C20   C22   A    
C3    C40   A    
C26   C30   A    
C12   O5    A    
C3    C4    A    
O3    Zn2   S    
C7    O2    S    
O9    Zn1   S    
C5    Cl1   S    
C33   H15   S    
C34   C38   A    
C17   C28   A    
C9    H8    S    
C24   C26   A    
C31   H9    S    
C10   C13   A    
O6    Zn1   S    
C25   C27   A    
C26   C28   A    
C36   C38   A    
C37   C39   A    
C17   H21   S    
C11   C13   A    
C18   H22   S    
C15   O7    A    
O7    Zn2   S    
C23   C39   A    
C33   C35   S    
C19   H23   S    
C18   C20   A    
C14   O8    A    
N2    Zn2   S    
C38   H4    S    
N1    Zn1   S    
C10   N1    A    
C40   H2    S    
C3    C37   A    
C16   C18   A    
C6    Cl2   S    
C21   C24   A    
C2    C23   A    
C8    O10   S    
C10   H7    S    
C32   H14   S    
O1    Zn1   S    
