data_mof_unit_34688.cif
_audit_creation_date              2012-12-10T20:27:51-0500
_audit_creation_method            fapswitch 2.2
_symmetry_space_group_name_H-M    P1
_symmetry_Int_Tables_number       1
_space_group_crystal_system       triclinic
_cell_length_a                    12.871618
_cell_length_b                    10.745887
_cell_length_c                    9.878445
_cell_angle_alpha                 89.228172
_cell_angle_beta                  97.470922
_cell_angle_gamma                 91.113165
_cell_volume                      1354.41914766

loop_
_atom_site_label
_atom_site_type_symbol
_atom_type_description
_atom_site_fract_x
_atom_site_fract_y
_atom_site_fract_z
_atom_type_partial_charge
C1    C     C_R   0.501935 0.260285 0.500943 0.900560
C2    C     C_R   0.523099 0.940719 0.375723 0.205581
C3    C     C_R   0.514931 0.872634 0.497909 -0.163565
C4    C     C_R   0.298158 0.501888 0.472647 0.884934
C5    C     C_R   0.522204 0.934939 0.622054 0.086328
C6    C     C_3   0.452708 0.924310 0.732236 -0.482739
C7    C     C_3   0.452447 0.065043 0.733469 -0.478050
C8    C     C_R   0.436294 0.419802 0.061854 0.155156
C9    C     C_R   0.572243 0.567296 0.084245 -0.154473
C10   C     C_R   0.573323 0.567888 0.939526 0.234168
C11   C     C_R   0.436705 0.418697 0.919690 0.097366
C12   C     C_R   0.029112 0.526704 0.557560 0.186560
C13   C     C_3   0.319546 0.409018 0.896551 0.023768
C14   C     C_3   0.320198 0.411816 0.050756 -0.558598
C15   C     C_R   0.502010 0.740223 0.498987 0.887714
C16   C     C_R   0.701918 0.498406 0.526826 0.879705
C17   C     C_R   0.814398 0.499507 0.541985 -0.048319
C18   C     C_R   0.185827 0.504726 0.454354 -0.038734
C19   C     C_R   0.019796 0.458822 0.321094 -0.224374
C20   C     C_R   0.127991 0.466340 0.331598 -0.210553
C21   C     C_R   0.136115 0.540257 0.564400 -0.293414
C22   C     C_3   0.749663 0.665964 0.955268 -0.877443
C23   C     C_R   0.970424 0.486489 0.434633 0.191957
C24   C     C_3   0.171247 0.271527 0.816375 -0.782159
C25   C     C_3   0.613193 0.890465 0.185005 -0.801264
C26   C     C_R   0.863288 0.473983 0.427519 -0.283096
C27   C     C_R   0.872977 0.532564 0.665795 -0.205954
C28   C     C_R   0.980420 0.548622 0.673134 -0.244887
C29   C     C_R   0.522205 0.062270 0.624227 0.145920
C30   C     C_R   0.515305 0.129455 0.502537 -0.145706
C31   C     C_R   0.523581 0.069272 0.379980 -0.293563
H1    H     H_    0.818082 0.445037 0.332342 0.159277
H2    H     H_    0.975244 0.428068 0.226358 0.137173
H3    H     H_    0.025311 0.576611 0.768747 0.139893
H4    H     H_    0.166169 0.438917 0.245726 0.155151
H5    H     H_    0.180864 0.574416 0.657292 0.143440
H6    H     H_    0.522968 0.120905 0.284857 0.179996
H7    H     H_    0.374635 0.881929 0.696210 0.204038
H8    H     H_    0.615541 0.721125 0.829296 0.242246
H9    H     H_    0.744595 0.729265 0.041578 0.234378
H10   H     H_    0.801535 0.712682 0.888117 0.246087
H11   H     H_    0.785320 0.576794 0.993689 0.250265
H12   H     H_    0.493142 0.883540 0.828363 0.195886
H13   H     H_    0.321994 0.214152 0.884625 0.226930
H14   H     H_    0.151835 0.183388 0.760556 0.235989
H15   H     H_    0.133579 0.348797 0.754293 0.257155
H16   H     H_    0.139613 0.265830 0.915734 0.233641
H17   H     H_    0.453669 0.911825 0.179334 0.218276
H18   H     H_    0.637095 0.989036 0.169660 0.231647
H19   H     H_    0.600366 0.845720 0.083561 0.227502
H20   H     H_    0.676732 0.841725 0.250772 0.249599
H21   H     H_    0.374450 0.104070 0.696162 0.212763
H22   H     H_    0.492703 0.105277 0.829861 0.200270
H23   H     H_    0.627513 0.623004 0.150212 0.176322
H24   H     H_    0.282340 0.490697 0.841600 0.158182
H25   H     H_    0.286070 0.498156 0.085486 0.196753
H26   H     H_    0.292873 0.324081 0.096764 0.200524
H27   H     H_    0.835595 0.548062 0.755323 0.184968
N1    N     N_R   0.499290 0.499140 0.142710 -0.115029
N2    N     N_R   0.499290 0.499180 0.857070 -0.147370
N3    N     N_2   0.647358 0.643186 0.878543 -0.260915
N4    N     N_2   0.283671 0.290006 0.838139 -0.273932
N5    N     N_2   0.517169 0.882888 0.246182 -0.268833
O1    O     O_R   0.500010 0.316790 0.614690 -0.607696
O2    O     O_R   0.500000 0.316760 0.385350 -0.625401
O3    O     O_R   0.346360 0.499990 0.595720 -0.620077
O4    O     O_R   0.346350 0.499960 0.366370 -0.625263
O5    O     O_R   0.500000 0.683240 0.614650 -0.637126
O6    O     O_R   0.499990 0.683210 0.385310 -0.584071
O7    O     O_R   0.653650 0.500040 0.633630 -0.600122
O8    O     O_R   0.653640 0.500010 0.404280 -0.631872
Zn1   Zn    Zn3+2 0.500010 0.500020 0.653130 0.956708
Zn2   Zn    Zn3+2 0.499990 0.499980 0.346870 0.949817

loop_
_geom_bond_atom_site_label_1
_geom_bond_atom_site_label_2
_ccdc_geom_bond_type
C4    O4    A    
C10   N2    A    
C25   H20   S    
C16   O7    A    
O6    Zn2   S    
C29   C30   A    
C7    C29   S    
C18   C21   A    
C9    C10   A    
N1    Zn2   S    
C14   H25   S    
C19   C20   A    
O5    Zn1   S    
C24   H15   S    
C22   H9    S    
H17   N5    S    
C6    H7    S    
C2    C3    A    
C4    C18   S    
C21   H5    S    
C13   C14   S    
C22   N3    S    
C4    O3    A    
C5    C6    S    
C11   C13   S    
C12   C23   A    
C15   O5    A    
C22   H11   S    
C16   O8    A    
C24   N4    S    
C12   C28   A    
C8    C11   A    
O4    Zn2   S    
C24   H14   S    
C1    C30   S    
C7    H21   S    
C6    C7    S    
C5    C29   A    
C6    H12   S    
O1    Zn1   S    
C8    N1    A    
C19   H2    S    
C30   C31   A    
H8    N3    S    
C15   O6    A    
C25   H18   S    
C1    O2    A    
C10   N3    S    
O7    Zn1   S    
C17   C26   A    
C28   H3    S    
C11   N2    A    
C22   H10   S    
C1    O1    A    
O2    Zn2   S    
C2    N5    S    
C18   C20   A    
C25   N5    S    
C23   C26   A    
C27   C28   A    
O8    Zn2   S    
C14   H26   S    
N2    Zn1   S    
C19   C23   A    
C16   C17   S    
C3    C15   S    
C8    C14   S    
C9    H23   S    
C7    H22   S    
H13   N4    S    
C25   H19   S    
C24   H16   S    
C9    N1    A    
C12   C21   A    
C20   H4    S    
C26   H1    S    
O3    Zn1   S    
C13   N4    S    
C31   H6    S    
C13   H24   S    
C2    C31   A    
C3    C5    A    
C27   H27   S    
C17   C27   A    
