data_mof_unit_65802.cif
_audit_creation_date              2012-12-10T16:59:19-0500
_audit_creation_method            fapswitch 2.2
_symmetry_space_group_name_H-M    P1
_symmetry_Int_Tables_number       1
_space_group_crystal_system       triclinic
_cell_length_a                    13.14187
_cell_length_b                    13.138967
_cell_length_c                    17.756705
_cell_angle_alpha                 109.758745
_cell_angle_beta                  73.057825
_cell_angle_gamma                 90.818671
_cell_volume                      2748.20399329

loop_
_atom_site_label
_atom_site_type_symbol
_atom_type_description
_atom_site_fract_x
_atom_site_fract_y
_atom_site_fract_z
_atom_type_partial_charge
C1    C     C_R   0.217647 0.544900 0.530039 0.921153
C2    C     C_R   0.640414 0.433494 0.897912 0.024400
C3    C     C_R   0.674988 0.360266 0.929132 0.630130
C4    C     C_R   0.782000 0.457818 0.469941 0.752479
C5    C     C_R   0.639326 0.376422 0.014938 -0.085792
C6    C     C_R   0.571938 0.471081 0.072315 -0.113768
C7    C     C_R   0.674030 0.300710 0.044431 -0.079707
C8    C     C_R   0.643407 0.317892 0.129921 -0.310490
C9    C     C_R   0.535647 0.482565 0.158507 0.608088
C10   C     C_2   0.895079 0.446361 0.462653 0.547827
C11   C     C_2   0.950950 0.533170 0.483039 -0.084032
C12   C     C_R   0.395790 0.709603 0.866441 -0.253119
C13   C     C_2   0.105439 0.567729 0.537265 -0.485206
C14   C     C_2   0.064064 0.513089 0.475621 0.771633
C15   C     C_2   0.533702 0.895638 0.530092 -0.463803
C16   C     C_R   0.474290 0.216320 0.473840 0.741575
C17   C     C_2   0.532462 0.927015 0.465886 0.756724
C18   C     C_2   0.471617 0.098906 0.459591 0.512785
C19   C     C_2   0.545358 0.041139 0.473077 -0.096317
C20   C     C_R   0.527630 0.782346 0.523540 0.937349
C21   C     C_R   0.552193 0.433273 0.276584 0.889658
C22   C     C_R   0.449319 0.566650 0.723934 0.840110
C23   C     C_R   0.489605 0.541114 0.844841 -0.245322
C24   C     C_R   0.441543 0.605035 0.813723 -0.130333
C25   C     C_R   0.574583 0.408579 0.186680 -0.096172
C26   C     C_R   0.398562 0.750394 0.949034 0.632696
C27   C     C_3   0.409908 0.837978 0.125723 -0.651495
C28   C     C_3   0.900748 0.648553 0.513615 -0.988533
C29   C     C_3   0.643502 0.087632 0.495125 -0.892769
C30   C     C_3   0.703713 0.425696 0.809639 -0.761987
C31   C     C_R   0.503208 0.583482 0.925078 0.026408
C32   C     C_R   0.451248 0.687801 0.980322 0.000234
C33   C     C_R   0.561276 0.520768 0.953215 -0.000635
C34   C     C_R   0.540958 0.548172 0.040900 0.008094
C35   C     C_R   0.496304 0.654227 0.093638 -0.080241
C36   C     C_R   0.453906 0.725119 0.064449 0.084689
F1    F     F_    0.124905 0.433641 0.404920 -0.569778
F2    F     F_    0.940165 0.344529 0.443587 -0.611582
F3    F     F_    0.518819 0.854897 0.394435 -0.603024
F4    F     F_    0.390303 0.048583 0.433584 -0.606909
F5    F     F_    0.457704 0.560226 0.215685 -0.661511
F6    F     F_    0.746592 0.274172 0.875391 -0.660737
F7    F     F_    0.349755 0.851467 0.996612 -0.662638
H1    H     H_    0.726909 0.229080 0.001631 0.213117
H2    H     H_    0.322369 0.848942 0.137518 0.284005
H3    H     H_    0.959132 0.708499 0.527532 0.269761
H4    H     H_    0.872352 0.662258 0.464468 0.290680
H5    H     H_    0.832545 0.664022 0.571706 0.239597
H6    H     H_    0.700139 0.022718 0.491234 0.253076
H7    H     H_    0.686972 0.126804 0.450111 0.273406
H8    H     H_    0.620547 0.146639 0.560448 0.273890
H9    H     H_    0.680566 0.356754 0.762899 0.252130
H10   H     H_    0.694399 0.502201 0.797876 0.226064
H11   H     H_    0.790489 0.411513 0.799919 0.270519
H12   H     H_    0.056336 0.630866 0.593442 0.141082
H13   H     H_    0.535230 0.955238 0.589557 0.126456
H14   H     H_    0.674189 0.261010 0.151960 0.169839
H15   H     H_    0.358138 0.760813 0.843586 0.202770
H16   H     H_    0.515739 0.457402 0.805722 0.195002
H17   H     H_    0.499418 0.685880 0.157305 0.229379
H18   H     H_    0.423079 0.853224 0.187492 0.237815
H19   H     H_    0.450400 0.899585 0.100512 0.262148
O1    O     O_3   0.500000 0.500000 0.500000 -0.513515
O2    O     O_R   0.474570 0.394560 0.317400 -0.606682
O3    O     O_R   0.403380 0.624270 0.695980 -0.646824
O4    O     O_R   0.609140 0.497770 0.314440 -0.623110
O5    O     O_R   0.512900 0.483390 0.672170 -0.644660
O6    O     O_R   0.526170 0.271940 0.521690 -0.668391
O7    O     O_R   0.451880 0.756290 0.574830 -0.636809
O8    O     O_R   0.271960 0.460780 0.472050 -0.549990
O9    O     O_R   0.749980 0.510990 0.431420 -0.657277
O10   O     O_R   0.262540 0.611050 0.579000 -0.645119
O11   O     O_R   0.715520 0.417170 0.517520 -0.621950
O12   O     O_R   0.426070 0.262540 0.438550 -0.587252
O13   O     O_R   0.595870 0.709230 0.464930 -0.602342
Zn1   Zn    Zn3+2 0.562560 0.419520 0.551940 0.969251
Zn2   Zn    Zn3+2 0.419550 0.406100 0.433160 1.096519
Zn3   Zn    Zn3+2 0.611810 0.553570 0.428930 1.029819
Zn4   Zn    Zn3+2 0.406080 0.620810 0.585960 1.007464

loop_
_geom_bond_atom_site_label_1
_geom_bond_atom_site_label_2
_ccdc_geom_bond_type
C28   H4    S    
C26   C32   A    
O3    Zn4   S    
C21   O4    A    
O2    Zn2   S    
C35   C36   A    
C6    C9    A    
C9    C25   A    
C7    C8    A    
C3    F6    S    
C29   H6    S    
C23   H16   S    
C30   H11   S    
C28   H3    S    
C16   O12   A    
C32   C36   A    
C18   C19   D    
O10   Zn4   S    
C29   H8    S    
C5    C6    A    
C11   C14   S    
O1    Zn1   S    
C34   C35   A    
C17   F3    S    
C18   F4    S    
C21   O2    A    
C30   H9    S    
C27   H18   S    
O12   Zn2   S    
C23   C24   A    
C31   C33   A    
C16   O6    A    
C12   H15   S    
C27   H2    S    
C13   C14   D    
O8    Zn2   S    
C8    C25   A    
C26   F7    S    
C29   H7    S    
C15   C20   S    
O4    Zn3   S    
C30   H10   S    
C1    O10   A    
C5    C7    A    
O1    Zn4   S    
C6    C34   A    
C20   O13   A    
C12   C26   A    
C35   H17   S    
C23   C31   A    
C22   O3    A    
C27   H19   S    
C8    H14   S    
C31   C32   A    
C33   C34   A    
C7    H1    S    
C4    O11   A    
C2    C33   A    
O11   Zn1   S    
C22   C24   S    
C20   O7    A    
O7    Zn4   S    
C1    C13   S    
C4    C10   S    
C19   C29   S    
O1    Zn2   S    
C15   C17   D    
C21   C25   S    
C28   H5    S    
C3    C5    A    
C27   C36   S    
O6    Zn1   S    
C12   C24   A    
C9    F5    S    
C1    O8    A    
C2    C30   S    
C10   F2    S    
C15   H13   S    
C2    C3    A    
C14   F1    S    
C11   C28   S    
C17   C19   S    
O9    Zn3   S    
O13   Zn3   S    
C22   O5    A    
C10   C11   D    
C16   C18   S    
O5    Zn1   S    
C4    O9    A    
C13   H12   S    
O1    Zn3   S    
