data_mof_unit_18668.cif
_audit_creation_date              2012-10-26T21:33:16-0400
_audit_creation_method            fapswitch 2.2
_symmetry_space_group_name_H-M    P1
_symmetry_Int_Tables_number       1
_space_group_crystal_system       triclinic
_cell_length_a                    28.184839
_cell_length_b                    18.508873
_cell_length_c                    16.923228
_cell_angle_alpha                 90.315037
_cell_angle_beta                  61.607371
_cell_angle_gamma                 89.950126
_cell_volume                      7766.19290172

loop_
_atom_site_label
_atom_site_type_symbol
_atom_type_description
_atom_site_fract_x
_atom_site_fract_y
_atom_site_fract_z
_atom_type_partial_charge
C1    C     C_R   0.700346 0.264766 0.677062 0.910069
C2    C     C_R   0.090555 0.494866 0.533713 0.010239
C3    C     C_R   0.176139 0.240652 0.916615 -0.033251
C4    C     C_R   0.075309 0.098373 0.933422 0.954821
C5    C     C_R   0.922868 0.904304 0.068955 0.928345
C6    C     C_R   0.924803 0.098392 0.066685 0.958593
C7    C     C_R   0.073229 0.898497 0.935051 0.929565
C8    C     C_R   0.575309 0.598373 0.933422 0.954820
C9    C     C_R   0.422868 0.404303 0.068955 0.928346
C10   C     C_R   0.424803 0.598392 0.066685 0.958593
C11   C     C_R   0.573230 0.398498 0.935050 0.929566
C12   C     C_R   0.562103 0.116955 0.467136 0.091988
C13   C     C_R   0.398683 0.999077 0.510150 0.010868
C14   C     C_R   0.427198 0.873669 0.570854 0.095180
C15   C     C_R   0.456298 0.125838 0.490729 0.077007
C16   C     C_R   0.522389 0.872810 0.589846 0.089845
C17   C     C_R   0.062104 0.616955 0.467134 0.091987
C18   C     C_R   0.927199 0.373669 0.570852 0.095178
C19   C     C_R   0.956298 0.625838 0.490727 0.077005
C20   C     C_R   0.022390 0.372810 0.589845 0.089845
C21   C     C_R   0.541761 0.182636 0.453854 -0.199955
C22   C     C_R   0.441556 0.812540 0.603914 -0.192576
C23   C     C_R   0.489137 0.187249 0.466741 -0.203138
C24   C     C_R   0.590554 0.994866 0.533714 0.010239
C25   C     C_R   0.488254 0.812064 0.613121 -0.198863
C26   C     C_R   0.041761 0.682636 0.453853 -0.199954
C27   C     C_R   0.941556 0.312540 0.603912 -0.192582
C28   C     C_R   0.989137 0.687249 0.466740 -0.203135
C29   C     C_R   0.988255 0.312064 0.613120 -0.198862
C30   C     C_R   0.477165 0.059642 0.500584 0.011492
C31   C     C_R   0.509845 0.932741 0.551693 0.014400
C32   C     C_R   0.527689 0.056722 0.497380 0.007305
C33   C     C_R   0.462058 0.933411 0.543748 0.018968
C34   C     C_R   0.977166 0.559642 0.500582 0.011492
C35   C     C_R   0.067602 0.376199 0.606004 0.115702
C36   C     C_R   0.009845 0.432741 0.551692 0.014400
C37   C     C_R   0.027690 0.556722 0.497379 0.007305
C38   C     C_R   0.962059 0.433411 0.543746 0.018971
C39   C     C_R   0.945953 0.497170 0.518514 -0.058086
C40   C     C_R   0.043199 0.494091 0.526088 -0.056914
C41   C     C_R   0.445953 0.997170 0.518516 -0.058088
C42   C     C_R   0.543198 0.994091 0.526089 -0.056914
C43   C     C_R   0.868761 0.436148 0.521814 0.025407
C44   C     C_R   0.124302 0.556293 0.505215 -0.017270
C45   C     C_R   0.105093 0.434266 0.567951 0.030530
C46   C     C_R   0.901216 0.629212 0.514512 0.129488
C47   C     C_R   0.878359 0.565491 0.498894 -0.013900
C48   C     C_R   0.368760 0.936148 0.521816 0.025407
C49   C     C_R   0.624302 0.056293 0.505215 -0.017269
C50   C     C_R   0.605093 0.934266 0.567951 0.030530
C51   C     C_R   0.378359 0.065491 0.498895 -0.013901
C52   C     C_R   0.828862 0.436621 0.492165 -0.116341
C53   C     C_R   0.167238 0.560467 0.526367 -0.127145
C54   C     C_R   0.157511 0.434676 0.560670 -0.123580
C55   C     C_R   0.833604 0.564393 0.480566 -0.111276
C56   C     C_R   0.328862 0.936621 0.492167 -0.116341
C57   C     C_R   0.877143 0.378860 0.569845 0.096911
C58   C     C_R   0.667238 0.060467 0.526368 -0.127145
C59   C     C_R   0.657510 0.934676 0.560670 -0.123579
C60   C     C_R   0.333604 0.064393 0.480567 -0.111276
C61   C     C_R   0.813327 0.500076 0.469647 -0.292806
C62   C     C_R   0.183671 0.499286 0.552901 -0.258585
C63   C     C_R   0.313327 0.000076 0.469648 -0.292806
C64   C     C_R   0.683671 0.999286 0.552901 -0.258585
C65   C     C_3   0.070939 0.325437 0.674369 -0.372001
C66   C     C_3   0.024283 0.337784 0.769114 -0.844024
C67   C     C_3   0.865803 0.670702 0.601534 -0.355174
C68   C     C_R   0.115103 0.609990 0.454346 0.136198
C69   C     C_3   0.873648 0.752660 0.594920 -0.752151
C70   C     C_3   0.828214 0.342788 0.644409 -0.324627
C71   C     C_3   0.818141 0.370614 0.736153 -0.893430
C72   C     C_3   0.162507 0.624887 0.361309 -0.400825
C73   C     C_3   0.162766 0.697959 0.320033 -0.771127
C74   C     C_3   0.570939 0.825436 0.674370 -0.372002
C75   C     C_3   0.524283 0.837783 0.769115 -0.844026
C76   C     C_3   0.365802 0.170702 0.601535 -0.355175
C77   C     C_3   0.373648 0.252660 0.594921 -0.752151
C78   C     C_3   0.328213 0.842787 0.644410 -0.324631
C79   C     C_R   0.567602 0.876199 0.606004 0.115702
C80   C     C_3   0.318141 0.870609 0.736155 -0.893412
C81   C     C_3   0.662507 0.124887 0.361310 -0.400825
C82   C     C_3   0.662766 0.197960 0.320035 -0.771129
C83   C     C_3   0.582319 0.294270 0.793688 -0.324679
C84   C     C_3   0.578264 0.352271 0.732312 -0.705319
C85   C     C_3   0.340384 0.586269 0.254255 -0.347210
C86   C     C_3   0.378742 0.579380 0.294899 -0.678671
C87   C     C_3   0.416524 0.291679 0.197554 -0.334349
C88   C     C_3   0.425108 0.343837 0.260677 -0.696478
C89   C     C_3   0.659030 0.587568 0.745394 -0.338625
C90   C     C_R   0.401216 0.129212 0.514513 0.129488
C91   C     C_3   0.620463 0.581443 0.704994 -0.690841
C92   C     C_3   0.082319 0.794270 0.793686 -0.324676
C93   C     C_3   0.078265 0.852272 0.732310 -0.705318
C94   C     C_3   0.840384 0.086269 0.254255 -0.347210
C95   C     C_3   0.878742 0.079380 0.294899 -0.678671
C96   C     C_3   0.916524 0.791679 0.197554 -0.334347
C97   C     C_3   0.925108 0.843837 0.260677 -0.696476
C98   C     C_3   0.159030 0.087568 0.745394 -0.338625
C99   C     C_3   0.120463 0.081444 0.704994 -0.690842
C100  C     C_R   0.377142 0.878860 0.569847 0.096905
C101  C     C_R   0.297818 0.731075 0.324215 0.948358
C102  C     C_R   0.615103 0.109990 0.454347 0.136198
C103  C     C_R   0.723414 0.267569 0.953531 0.168849
C104  C     C_R   0.286423 0.748137 0.041725 0.156103
C105  C     C_R   0.266255 0.289789 0.057644 0.169850
C106  C     C_R   0.707688 0.761996 0.963304 0.168544
C107  C     C_R   0.223411 0.767567 0.953534 0.168849
C108  C     C_R   0.786424 0.248139 0.041724 0.156104
C109  C     C_R   0.766255 0.789789 0.057644 0.169849
C110  C     C_R   0.207688 0.261996 0.963304 0.168544
C111  C     C_R   0.755890 0.323847 0.957698 -0.152521
C112  C     C_R   0.298920 0.265934 0.323036 0.934519
C113  C     C_R   0.252879 0.692576 0.039920 -0.145084
C114  C     C_R   0.217079 0.325559 0.081985 -0.117426
C115  C     C_R   0.757334 0.727552 0.938251 -0.140158
C116  C     C_R   0.255887 0.823846 0.957701 -0.152523
C117  C     C_R   0.752880 0.192578 0.039919 -0.145084
C118  C     C_R   0.717078 0.825559 0.081985 -0.117426
C119  C     C_R   0.257334 0.227552 0.938251 -0.140159
C120  C     C_R   0.787864 0.313808 0.999812 -0.096873
C121  C     C_R   0.221587 0.702205 0.996544 -0.095847
C122  C     C_R   0.188226 0.312248 0.034648 -0.104493
C123  C     C_R   0.702109 0.731275 0.675971 0.907055
C124  C     C_R   0.786362 0.741448 0.984657 -0.125092
C125  C     C_R   0.287862 0.813807 0.999814 -0.096875
C126  C     C_R   0.721588 0.202208 0.996543 -0.095850
C127  C     C_R   0.688226 0.812248 0.034648 -0.104492
C128  C     C_R   0.286362 0.241448 0.984657 -0.125092
C129  C     C_R   0.643990 0.324825 0.948975 0.098038
C130  C     C_R   0.363922 0.686735 0.046558 0.111553
C131  C     C_R   0.338429 0.355886 0.075255 0.079680
C132  C     C_R   0.634328 0.689939 0.955148 0.095404
C133  C     C_R   0.143986 0.824820 0.948978 0.098042
C134  C     C_R   0.200346 0.764766 0.677062 0.910069
C135  C     C_R   0.863923 0.186736 0.046558 0.111552
C136  C     C_R   0.838429 0.855885 0.075255 0.079681
C137  C     C_R   0.134328 0.189939 0.955148 0.095403
C138  C     C_R   0.614325 0.341794 0.902174 -0.184271
C139  C     C_R   0.380046 0.648271 0.102782 -0.164187
C140  C     C_R   0.376737 0.356458 0.108082 -0.173544
C141  C     C_R   0.619410 0.649569 0.898061 -0.172534
C142  C     C_R   0.114323 0.841791 0.902175 -0.184274
C143  C     C_R   0.880046 0.148271 0.102782 -0.164187
C144  C     C_R   0.876737 0.856458 0.108082 -0.173544
C145  C     C_R   0.797818 0.231075 0.324215 0.948358
C146  C     C_R   0.119410 0.149569 0.898061 -0.172534
C147  C     C_R   0.626364 0.307344 0.820948 0.025893
C148  C     C_R   0.349678 0.653396 0.195458 0.022754
C149  C     C_R   0.369773 0.312028 0.179646 0.023315
C150  C     C_R   0.649833 0.654667 0.805185 0.025825
C151  C     C_R   0.126363 0.807344 0.820948 0.025894
C152  C     C_R   0.849678 0.153396 0.195458 0.022755
C153  C     C_R   0.869773 0.812028 0.179646 0.023313
C154  C     C_R   0.149833 0.154667 0.805185 0.025825
C155  C     C_R   0.675731 0.271509 0.775467 -0.161049
C156  C     C_R   0.798920 0.765934 0.323036 0.934519
C157  C     C_R   0.318869 0.715845 0.229613 -0.158435
C158  C     C_R   0.320621 0.276954 0.226087 -0.168763
C159  C     C_R   0.680315 0.717136 0.771154 -0.158013
C160  C     C_R   0.175731 0.771509 0.775467 -0.161051
C161  C     C_R   0.818869 0.215845 0.229613 -0.158435
C162  C     C_R   0.820622 0.776953 0.226087 -0.168763
C163  C     C_R   0.180314 0.217136 0.771154 -0.158012
C164  C     C_R   0.704149 0.250022 0.822932 0.102859
C165  C     C_R   0.303817 0.757916 0.174367 0.072965
C166  C     C_R   0.288710 0.263087 0.182431 0.111426
C167  C     C_R   0.202109 0.231275 0.675971 0.907056
C168  C     C_R   0.693613 0.761161 0.827333 0.081033
C169  C     C_R   0.204148 0.750021 0.822932 0.102861
C170  C     C_R   0.803818 0.257917 0.174367 0.072965
C171  C     C_R   0.788710 0.763087 0.182431 0.111426
C172  C     C_R   0.193613 0.261161 0.827333 0.081032
C173  C     C_R   0.695319 0.127448 0.521860 0.882082
C174  C     C_R   0.303881 0.871868 0.481560 0.896698
C175  C     C_R   0.305940 0.128480 0.475688 0.885032
C176  C     C_R   0.691207 0.870115 0.537251 0.886962
C177  C     C_R   0.195319 0.627448 0.521860 0.882082
C178  C     C_R   0.898683 0.499077 0.510149 0.010868
C179  C     C_R   0.803882 0.371868 0.481559 0.896697
C180  C     C_R   0.805941 0.628480 0.475688 0.885033
C181  C     C_R   0.191207 0.370115 0.537251 0.886962
C182  C     C_R   0.689191 0.279176 0.908710 -0.059913
C183  C     C_R   0.320288 0.734617 0.086112 -0.037143
C184  C     C_R   0.297855 0.303373 0.106340 -0.052996
C185  C     C_R   0.676139 0.740652 0.916615 -0.033252
C186  C     C_R   0.189189 0.779173 0.908712 -0.059910
C187  C     C_R   0.820289 0.234618 0.086112 -0.037143
C188  C     C_R   0.797856 0.803373 0.106340 -0.052997
H1    H     H_    0.997006 0.263514 0.639054 0.167448
H2    H     H_    0.220133 0.500412 0.559400 0.205046
H3    H     H_    0.896926 0.890595 0.280701 0.251413
H4    H     H_    0.919111 0.815273 0.322301 0.229865
H5    H     H_    0.910000 0.736391 0.226277 0.186541
H6    H     H_    0.954383 0.787125 0.132633 0.188446
H7    H     H_    0.096005 0.031507 0.728612 0.228835
H8    H     H_    0.092705 0.128615 0.723441 0.259529
H9    H     H_    0.143784 0.077569 0.630606 0.233525
H10   H     H_    0.201434 0.086470 0.690342 0.181046
H11   H     H_    0.155840 0.037795 0.784158 0.179243
H12   H     H_    0.282632 0.999734 0.448221 0.203313
H13   H     H_    0.720133 0.000411 0.559400 0.205046
H14   H     H_    0.695915 0.158733 0.996488 0.157211
H15   H     H_    0.313340 0.857354 0.000337 0.159432
H16   H     H_    0.324357 0.213821 0.964301 0.141046
H17   H     H_    0.650242 0.839795 0.054805 0.154716
H18   H     H_    0.195914 0.658730 0.996488 0.157212
H19   H     H_    0.813343 0.357354 0.000335 0.159431
H20   H     H_    0.824357 0.713821 0.964301 0.141046
H21   H     H_    0.974778 0.738542 0.456002 0.155961
H22   H     H_    0.150242 0.339795 0.054805 0.154716
H23   H     H_    0.755873 0.376190 0.929679 0.149236
H24   H     H_    0.251094 0.641473 0.072123 0.150545
H25   H     H_    0.201154 0.363632 0.137527 0.144776
H26   H     H_    0.773197 0.688783 0.883399 0.134048
H27   H     H_    0.255870 0.876189 0.929682 0.149233
H28   H     H_    0.751094 0.141475 0.072123 0.150544
H29   H     H_    0.701154 0.863632 0.137527 0.144776
H30   H     H_    0.273197 0.188783 0.883399 0.134048
H31   H     H_    0.023938 0.394876 0.789996 0.263751
H32   H     H_    0.916639 0.264709 0.623509 0.167604
H33   H     H_    0.984733 0.325216 0.773272 0.274810
H34   H     H_    0.029596 0.302225 0.817025 0.261197
H35   H     H_    0.072213 0.268182 0.653554 0.210490
H36   H     H_    0.107755 0.334417 0.680782 0.205997
H37   H     H_    0.838706 0.779089 0.651725 0.269907
H38   H     H_    0.909950 0.767717 0.600757 0.225594
H39   H     H_    0.877206 0.773729 0.531082 0.255041
H40   H     H_    0.822389 0.658670 0.626526 0.208483
H41   H     H_    0.874579 0.650733 0.655139 0.182067
H42   H     H_    0.844717 0.342865 0.758224 0.281685
H43   H     H_    0.064761 0.731908 0.439400 0.160582
H44   H     H_    0.824587 0.429931 0.734860 0.256729
H45   H     H_    0.775657 0.360279 0.785237 0.252484
H46   H     H_    0.791043 0.356388 0.640892 0.203755
H47   H     H_    0.833086 0.283306 0.639815 0.240464
H48   H     H_    0.201758 0.704381 0.258193 0.255705
H49   H     H_    0.131154 0.700532 0.298788 0.250958
H50   H     H_    0.158007 0.742591 0.367330 0.279384
H51   H     H_    0.201579 0.619191 0.361586 0.188804
H52   H     H_    0.162674 0.582221 0.314682 0.198668
H53   H     H_    0.523939 0.894875 0.789996 0.263752
H54   H     H_    0.497006 0.763514 0.639055 0.167448
H55   H     H_    0.484734 0.825216 0.773273 0.274811
H56   H     H_    0.529597 0.802225 0.817025 0.261197
H57   H     H_    0.572213 0.768181 0.653554 0.210490
H58   H     H_    0.607755 0.834417 0.680782 0.205998
H59   H     H_    0.338706 0.279089 0.651727 0.269907
H60   H     H_    0.409949 0.267717 0.600758 0.225594
H61   H     H_    0.377205 0.273730 0.531083 0.255041
H62   H     H_    0.322388 0.158670 0.626527 0.208483
H63   H     H_    0.374578 0.150733 0.655141 0.182067
H64   H     H_    0.344712 0.842850 0.758230 0.281685
H65   H     H_    0.474777 0.238542 0.456004 0.155961
H66   H     H_    0.324596 0.929925 0.734862 0.256730
H67   H     H_    0.275655 0.860282 0.785237 0.252477
H68   H     H_    0.291043 0.856388 0.640893 0.203753
H69   H     H_    0.333085 0.783305 0.639812 0.240466
H70   H     H_    0.701757 0.204382 0.258194 0.255705
H71   H     H_    0.631153 0.200533 0.298789 0.250957
H72   H     H_    0.658006 0.242591 0.367333 0.279384
H73   H     H_    0.701579 0.119190 0.361586 0.188804
H74   H     H_    0.662673 0.082222 0.314683 0.198668
H75   H     H_    0.537350 0.376929 0.764437 0.233650
H76   H     H_    0.416639 0.764709 0.623510 0.167603
H77   H     H_    0.608563 0.395653 0.717043 0.252242
H78   H     H_    0.584443 0.327539 0.668135 0.233397
H79   H     H_    0.588865 0.240668 0.759934 0.190553
H80   H     H_    0.542584 0.289149 0.855078 0.182223
H81   H     H_    0.402949 0.528949 0.270904 0.226953
H82   H     H_    0.406721 0.625989 0.276988 0.266583
H83   H     H_    0.355275 0.576008 0.369251 0.231708
H84   H     H_    0.343659 0.536621 0.214565 0.184280
H85   H     H_    0.297995 0.585621 0.309196 0.173369
H86   H     H_    0.467146 0.364375 0.227368 0.245192
H87   H     H_    0.564761 0.231908 0.439401 0.160582
H88   H     H_    0.396926 0.390595 0.280701 0.251413
H89   H     H_    0.419111 0.315273 0.322301 0.229865
H90   H     H_    0.410000 0.236391 0.226277 0.186540
H91   H     H_    0.454383 0.287125 0.132633 0.188444
H92   H     H_    0.596005 0.531507 0.728612 0.228835
H93   H     H_    0.592705 0.628615 0.723441 0.259528
H94   H     H_    0.643784 0.577569 0.630606 0.233525
H95   H     H_    0.701434 0.586470 0.690342 0.181046
H96   H     H_    0.655840 0.537795 0.784158 0.179243
H97   H     H_    0.037351 0.876931 0.764436 0.233650
H98   H     H_    0.782632 0.499735 0.448221 0.203313
H99   H     H_    0.108565 0.895654 0.717042 0.252242
H100  H     H_    0.084444 0.827542 0.668133 0.233396
H101  H     H_    0.088865 0.740669 0.759930 0.190554
H102  H     H_    0.042583 0.789149 0.855075 0.182222
H103  H     H_    0.902948 0.028949 0.270904 0.226953
H104  H     H_    0.906721 0.125988 0.276989 0.266583
H105  H     H_    0.855275 0.076008 0.369251 0.231708
H106  H     H_    0.843659 0.036622 0.214564 0.184280
H107  H     H_    0.797995 0.085621 0.309195 0.173369
H108  H     H_    0.967146 0.864375 0.227368 0.245195
I1    I     I_    0.618996 0.356103 0.087051 -0.344336
I2    I     I_    0.258479 0.856998 0.217113 -0.336872
I3    I     I_    0.229401 0.178614 0.223200 -0.289239
I4    I     I_    0.735964 0.861721 0.786119 -0.339965
I5    I     I_    0.265913 0.667482 0.774211 -0.333026
I6    I     I_    0.758479 0.356998 0.217113 -0.336870
I7    I     I_    0.729401 0.678614 0.223200 -0.289237
I8    I     I_    0.235964 0.361721 0.786120 -0.339965
I9    I     I_    0.403541 0.679587 0.902204 -0.352104
I10   I     I_    0.337266 0.434226 0.982202 -0.315591
I11   I     I_    0.596550 0.677463 0.098876 -0.316366
I12   I     I_    0.118986 0.856086 0.087060 -0.344349
I13   I     I_    0.903543 0.179588 0.902204 -0.352104
I14   I     I_    0.837266 0.934226 0.982202 -0.315590
I15   I     I_    0.096550 0.177463 0.098876 -0.316367
I16   I     I_    0.765913 0.167481 0.774211 -0.333023
O1    O     O_R   0.746490 0.236330 0.638080 -0.618210
O2    O     O_R   0.325830 0.813840 0.483730 -0.637620
O3    O     O_R   0.325830 0.186160 0.483730 -0.634772
O4    O     O_R   0.674170 0.813840 0.516270 -0.628388
O5    O     O_R   0.174170 0.686160 0.516270 -0.625324
O6    O     O_R   0.825830 0.313840 0.483730 -0.637620
O7    O     O_R   0.825830 0.686160 0.483730 -0.634772
O8    O     O_R   0.174170 0.313840 0.516270 -0.628388
O9    O     O_R   0.739960 0.127620 0.525000 -0.628230
O10   O     O_R   0.260040 0.872380 0.475000 -0.615593
O11   O     O_R   0.260040 0.127620 0.475000 -0.626156
O12   O     O_R   0.253510 0.763670 0.361920 -0.608318
O13   O     O_R   0.739960 0.872380 0.525000 -0.613268
O14   O     O_R   0.239960 0.627620 0.525000 -0.628230
O15   O     O_R   0.760040 0.372380 0.475000 -0.615593
O16   O     O_R   0.760040 0.627620 0.475000 -0.626156
O17   O     O_R   0.239960 0.372380 0.525000 -0.613268
O18   O     O_R   0.680700 0.294870 0.629350 -0.623450
O19   O     O_R   0.319300 0.705130 0.370650 -0.618672
O20   O     O_R   0.319300 0.294870 0.370650 -0.620372
O21   O     O_R   0.680700 0.705130 0.629350 -0.634415
O22   O     O_R   0.180700 0.794870 0.629350 -0.623451
O23   O     O_R   0.253510 0.236330 0.361920 -0.588178
O24   O     O_R   0.819300 0.205130 0.370650 -0.618672
O25   O     O_R   0.819300 0.794870 0.370650 -0.620372
O26   O     O_R   0.180700 0.205130 0.629350 -0.634415
O27   O     O_R   0.062020 0.072840 0.007170 -0.583363
O28   O     O_R   0.937980 0.927160 0.992830 -0.594653
O29   O     O_R   0.937980 0.072840 0.992830 -0.580524
O30   O     O_R   0.062020 0.927160 0.007170 -0.585247
O31   O     O_R   0.562020 0.572840 0.007170 -0.583362
O32   O     O_R   0.437980 0.427160 0.992830 -0.594652
O33   O     O_R   0.437980 0.572840 0.992830 -0.580524
O34   O     O_R   0.746490 0.763670 0.638080 -0.613767
O35   O     O_R   0.562020 0.427160 0.007170 -0.585248
O36   O     O_R   0.947860 0.073950 0.109290 -0.616492
O37   O     O_R   0.052140 0.926050 0.890710 -0.626614
O38   O     O_R   0.052140 0.073950 0.890710 -0.614121
O39   O     O_R   0.947860 0.926050 0.109290 -0.627957
O40   O     O_R   0.447860 0.573950 0.109290 -0.616492
O41   O     O_R   0.552140 0.426050 0.890710 -0.626614
O42   O     O_R   0.552140 0.573950 0.890710 -0.614121
O43   O     O_R   0.447860 0.426050 0.109290 -0.627956
O44   O     O_R   0.246490 0.736330 0.638080 -0.618211
O45   O     O_R   0.753510 0.263670 0.361920 -0.608319
O46   O     O_R   0.753510 0.736330 0.361920 -0.588178
O47   O     O_R   0.246490 0.263670 0.638080 -0.613767
O48   O     O_R   0.674170 0.186160 0.516270 -0.625323
Zn1   Zn    Zn3+2 0.792340 0.208750 0.507670 0.963295
Zn2   Zn    Zn3+2 0.494040 0.500000 0.919480 0.984754
Zn3   Zn    Zn3+2 0.005960 0.000000 0.080520 0.994519
Zn4   Zn    Zn3+2 0.994040 0.000000 0.919480 0.984754
Zn5   Zn    Zn3+2 0.207660 0.791250 0.492330 0.958144
Zn6   Zn    Zn3+2 0.207660 0.208750 0.492330 0.977219
Zn7   Zn    Zn3+2 0.792340 0.791250 0.507670 0.941588
Zn8   Zn    Zn3+2 0.292340 0.708750 0.507670 0.963294
Zn9   Zn    Zn3+2 0.707660 0.291250 0.492330 0.958144
Zn10  Zn    Zn3+2 0.707660 0.708750 0.492330 0.977218
Zn11  Zn    Zn3+2 0.292340 0.291250 0.507670 0.941588
Zn12  Zn    Zn3+2 0.505960 0.500000 0.080520 0.994520

loop_
_geom_bond_atom_site_label_1
_geom_bond_atom_site_label_2
_ccdc_geom_bond_type
O1    Zn1   S    
C31   C42   A    
C55   C180  S    
C108  C120  A    
C85   C148  S    
C66   H34   S    
C76   H62   S    
C50   C79   A    
C14   C33   A    
C19   C46   A    
C166  I3    S    
C62   H2    S    
O6    Zn1   S    
C25   H54   S    
C126  H14   S    
C16   C31   A    
C80   H66   S    
C50   C59   A    
O26   Zn6   S    
C52   C61   A    
O37   Zn4   S    
C94   C152  S    
C99   H7    S    
O20   Zn11  S    
O45   Zn9   S    
C91   H94   S    
C103  C126  A    
C131  C140  A    
C13   C51   A    
C44   C53   A    
C97   H4    S    
C162  C171  A    
O25   Zn7   S    
C22   H76   S    
C170  C187  A    
O29   Zn4   S    
C147  C155  A    
C117  C126  A    
C23   H65   S    
C81   C102  S    
C119  C128  A    
C27   H32   S    
C124  H20   S    
C24   C50   A    
C121  H18   S    
C109  C118  A    
C48   C100  A    
C150  C159  A    
C82   H72   S    
C165  C183  A    
C137  C146  A    
C166  C184  A    
C10   O33   A    
C49   C102  A    
C74   H57   S    
C28   H21   S    
O24   Zn1   S    
C56   C174  S    
C77   H59   S    
C94   H107  S    
O47   Zn11  S    
C66   H31   S    
C75   H53   S    
O32   Zn2   S    
C131  C184  A    
C105  C114  A    
O8    Zn6   S    
C146  C154  A    
C68   C72   S    
C118  H29   S    
C174  O2    A    
C163  C172  A    
C112  C158  S    
C89   C150  S    
C131  I10   S    
O44   Zn8   S    
C74   C79   S    
C4    O38   A    
C132  I11   S    
O21   Zn10  S    
C35   C45   A    
C39   C178  A    
C15   C30   A    
C16   C25   A    
C113  H24   S    
C72   C73   S    
C53   C177  S    
C93   H100  S    
C14   C100  A    
C173  O48   A    
C106  C115  A    
C16   C79   A    
C18   C38   A    
C33   C41   A    
C9    O43   A    
C145  C161  S    
C129  I1    S    
O28   Zn4   S    
C78   H69   S    
O27   Zn3   S    
O12   Zn5   S    
C105  C184  S    
C173  O9    A    
C135  I13   S    
C2    C40   A    
C104  C183  S    
C67   H41   S    
C98   C99   S    
C92   H102  S    
C65   H36   S    
C112  O23   A    
C134  C160  S    
C98   C154  S    
C43   C178  A    
C81   H73   S    
C82   H70   S    
C97   H108  S    
O30   Zn3   S    
C10   O40   A    
O5    Zn5   S    
C69   H38   S    
C85   C86   S    
C63   H12   S    
C73   H49   S    
O38   Zn4   S    
C133  C142  A    
C123  C159  S    
C98   H11   S    
C85   H84   S    
C11   C138  S    
C86   H83   S    
C37   C40   A    
C130  C183  A    
C51   C90   A    
C38   C39   A    
C9    C140  S    
C78   C80   S    
C43   C52   A    
C3    C110  S    
C175  O3    A    
O15   Zn9   S    
C169  I5    S    
C73   H48   S    
C20   C35   A    
C171  I7    S    
C2    C44   A    
C22   C25   A    
O33   Zn2   S    
C122  H22   S    
C30   C41   A    
C8    C141  S    
C95   H103  S    
C89   C91   S    
C149  C158  A    
C152  C161  A    
C70   H47   S    
C8    O31   A    
C135  C143  A    
C136  C188  A    
C4    O27   A    
C135  C187  A    
C141  C150  A    
C174  O10   A    
C2    C45   A    
C58   C64   A    
C139  C148  A    
C134  O22   A    
C34   C39   A    
C172  I8    S    
C59   C176  S    
C157  C165  A    
O43   Zn12  S    
C87   H90   S    
O36   Zn3   S    
C83   C84   S    
C92   C151  S    
C54   C181  S    
C84   H78   S    
C61   H98   S    
C19   C28   A    
C179  O6    A    
C116  C125  A    
C9    O32   A    
C118  C127  A    
O41   Zn2   S    
C88   H89   S    
C132  C141  A    
C89   H96   S    
C108  C117  A    
C145  O24   A    
C86   H81   S    
C134  O44   A    
C110  C119  A    
C164  I16   S    
C26   H43   S    
O42   Zn2   S    
C14   C22   A    
C52   C179  S    
C73   H50   S    
C93   H97   S    
O13   Zn7   S    
C55   C61   A    
C85   H85   S    
C91   H93   S    
C148  C157  A    
C71   H45   S    
O7    Zn7   S    
C107  C116  A    
C43   C57   A    
C104  C113  A    
C97   H3    S    
C113  C121  A    
C123  O21   A    
O3    Zn11  S    
C80   H64   S    
O40   Zn12  S    
C51   C60   A    
C127  H17   S    
C140  C149  A    
C167  O26   A    
C64   H13   S    
C34   C37   A    
C24   C42   A    
C13   C41   A    
C107  C186  S    
C171  C188  A    
O2    Zn8   S    
C83   H80   S    
C169  C186  A    
C47   C178  A    
C66   H33   S    
C74   H58   S    
C3    C172  A    
C27   C29   A    
C35   C65   S    
C168  I4    S    
O35   Zn12  S    
C103  C111  A    
C128  H16   S    
C75   H56   S    
C104  C125  A    
C119  H30   S    
C160  C169  A    
C70   C71   S    
C3    C137  A    
C57   C70   S    
O23   Zn6   S    
C96   H6    S    
C101  C157  S    
O34   Zn7   S    
C116  H27   S    
C130  C139  A    
C21   H87   S    
O9    Zn1   S    
C123  O34   A    
C11   O35   A    
C170  I6    S    
C93   H99   S    
C5    C144  S    
C54   C62   A    
C99   H8    S    
C132  C185  A    
C133  I12   S    
O46   Zn10  S    
C18   C57   A    
C96   C153  S    
C59   C64   A    
C87   H91   S    
C6    O29   A    
O14   Zn8   S    
C1    O18   A    
C143  C152  A    
C21   C23   A    
C78   C100  S    
C58   C173  S    
C77   H61   S    
C10   C139  S    
C107  C121  A    
C65   H35   S    
C158  C166  A    
C8    O42   A    
C46   C47   A    
C125  H15   S    
C17   C68   A    
C115  C124  A    
C82   H71   S    
C120  H19   S    
C106  C185  S    
C69   H37   S    
C130  I9    S    
C153  C162  A    
C77   H60   S    
C78   H68   S    
C94   H106  S    
C36   C38   A    
C136  C144  A    
C110  C122  A    
C106  C127  A    
C92   C93   S    
C5    O39   A    
C177  O14   A    
C94   C95   S    
C7    O37   A    
C111  H23   S    
C164  C182  A    
O48   Zn9   S    
C20   C36   A    
C87   C88   S    
C60   C175  S    
C32   C42   A    
C156  O25   A    
C76   H63   S    
C181  O17   A    
C76   C90   S    
C142  C151  A    
C167  O47   A    
C80   H67   S    
C1    O1    A    
C103  C182  S    
C108  C187  S    
O4    Zn10  S    
C81   C82   S    
O19   Zn8   S    
C60   C63   A    
C17   C26   A    
C95   H105  S    
O39   Zn3   S    
O16   Zn10  S    
C159  C168  A    
C70   H46   S    
C144  C153  A    
C1    C155  S    
C88   H86   S    
C129  C138  A    
C92   H101  S    
C71   H44   S    
C72   H52   S    
C84   H75   S    
C176  O13   A    
C11   O41   A    
C15   C23   A    
C156  C162  S    
C81   H74   S    
C12   C32   A    
C114  H25   S    
C6    O36   A    
C69   H39   S    
C20   C29   A    
C109  C188  S    
C181  O8    A    
C89   H95   S    
C74   C75   S    
C98   H10   S    
C154  C163  A    
C36   C40   A    
C76   C77   S    
C86   H82   S    
C165  I2    S    
C145  O45   A    
O18   Zn9   S    
C12   C21   A    
C49   C58   A    
C115  H26   S    
C111  C120  A    
C67   C69   S    
C117  H28   S    
C163  C167  S    
C12   C102  A    
C137  I15   S    
C53   C62   A    
O11   Zn6   S    
C101  O12   A    
C138  C147  A    
C4    C146  S    
C96   C97   S    
C99   H9    S    
C129  C182  A    
C31   C33   A    
C56   C63   A    
C17   C37   A    
C95   H104  S    
O31   Zn12  S    
C179  O15   A    
C133  C186  A    
C83   C147  S    
C161  C170  A    
C175  O11   A    
C45   C54   A    
C176  O4    A    
C44   C68   A    
C7    O30   A    
C47   C55   A    
C101  O19   A    
C136  I14   S    
C24   C49   A    
C48   C56   A    
C96   H5    S    
C168  C185  A    
C105  C128  A    
C18   C27   A    
C19   C34   A    
C13   C48   A    
C109  C124  A    
C180  O16   A    
C155  C164  A    
C26   C28   A    
O17   Zn11  S    
C72   H51   S    
C151  C160  A    
C83   H79   S    
C88   H88   S    
C46   C67   S    
C15   C90   A    
C30   C32   A    
C67   H40   S    
C71   H42   S    
C84   H77   S    
O22   Zn5   S    
C29   H1    S    
O10   Zn5   S    
C91   H92   S    
C75   H55   S    
C112  O20   A    
C114  C122  A    
C177  O5    A    
C156  O46   A    
C65   C66   S    
C87   C149  S    
C5    O28   A    
C6    C143  S    
C7    C142  S    
C180  O7    A    
