data_mof_unit_14488.cif
_audit_creation_date              2013-03-05T16:47:47-0500
_audit_creation_method            fapswitch 2.2
_symmetry_space_group_name_H-M    P1
_symmetry_Int_Tables_number       1
_space_group_crystal_system       triclinic
_cell_length_a                    15.764643
_cell_length_b                    8.936057
_cell_length_c                    8.113962
_cell_angle_alpha                 89.996896
_cell_angle_beta                  90.044001
_cell_angle_gamma                 90.001997
_cell_volume                      1143.04390215

loop_
_atom_site_label
_atom_site_type_symbol
_atom_site_description
_atom_site_fract_x
_atom_site_fract_y
_atom_site_fract_z
_atom_type_partial_charge
O1    O     O_R   0.500000 0.285340 0.636850 -0.613933
O2    O     O_R   0.500000 0.714660 0.363150 -0.614850
O3    O     O_R   0.500000 0.285340 0.363150 -0.612846
O4    O     O_R   0.500000 0.714660 0.636850 -0.614095
C1    C     C_1   0.500001 0.065188 0.500004 -0.166853
C2    C     C_1   0.500000 0.934813 0.499996 -0.167548
C3    C     C_R   0.500001 0.218003 0.500003 0.933674
C4    C     C_R   0.499999 0.781997 0.499997 0.931134
O5    O     O_R   0.376770 0.500000 0.636850 -0.603250
O6    O     O_R   0.623230 0.500000 0.363150 -0.600411
O7    O     O_R   0.376780 0.500000 0.363100 -0.610445
O8    O     O_R   0.623220 0.500000 0.636900 -0.613237
C5    C     C_R   0.337492 0.499948 0.499884 0.893248
C6    C     C_R   0.662507 0.500027 0.500081 0.891920
Zn1   Zn    Zn3+2 0.499990 0.500000 0.682780 1.027328
Zn2   Zn    Zn3+2 0.500010 0.500000 0.317220 1.029360
N1    N     N_1   0.500010 0.500000 0.073640 -0.016157
N2    N     N_1   0.499990 0.500000 0.926360 -0.016306
C7    C     C_3   0.971715 0.415549 0.626881 -0.228760
C8    C     C_3   0.028478 0.578152 0.367188 -0.231760
C9    C     C_3   0.028378 0.353990 0.484882 -0.248779
C10   C     C_3   0.971817 0.639800 0.509122 -0.266957
H1    H     H_    0.052620 0.237942 0.471963 0.193470
H2    H     H_    0.947546 0.755873 0.521620 0.200064
H3    H     H_    0.947477 0.351822 0.734456 0.223604
H4    H     H_    0.052781 0.641869 0.259646 0.220913
C11   C     C_1   0.248797 0.498818 0.499421 -0.123612
C12   C     C_1   0.751202 0.499307 0.500046 -0.118431
C13   C     C_3   0.027467 0.556359 0.634758 0.389645
C14   C     C_3   0.972672 0.437242 0.359084 0.388334
C15   C     C_3   0.083094 0.496417 0.496441 0.013651
C16   C     C_3   0.916939 0.497352 0.497640 -0.001970
C17   C     C_1   0.173706 0.497641 0.498246 0.064152
C18   C     C_1   0.826300 0.498429 0.499229 0.074649
N3    N     N_R   0.943166 0.370860 0.205285 0.220098
O9    O     O_R   0.997991 0.321911 0.098495 -0.342061
O10   O     O_R   0.862543 0.360109 0.173514 -0.383276
N4    N     N_R   0.060115 0.620574 0.787089 0.220126
O11   O     O_R   0.041311 0.757406 0.827518 -0.370680
O12   O     O_R   0.107782 0.540692 0.883933 -0.349155

loop_
_geom_bond_atom_site_label_1
_geom_bond_atom_site_label_2
_geom_bond_distance
_ccdc_geom_bond_type
C13   N4    1.456354 S    
Zn1   N2    1.976399 S    
N4    O12   1.300295 A    
C15   C17   1.428574 S    
O1    Zn1   1.954102 S    
C10   C13   1.537337 S    
O7    C5    1.271398 A    
O7    Zn2   1.978303 S    
C9    C14   1.537893 S    
N3    O9    1.300134 A    
O8    Zn1   1.978306 S    
O4    C4    1.262944 A    
C6    C12   1.398262 S    
O4    Zn1   1.954061 S    
N1    N2    1.195023 T    
O5    Zn1   1.977663 S    
C12   C18   1.183945 T    
C13   C15   1.522201 S    
O6    Zn2   1.977666 S    
C11   C17   1.183854 T    
C14   C16   1.525118 S    
C9    C15   1.540300 S    
N4    O11   1.300302 A    
C10   C16   1.541845 S    
C14   N3    1.457644 S    
C2    C4    1.365572 S    
C7    C16   1.542168 S    
C7    C9    1.558759 S    
C8    C10   1.558634 S    
O3    C3    1.262943 A    
C9    H1    1.110190 S    
C1    C2    1.165041 T    
C7    H3    1.110234 S    
C10   H2    1.110244 S    
C7    C13   1.536133 S    
O2    Zn2   1.954101 S    
O6    C6    1.271526 A    
C1    C3    1.365569 S    
O5    C5    1.271779 A    
C5    C11   1.398286 S    
C8    C14   1.537435 S    
N3    O10   1.300241 A    
O1    C3    1.262961 A    
O2    C4    1.262961 A    
O3    Zn2   1.954062 S    
O8    C6    1.271640 A    
Zn2   N1    1.976399 S    
C8    H4    1.110332 S    
C8    C15   1.540533 S    
C16   C18   1.428988 S    
