data_mof_unit_57296.cif
_audit_creation_date              2012-12-11T15:29:46-0500
_audit_creation_method            fapswitch 2.2
_symmetry_space_group_name_H-M    P1
_symmetry_Int_Tables_number       1
_space_group_crystal_system       triclinic
_cell_length_a                    21.40505
_cell_length_b                    7.233862
_cell_length_c                    14.822283
_cell_angle_alpha                 89.890483
_cell_angle_beta                  74.080671
_cell_angle_gamma                 90.010274
_cell_volume                      2207.07538168

loop_
_atom_site_label
_atom_site_type_symbol
_atom_type_description
_atom_site_fract_x
_atom_site_fract_y
_atom_site_fract_z
_atom_type_partial_charge
O1    O     O_R   0.464160 0.506670 0.130070 -0.537878
O2    O     O_R   0.535840 0.006670 0.869930 -0.532656
O3    O     O_R   0.589710 0.179080 0.006710 -0.543976
O4    O     O_R   0.410290 0.679080 0.993290 -0.542555
C1    C     C_R   0.616434 0.343950 0.001581 0.650119
C2    C     C_R   0.383533 0.844319 0.998814 0.656041
O5    O     O_R   0.467940 0.177220 0.138010 -0.537687
O6    O     O_R   0.532060 0.677220 0.861990 -0.548477
O7    O     O_R   0.413200 0.002810 0.002170 -0.540640
O8    O     O_R   0.586800 0.502810 0.997830 -0.540344
C3    C     C_R   0.454960 0.345336 0.174640 0.687201
C4    C     C_R   0.545043 0.845765 0.825081 0.681728
O9    O     O_3   0.482180 0.337850 0.955280 -0.376684
O10   O     O_3   0.517820 0.837850 0.044720 -0.374506
V1    V     V_3+5 0.503310 0.064600 0.008300 1.375150
V2    V     V_3+5 0.496690 0.564600 0.991700 1.369410
C5    C     C_R   0.571057 0.863099 0.722138 -0.097091
C6    C     C_R   0.427140 0.358225 0.276950 -0.060882
C7    C     C_R   0.928817 0.857462 0.276234 -0.034570
C8    C     C_R   0.071531 0.359965 0.723964 -0.026491
C9    C     C_R   0.569839 0.044909 0.584996 -0.180493
C10   C     C_R   0.431498 0.501374 0.422653 -0.178168
C11   C     C_R   0.541723 0.995447 0.677746 -0.178290
C12   C     C_R   0.457977 0.474595 0.326939 -0.208038
C13   C     C_R   0.630145 0.778362 0.671172 0.066246
C14   C     C_R   0.367239 0.272828 0.323609 0.068306
C15   C     C_R   0.665814 0.864195 0.585202 0.077157
C16   C     C_R   0.333415 0.338800 0.414567 0.054135
C17   C     C_R   0.631883 0.981019 0.538561 0.061644
C18   C     C_R   0.369491 0.433346 0.466946 0.080566
C19   C     C_R   0.733595 0.839768 0.543518 0.035000
C20   C     C_R   0.265276 0.319671 0.455448 0.035154
C21   C     C_R   0.761407 0.881680 0.446186 -0.009092
C22   C     C_R   0.238854 0.342734 0.554423 0.007461
C23   C     C_R   0.718436 0.948318 0.394315 0.132140
C24   C     C_R   0.283511 0.374078 0.608887 0.129083
C25   C     C_R   0.658840 0.024731 0.444347 -0.186206
C26   C     C_R   0.344545 0.448726 0.563922 -0.195078
C27   C     C_R   0.774531 0.786202 0.598651 -0.176766
C28   C     C_R   0.222713 0.296403 0.398784 -0.205319
C29   C     C_R   0.838905 0.741144 0.558245 -0.214234
C30   C     C_R   0.156707 0.269536 0.437979 -0.202778
C31   C     C_R   0.866737 0.770007 0.462894 0.150064
C32   C     C_R   0.129767 0.287192 0.534376 0.152873
C33   C     C_R   0.830242 0.855951 0.407368 0.081316
C34   C     C_R   0.169637 0.337901 0.592828 0.082198
C35   C     C_R   0.931906 0.720769 0.423411 -0.169399
C36   C     C_R   0.062561 0.263275 0.572353 -0.170645
C37   C     C_R   0.961677 0.756243 0.329224 -0.168465
C38   C     C_R   0.034095 0.292270 0.667605 -0.171213
C39   C     C_R   0.865403 0.918738 0.317323 -0.242577
C40   C     C_R   0.137895 0.392698 0.685522 -0.241154
H1    H     H_    0.630150 0.102772 0.407649 0.127924
H2    H     H_    0.375410 0.500476 0.605294 0.126450
H3    H     H_    0.844544 0.011961 0.276875 0.108405
H4    H     H_    0.163680 0.459569 0.729566 0.102759
H5    H     H_    0.010649 0.707167 0.297876 0.105786
H6    H     H_    0.982747 0.264993 0.697103 0.100995
H7    H     H_    0.867761 0.689591 0.602637 0.121345
H8    H     H_    0.126108 0.242674 0.392046 0.118477
H9    H     H_    0.544161 0.139057 0.550764 0.122788
H10   H     H_    0.458622 0.579846 0.461471 0.123000
H11   H     H_    0.496137 0.059138 0.715054 0.124813
H12   H     H_    0.504091 0.538867 0.292315 0.123560
H13   H     H_    0.757566 0.782881 0.674108 0.122106
H14   H     H_    0.240120 0.301063 0.323014 0.119560
H15   H     H_    0.959285 0.650633 0.464885 0.116701
H16   H     H_    0.032204 0.219963 0.528513 0.116229
C41   C     C_3   0.229112 0.770459 0.910720 -0.327196
C42   C     C_3   0.786880 0.159114 0.008365 -0.312415
H17   H     H_    0.211061 0.627929 0.904863 0.135230
H18   H     H_    0.815503 0.074548 0.948570 0.140875
H19   H     H_    0.224561 0.849160 0.848248 0.132314
H20   H     H_    0.792886 0.095574 0.073930 0.135787
C43   C     C_3   0.301717 0.761676 0.910401 -0.326690
C44   C     C_3   0.714460 0.152610 0.010133 -0.314088
H21   H     H_    0.332384 0.831874 0.846907 0.122882
H22   H     H_    0.686040 0.088254 0.077056 0.143878
H23   H     H_    0.317419 0.614509 0.906091 0.145975
H24   H     H_    0.708845 0.062985 0.951869 0.136348
H25   H     H_    0.178042 0.608862 0.085569 0.141978
H26   H     H_    0.832472 0.364857 0.845364 0.120532
H27   H     H_    0.285155 0.599083 0.084783 0.137664
H28   H     H_    0.724851 0.351080 0.846989 0.127274
C45   C     C_3   0.196424 0.752418 0.087066 -0.322429
C46   C     C_3   0.802688 0.443116 0.906735 -0.322030
C47   C     C_3   0.215156 0.061427 0.006097 -0.311760
C48   C     C_3   0.769893 0.473566 0.082543 -0.315454
C49   C     C_3   0.187364 0.863525 0.001685 0.124288
C50   C     C_3   0.812660 0.361375 0.998816 0.119713
H29   H     H_    0.186673 0.133441 0.070602 0.137049
H30   H     H_    0.786513 0.619914 0.078368 0.143074
H31   H     H_    0.210801 0.144586 0.944815 0.140613
H32   H     H_    0.775030 0.415928 0.149810 0.126085
C51   C     C_3   0.312220 0.851803 0.000226 0.120137
C52   C     C_3   0.687764 0.349833 0.000525 0.123045
C53   C     C_3   0.269242 0.745794 0.086350 -0.321070
C54   C     C_3   0.729945 0.435019 0.907418 -0.328297
C55   C     C_3   0.287165 0.054406 0.006333 -0.316697
C56   C     C_3   0.697264 0.468193 0.082741 -0.325296
H33   H     H_    0.316890 0.137286 0.946711 0.140696
H34   H     H_    0.667377 0.411637 0.150804 0.124709
H35   H     H_    0.292356 0.120020 0.071785 0.128353
H36   H     H_    0.680122 0.610998 0.075692 0.142035
H37   H     H_    0.167421 0.817106 0.153406 0.120035
H38   H     H_    0.819557 0.589266 0.898198 0.139742
H39   H     H_    0.275092 0.807543 0.152280 0.124800
H40   H     H_    0.712665 0.577054 0.898179 0.131186
O11   O     O_R   0.913210 0.208550 0.002110 -0.540219
O12   O     O_R   0.086790 0.708550 0.997890 -0.539026
O13   O     O_R   0.032060 0.539960 0.861980 -0.539505
O14   O     O_R   0.967940 0.039960 0.138020 -0.540636
C57   C     C_R   0.043801 0.372400 0.825395 0.687756
C58   C     C_R   0.956302 0.871994 0.174674 0.686734
O15   O     O_R   0.910290 0.538020 0.993280 -0.543769
O16   O     O_R   0.089710 0.038020 0.006720 -0.545007
O17   O     O_R   0.964160 0.712340 0.130090 -0.535001
O18   O     O_R   0.035840 0.212340 0.869910 -0.534466
C59   C     C_R   0.883948 0.369676 0.998029 0.640086
C60   C     C_R   0.116041 0.870122 0.002210 0.640622
O19   O     O_3   0.017820 0.379210 0.044690 -0.376190
O20   O     O_3   0.982180 0.879210 0.955310 -0.374977
V3    V     V_3+5 0.996690 0.652500 0.991710 1.391303
V4    V     V_3+5 0.003310 0.152500 0.008290 1.387923
C61   C     C_3   0.647087 0.583475 0.698303 -0.365884
C62   C     C_3   0.663081 0.448198 0.615673 -0.724427
H41   H     H_    0.624385 0.451414 0.578765 0.226036
H42   H     H_    0.710474 0.479312 0.565016 0.236638
H43   H     H_    0.666091 0.305779 0.642321 0.216146
H44   H     H_    0.686049 0.584102 0.734116 0.153857
H45   H     H_    0.605183 0.518889 0.748734 0.209717
C63   C     C_3   0.347636 0.092169 0.285441 -0.391926
C64   C     C_3   0.390345 0.931655 0.300519 -0.660752
H46   H     H_    0.442812 0.961665 0.271646 0.233455
H47   H     H_    0.380879 0.902965 0.376770 0.215252
H48   H     H_    0.378485 0.805447 0.265916 0.206504
H49   H     H_    0.297724 0.047622 0.321595 0.185390
H50   H     H_    0.349723 0.106683 0.210114 0.170344
C65   C     C_3   0.729944 0.925011 0.288871 -0.368902
C66   C     C_3   0.670988 0.847260 0.262004 -0.776324
H51   H     H_    0.654942 0.714901 0.299347 0.233313
H52   H     H_    0.630023 0.946697 0.277080 0.218876
H53   H     H_    0.684851 0.821858 0.185534 0.205583
H54   H     H_    0.742995 0.060739 0.253449 0.168140
H55   H     H_    0.769009 0.822988 0.260603 0.184930
C67   C     C_3   0.272513 0.307932 0.709494 -0.368577
C68   C     C_3   0.327267 0.181737 0.720593 -0.779223
H56   H     H_    0.335044 0.066486 0.669253 0.235462
H57   H     H_    0.373279 0.259593 0.711370 0.221072
H58   H     H_    0.313592 0.122577 0.792131 0.210175
H59   H     H_    0.268601 0.428716 0.756927 0.169506
H60   H     H_    0.227908 0.222654 0.732488 0.185579

loop_
_geom_bond_atom_site_label_1
_geom_bond_atom_site_label_2
_ccdc_geom_bond_type
C55   H35   S    
C3    C6    S    
C62   H41   S    
C47   H29   S    
C15   C17   A    
C21   C33   A    
C68   H56   S    
O1    C3    A    
C66   H53   S    
O2    C4    A    
C2    O7    A    
O14   C58   A    
C43   C51   S    
C27   C29   A    
C42   C50   S    
C36   C38   A    
O5    C3    A    
C5    C11   A    
C52   C56   S    
C6    C12   A    
C23   C25   A    
C44   H22   S    
O14   V4    S    
C8    C57   S    
C45   H37   S    
C33   C39   A    
C51   C55   S    
C63   H50   S    
C34   C40   A    
C56   H36   S    
C37   H5    S    
C18   C26   A    
C41   H17   S    
C13   C61   S    
O19   V4    S    
C8    C38   A    
C23   C65   S    
C61   H44   S    
C48   H30   S    
C63   C64   S    
C52   C54   S    
C4    C5    S    
C42   H20   S    
C64   H48   S    
C19   C21   A    
C41   H19   S    
C22   C34   A    
C10   C18   A    
C9    H9    S    
C25   H1    S    
C57   O18   A    
C11   H11   S    
C12   H12   S    
C28   H14   S    
C29   C31   A    
C46   H38   S    
C30   C32   A    
C41   C49   S    
C35   H15   S    
C32   C34   A    
C47   C55   S    
C48   H32   S    
C7    C37   A    
O15   V3    S    
C15   C19   A    
C38   H6    S    
C16   C20   A    
C68   H58   S    
C66   H51   S    
C29   H7    S    
C35   C37   A    
C46   C50   S    
O12   C60   A    
C45   C49   S    
O5    V1    S    
C7    C58   S    
C63   H49   S    
H26   C46   S    
C9    C17   A    
O16   C60   A    
C20   C22   A    
O4    V2    S    
O12   V3    S    
C10   H10   S    
C43   H21   S    
C65   H54   S    
C61   H45   S    
C26   H2    S    
C49   C60   S    
O6    C4    A    
C6    C14   A    
C56   H34   S    
O13   C57   A    
O1    V2    S    
O18   V4    S    
C36   H16   S    
O2    V1    S    
C31   C33   A    
C48   C56   S    
C67   H60   S    
C24   C67   S    
C55   H33   S    
C48   C50   S    
O15   C59   A    
C9    C11   A    
C42   C44   S    
C61   C62   S    
C10   C12   A    
O4    C2    A    
C30   H8    S    
C1    C52   S    
C14   C63   S    
O11   C59   A    
C67   C68   S    
O13   V3    S    
C65   H55   S    
C62   H42   S    
O16   V4    S    
C68   H57   S    
C54   H40   S    
C44   H24   S    
C66   H52   S    
O3    C1    A    
C65   C66   S    
C51   C53   S    
O11   V4    S    
C13   C15   A    
C27   H13   S    
C14   C16   A    
C62   H43   S    
H28   C54   S    
C50   C59   S    
C24   C26   A    
O17   V3    S    
C5    C13   A    
C16   C18   A    
C8    C40   A    
C32   C36   A    
O8    V2    S    
C44   C52   S    
C64   H46   S    
C31   C35   A    
C47   H31   S    
C28   C30   A    
C21   C23   A    
C22   C24   A    
C19   C27   A    
C41   C43   S    
C39   H3    S    
C20   C28   A    
O7    V1    S    
C46   C54   S    
C58   O17   A    
C45   C53   S    
C67   H59   S    
C53   H39   S    
C7    C39   A    
C1    O8    A    
O6    V2    S    
C2    C51   S    
H27   C53   S    
O9    V2    S    
C17   C25   A    
C64   H47   S    
C47   C49   S    
O10   V1    S    
O3    V1    S    
C42   H18   S    
O20   V3    S    
C43   H23   S    
H25   C45   S    
C40   H4    S    
