data_mof_unit_50898.cif
_audit_creation_date              2012-12-11T15:34:10-0500
_audit_creation_method            fapswitch 2.2
_symmetry_space_group_name_H-M    P1
_symmetry_Int_Tables_number       1
_space_group_crystal_system       triclinic
_cell_length_a                    15.047274
_cell_length_b                    15.048043
_cell_length_c                    35.010472
_cell_angle_alpha                 90.46862
_cell_angle_beta                  89.830084
_cell_angle_gamma                 60.069438
_cell_volume                      6869.75136528

loop_
_atom_site_label
_atom_site_type_symbol
_atom_type_description
_atom_site_fract_x
_atom_site_fract_y
_atom_site_fract_z
_atom_type_partial_charge
C1    C     C_R   0.302758 0.607950 0.555838 0.538632
C2    C     C_R   0.636746 0.646806 0.672953 0.045701
C3    C     C_R   0.227779 0.672246 0.271821 -0.118334
C4    C     C_R   0.157073 0.661661 0.294678 0.025551
C5    C     C_R   0.079125 0.650437 0.277705 -0.120591
C6    C     C_R   0.070155 0.653032 0.238047 -0.119196
C7    C     C_R   0.140180 0.665162 0.215052 0.029388
C8    C     C_R   0.186834 0.571880 0.356420 -0.122143
C9    C     C_R   0.222275 0.559057 0.393843 -0.130401
C10   C     C_R   0.210517 0.725800 0.392036 -0.127232
C11   C     C_R   0.176133 0.738007 0.354628 -0.126077
C12   C     C_R   0.168489 0.659243 0.336177 0.028681
C13   C     C_R   0.540069 0.684369 0.655934 0.094382
C14   C     C_R   0.239001 0.633921 0.411253 0.022392
C15   C     C_R   0.735368 0.027062 0.943882 0.531688
C16   C     C_R   0.745849 0.722524 0.945248 0.544659
C17   C     C_R   0.039950 0.733121 0.948597 0.531249
C18   C     C_R   0.723410 0.037784 0.053102 0.539064
C19   C     C_R   0.733679 0.734814 0.054883 0.542378
C20   C     C_R   0.026851 0.745174 0.058136 0.553897
C21   C     C_R   0.534782 0.671263 0.616700 -0.125290
C22   C     C_R   0.661514 0.661352 0.791506 0.334647
C23   C     C_R   0.646267 0.652763 0.714600 0.350464
C24   C     C_R   0.756074 0.590780 0.852287 -0.121088
C25   C     C_R   0.775708 0.605178 0.890006 -0.129381
C26   C     C_R   0.625156 0.774727 0.890542 -0.142960
C27   C     C_R   0.605378 0.760215 0.852861 -0.127003
C28   C     C_R   0.672975 0.669732 0.832920 0.033397
C29   C     C_R   0.610448 0.588828 0.555240 0.527972
C30   C     C_R   0.712716 0.698898 0.908942 0.019955
C31   C     C_R   0.724916 0.069523 0.905504 0.011413
C32   C     C_R   0.700936 0.020864 0.876327 -0.145677
C33   C     C_R   0.699172 0.048097 0.838594 -0.152817
C34   C     C_R   0.720420 0.125371 0.828997 0.013577
C35   C     C_R   0.742782 0.177378 0.857853 0.117686
C36   C     C_R   0.745371 0.149463 0.896576 0.046720
C37   C     C_R   0.630706 0.239581 0.774743 -0.112436
C38   C     C_R   0.617004 0.255577 0.735558 -0.107052
C39   C     C_R   0.688186 0.182993 0.709613 0.034813
C40   C     C_R   0.590096 0.300758 0.553688 0.562225
C41   C     C_R   0.775498 0.096175 0.723477 -0.111473
C42   C     C_R   0.788798 0.079913 0.762738 -0.114475
C43   C     C_R   0.715846 0.151054 0.788451 0.025382
C44   C     C_R   0.571315 0.226942 0.654148 -0.133758
C45   C     C_R   0.548984 0.252000 0.615896 -0.155341
C46   C     C_R   0.724546 0.212219 0.604397 0.093605
C47   C     C_R   0.746509 0.186247 0.642979 -0.109703
C48   C     C_R   0.669095 0.197395 0.668251 0.011387
C49   C     C_R   0.623664 0.249262 0.590923 0.061969
C50   C     C_R   0.093654 0.698054 0.911149 0.024708
C51   C     C_R   0.299105 0.610856 0.446462 0.544324
C52   C     C_R   0.093603 0.773896 0.887810 -0.134399
C53   C     C_R   0.112914 0.757528 0.848932 -0.129819
C54   C     C_R   0.132082 0.665212 0.831997 0.014116
C55   C     C_R   0.142730 0.585083 0.855321 -0.093391
C56   C     C_R   0.127946 0.598719 0.895204 0.017267
C57   C     C_R   0.216368 0.564792 0.772302 -0.111156
C58   C     C_R   0.227343 0.559107 0.732611 -0.110963
C59   C     C_R   0.161631 0.643135 0.710008 0.031240
C60   C     C_R   0.082377 0.731349 0.727525 -0.112128
C61   C     C_R   0.070974 0.736790 0.767112 -0.107317
C62   C     C_R   0.608433 0.589974 0.445338 0.557638
C63   C     C_R   0.139353 0.654548 0.789935 0.033794
C64   C     C_R   0.185420 0.723301 0.651702 -0.126850
C65   C     C_R   0.218767 0.715520 0.613960 -0.137800
C66   C     C_R   0.236578 0.546620 0.608802 -0.131112
C67   C     C_R   0.203998 0.554169 0.646585 -0.126506
C68   C     C_R   0.181055 0.641265 0.668640 0.030343
C69   C     C_R   0.247798 0.625700 0.592544 0.020265
C70   C     C_R   0.693578 0.720667 0.091397 0.020539
C71   C     C_R   0.609645 0.804133 0.109576 -0.131486
C72   C     C_R   0.585449 0.796912 0.147521 -0.126640
C73   C     C_R   0.588690 0.301515 0.444062 0.553915
C74   C     C_R   0.644531 0.706079 0.167835 0.030977
C75   C     C_R   0.724070 0.620681 0.148819 -0.123012
C76   C     C_R   0.748182 0.627819 0.110969 -0.129045
C77   C     C_R   0.641367 0.612178 0.225854 -0.120699
C78   C     C_R   0.640951 0.603247 0.265373 -0.118403
C79   C     C_R   0.627733 0.684442 0.289178 0.028196
C80   C     C_R   0.611345 0.776214 0.272996 -0.118920
C81   C     C_R   0.613102 0.784784 0.233339 -0.119615
C82   C     C_R   0.629830 0.702094 0.209425 0.029301
C83   C     C_R   0.550678 0.739470 0.354199 -0.134170
C84   C     C_R   0.623760 0.620761 0.593805 0.009803
C85   C     C_R   0.547632 0.716480 0.392529 -0.158255
C86   C     C_R   0.713773 0.561566 0.385307 0.096758
C87   C     C_R   0.715395 0.585034 0.346818 -0.116517
C88   C     C_R   0.632379 0.671353 0.330818 0.008756
C89   C     C_R   0.626479 0.625096 0.408164 0.056914
C90   C     C_R   0.703428 0.092198 0.089929 0.020891
C91   C     C_R   0.778000 0.111479 0.105832 -0.122833
C92   C     C_R   0.773340 0.136635 0.144443 -0.122973
C93   C     C_R   0.694779 0.141727 0.167470 0.029310
C94   C     C_R   0.615041 0.132480 0.150983 -0.133425
C95   C     C_R   0.720549 0.590377 0.610310 0.003393
C96   C     C_R   0.619200 0.107908 0.112387 -0.132432
C97   C     C_R   0.616537 0.241696 0.225862 -0.138695
C98   C     C_R   0.608212 0.252640 0.265276 -0.126708
C99   C     C_R   0.680063 0.175134 0.288592 0.012687
C100  C     C_R   0.762182 0.087247 0.272166 -0.107196
C101  C     C_R   0.770843 0.074004 0.232303 0.028084
C102  C     C_R   0.696474 0.152914 0.209038 0.036963
C103  C     C_R   0.743268 0.183750 0.353387 -0.102299
C104  C     C_R   0.722934 0.213267 0.392058 0.096275
C105  C     C_R   0.550961 0.238577 0.384287 -0.154932
C106  C     C_R   0.725638 0.601307 0.650031 -0.127339
C107  C     C_R   0.571910 0.209878 0.346135 -0.136816
C108  C     C_R   0.666381 0.186562 0.330154 0.007589
C109  C     C_R   0.623670 0.245992 0.407176 0.047833
C110  C     C_R   0.076828 0.712235 0.095649 0.044533
C111  C     C_R   0.071225 0.633107 0.114634 -0.159707
C112  C     C_R   0.095909 0.614805 0.153059 -0.140304
C113  C     C_R   0.126788 0.675117 0.173356 0.005771
C114  C     C_R   0.139830 0.749142 0.154020 -0.102527
C115  C     C_R   0.116551 0.767525 0.115165 0.101275
C116  C     C_R   0.219857 0.673302 0.232307 -0.120551
Cr1   Cr    Cr6+3 0.421670 0.426920 0.499620 1.004858
Cr2   Cr    Cr6+3 0.427030 0.651190 0.500980 1.006661
Cr3   Cr    Cr6+3 0.651280 0.421870 0.499380 1.065442
Cr4   Cr    Cr6+3 0.910810 0.908010 0.001130 1.020055
Cr5   Cr    Cr6+3 0.682800 0.909890 0.998370 1.008497
Cr6   Cr    Cr6+3 0.908370 0.682300 0.002180 0.999732
H1    H     H_    0.822823 0.162059 0.653492 0.104113
H2    H     H_    0.549816 0.323804 0.725451 0.105289
H3    H     H_    0.572898 0.294046 0.794315 0.104772
H4    H     H_    0.681278 0.008401 0.816624 0.129931
H5    H     H_    0.831055 0.039139 0.703965 0.100401
H6    H     H_    0.854052 0.010344 0.773089 0.102435
H7    H     H_    0.511069 0.233713 0.673060 0.113444
H8    H     H_    0.471026 0.279822 0.606525 0.130809
H9    H     H_    0.460228 0.694783 0.604525 0.137377
H10   H     H_    0.071528 0.849528 0.898973 0.140303
H11   H     H_    0.199943 0.490566 0.658994 0.105417
H12   H     H_    0.289920 0.490707 0.719687 0.100114
H13   H     H_    0.270479 0.500701 0.789225 0.098592
H14   H     H_    0.108659 0.819126 0.831787 0.112687
H15   H     H_    0.030182 0.796532 0.710598 0.100847
H16   H     H_    0.009399 0.806041 0.779967 0.101181
H17   H     H_    0.168728 0.791007 0.668307 0.108245
H18   H     H_    0.843390 0.544943 0.903572 0.129896
H19   H     H_    0.226874 0.777543 0.602277 0.124060
H20   H     H_    0.160249 0.512503 0.842342 0.106772
H21   H     H_    0.258049 0.476471 0.593022 0.124425
H22   H     H_    0.566110 0.876785 0.095225 0.124349
H23   H     H_    0.813284 0.562199 0.097761 0.124945
H24   H     H_    0.780147 0.533467 0.328984 0.101442
H25   H     H_    0.651635 0.532533 0.277456 0.109132
H26   H     H_    0.652511 0.548026 0.208137 0.102657
H27   H     H_    0.522710 0.863355 0.161348 0.099874
H28   H     H_    0.600889 0.839612 0.291031 0.105834
H29   H     H_    0.799669 0.574314 0.663235 0.131532
H30   H     H_    0.605538 0.854455 0.221485 0.099812
H31   H     H_    0.486239 0.806982 0.342255 0.110916
H32   H     H_    0.480230 0.767392 0.409272 0.128939
H33   H     H_    0.771726 0.549942 0.163808 0.101092
H34   H     H_    0.843182 0.101041 0.089053 0.132089
H35   H     H_    0.560442 0.093947 0.100924 0.126126
H36   H     H_    0.512463 0.210520 0.328541 0.113137
H37   H     H_    0.544999 0.321520 0.277690 0.115557
H38   H     H_    0.559213 0.301934 0.208323 0.112108
H39   H     H_    0.833467 0.147170 0.156740 0.102548
H40   H     H_    0.816891 0.027389 0.290530 0.102037
H41   H     H_    0.816938 0.163970 0.340902 0.096431
H42   H     H_    0.552863 0.138221 0.168500 0.106829
H43   H     H_    0.474814 0.261757 0.395058 0.133363
H44   H     H_    0.042333 0.588582 0.100390 0.133336
H45   H     H_    0.161235 0.806293 0.339294 0.103623
H46   H     H_    0.808599 0.519526 0.837857 0.136343
H47   H     H_    0.289798 0.678734 0.284637 0.111748
H48   H     H_    0.275960 0.680675 0.215260 0.102996
H49   H     H_    0.087766 0.555491 0.167207 0.110208
H50   H     H_    0.024395 0.641753 0.295135 0.106250
H51   H     H_    0.007114 0.648073 0.225449 0.102437
H52   H     H_    0.181273 0.510434 0.342379 0.104597
H53   H     H_    0.242898 0.487833 0.408129 0.122741
H54   H     H_    0.164071 0.795859 0.169527 0.095769
H55   H     H_    0.221441 0.785363 0.404865 0.127963
H56   H     H_    0.574884 0.847524 0.904498 0.127269
H57   H     H_    0.539960 0.822096 0.838848 0.135311
H58   H     H_    0.686227 0.958936 0.882691 0.136200
N1    N     N_R   0.735501 0.581902 0.770854 -0.237308
N2    N     N_R   0.727991 0.577604 0.733110 -0.244986
N3    N     N_R   0.572634 0.732353 0.735205 -0.178448
N4    N     N_R   0.580205 0.736704 0.772896 -0.237937
O1    O     O_R   0.502070 0.323090 0.541280 -0.534756
O2    O     O_R   0.520720 0.641670 0.461580 -0.516439
O3    O     O_R   0.674120 0.502090 0.457500 -0.459256
O4    O     O_R   0.640110 0.338380 0.459630 -0.457149
O5    O     O_3   0.499990 0.499990 0.499990 -0.247969
O6    O     O_R   0.017640 0.822070 0.960410 -0.520545
O7    O     O_R   0.822000 0.989470 0.960340 -0.505534
O8    O     O_R   0.666920 0.007430 0.955290 -0.516293
O9    O     O_R   0.694410 0.812480 0.959650 -0.504349
O10   O     O_R   0.831550 0.656950 0.958960 -0.519686
O11   O     O_R   0.998590 0.685540 0.963930 -0.506232
O12   O     O_R   0.338340 0.520690 0.539540 -0.504663
O13   O     O_R   0.008220 0.831200 0.045060 -0.474232
O14   O     O_R   0.813270 0.997930 0.038810 -0.501126
O15   O     O_R   0.657500 0.016560 0.039940 -0.522676
O16   O     O_R   0.685680 0.820940 0.038120 -0.502233
O17   O     O_R   0.822130 0.666070 0.043610 -0.521899
O18   O     O_R   0.989860 0.694000 0.042400 -0.517008
O19   O     O_3   0.833990 0.833400 0.000560 -0.234585
O20   O     O_R   0.324760 0.674070 0.543580 -0.522964
O21   O     O_R   0.522400 0.640310 0.540110 -0.507338
O22   O     O_R   0.675940 0.500630 0.542210 -0.517442
O23   O     O_R   0.641790 0.337020 0.538150 -0.459764
O24   O     O_R   0.500260 0.324550 0.456580 -0.532703
O25   O     O_R   0.336660 0.522040 0.461020 -0.502995
O26   O     O_R   0.322940 0.675540 0.458880 -0.520223
C117  C     C_3   0.819008 0.547121 0.587043 -0.271013
C118  C     C_3   0.867203 0.615507 0.589927 -0.445846
H59   H     H_    0.811495 0.694652 0.580815 0.161550
H60   H     H_    0.892041 0.617876 0.619556 0.153501
H61   H     H_    0.935738 0.584574 0.570949 0.141087
H62   H     H_    0.874307 0.469151 0.597399 0.145341
H63   H     H_    0.806420 0.540360 0.556296 0.174618
C119  C     C_3   0.765418 0.208304 0.927570 -0.255351
C120  C     C_3   0.669014 0.310786 0.936143 -0.431357
H64   H     H_    0.643727 0.359550 0.910355 0.178177
H65   H     H_    0.606127 0.297897 0.946003 0.146016
H66   H     H_    0.685263 0.352078 0.959037 0.135130
H67   H     H_    0.790731 0.165126 0.954560 0.143693
H68   H     H_    0.828598 0.221743 0.918584 0.169438
N5    N     N_3   0.765286 0.256606 0.848161 -0.648402
H69   H     H_    0.701309 0.315772 0.834825 0.233471
H70   H     H_    0.826697 0.226296 0.828778 0.237515
N6    N     N_3   0.804049 0.203633 0.579390 -0.610926
H71   H     H_    0.863832 0.127518 0.579623 0.217610
H72   H     H_    0.832058 0.249570 0.590484 0.230607
C121  C     C_3   0.149570 0.506436 0.919119 -0.271375
C122  C     C_3   0.260392 0.419451 0.914167 -0.454112
H73   H     H_    0.275004 0.387809 0.884616 0.146683
H74   H     H_    0.314482 0.447395 0.920826 0.157431
H75   H     H_    0.275211 0.356403 0.934018 0.139289
H76   H     H_    0.139169 0.524857 0.950020 0.165527
H77   H     H_    0.096319 0.478680 0.910787 0.144925
N7    N     N_3   0.798821 0.470650 0.400292 -0.589760
H78   H     H_    0.807642 0.407874 0.384181 0.237537
H79   H     H_    0.864961 0.475993 0.396562 0.215452
N8    N     N_3   0.447962 0.728867 0.678815 -0.595510
H80   H     H_    0.447022 0.669258 0.693614 0.237318
H81   H     H_    0.382888 0.761573 0.661552 0.218968
C123  C     C_3   0.856569 0.973851 0.215989 -0.273294
C124  C     C_3   0.817550 0.902015 0.203443 -0.421687
H82   H     H_    0.781086 0.885581 0.227948 0.147022
H83   H     H_    0.761209 0.935975 0.180055 0.168041
H84   H     H_    0.882931 0.828601 0.192827 0.149688
H85   H     H_    0.895229 0.987945 0.191731 0.149500
H86   H     H_    0.916898 0.933399 0.237785 0.137987
N9    N     N_3   0.801018 0.213854 0.415426 -0.595867
H87   H     H_    0.867425 0.192688 0.399335 0.209706
H88   H     H_    0.820765 0.157498 0.436134 0.224324
N10   N     N_3   0.129788 0.844345 0.096003 -0.602817
H89   H     H_    0.189110 0.806433 0.076025 0.227382
H90   H     H_    0.153817 0.881776 0.115099 0.210653

loop_
_geom_bond_atom_site_label_1
_geom_bond_atom_site_label_2
_ccdc_geom_bond_type
C92   H39   S    
Cr6   O19   S    
C55   C56   A    
C67   H11   S    
C101  C102  A    
C87   H24   S    
C41   C42   A    
C41   H5    S    
C111  C112  A    
Cr6   O11   S    
N3    N4    A    
Cr1   O24   S    
C66   C69   A    
C73   O4    A    
Cr5   O8    S    
N6    H72   S    
C97   C98   A    
Cr2   O2    S    
C15   O7    A    
C119  H67   S    
C39   C41   A    
C77   C78   A    
C58   H12   S    
C80   H28   S    
C99   C108  S    
C105  C107  A    
C46   C49   A    
C19   O16   A    
C93   C94   A    
C123  H86   S    
C87   C88   A    
C64   C68   A    
Cr6   O17   S    
C24   H46   S    
C27   H57   S    
C34   C35   A    
C22   N1    A    
C45   H8    S    
C3    C116  A    
C31   C36   A    
C5    C6    A    
Cr2   O5    S    
C8    H52   S    
C61   H16   S    
N9    H88   S    
C112  H49   S    
C54   C63   S    
C16   C30   S    
C40   C49   S    
C98   C99   A    
C62   C89   S    
C19   O17   A    
C29   O21   A    
C123  C124  S    
N8    H80   S    
C46   C47   A    
C61   C63   A    
C101  C123  S    
Cr3   O4    S    
Cr5   O15   S    
N10   H90   S    
C16   O9    A    
C103  C104  A    
N5    H70   S    
C110  C111  A    
C47   H1    S    
C21   H9    S    
C14   C51   S    
C53   C54   A    
C8    C9    A    
C18   O14   A    
C47   C48   A    
C50   C52   A    
C107  C108  A    
C118  H61   S    
C9    H53   S    
C103  C108  A    
C4    C12   S    
C37   H3    S    
C97   C102  A    
C42   H6    S    
C60   H15   S    
C62   O2    A    
C96   H35   S    
C85   H32   S    
C114  H54   S    
C83   C88   A    
C40   O23   A    
C59   C60   A    
C55   H20   S    
C22   C28   S    
C124  H82   S    
C11   H45   S    
C15   O8    A    
C53   H14   S    
Cr6   O10   S    
Cr5   O9    S    
C112  C113  A    
C57   C63   A    
N7    H79   S    
C2    C23   S    
C26   H56   S    
C71   H22   S    
C117  H63   S    
C13   N8    S    
C35   N5    S    
C123  H85   S    
C34   C43   S    
C13   C21   A    
C67   C68   A    
C18   C90   S    
C97   H38   S    
C24   C28   A    
N9    H87   S    
Cr2   O21   S    
C66   C67   A    
C24   C25   A    
Cr5   O19   S    
C29   C84   S    
C72   C74   A    
C74   C75   A    
C114  C115  A    
C36   C119  S    
C91   C92   A    
C111  H44   S    
C9    C14   A    
C85   C89   A    
C78   C79   A    
C3    H47   S    
C40   O1    A    
C81   C82   A    
C58   C59   A    
N1    N2    A    
C15   C31   S    
C2    C106  A    
C122  H75   S    
C50   C56   A    
C29   O22   A    
C56   C121  S    
C33   H4    S    
C60   C61   A    
N8    H81   S    
C84   C95   A    
C52   H10   S    
C7    C116  A    
C37   C43   A    
C17   C50   S    
C94   C96   A    
C75   C76   A    
Cr5   O16   S    
C23   N3    A    
C37   C38   A    
C95   C106  A    
Cr4   O6    S    
C59   C68   S    
C120  H65   S    
C65   H19   S    
C51   O25   A    
Cr4   O14   S    
C117  C118  S    
C21   C84   A    
C45   C49   A    
C8    C12   A    
C25   H18   S    
C122  H74   S    
C33   C34   A    
C26   C27   A    
C57   H13   S    
C116  H48   S    
Cr3   O22   S    
C118  H59   S    
C90   C96   A    
C2    C13   A    
C77   H26   S    
C121  H76   S    
C79   C88   S    
C78   H25   S    
C23   N2    A    
C20   C110  S    
C83   C85   A    
C73   O24   A    
C118  H60   S    
C76   H23   S    
C26   C30   A    
C124  H83   S    
C10   C14   A    
Cr4   O7    S    
Cr3   O23   S    
C42   C43   A    
C90   C91   A    
C3    C4    A    
C94   H42   S    
C121  C122  S    
C107  H36   S    
C52   C53   A    
C113  C114  A    
C74   C82   S    
C25   C30   A    
C120  H64   S    
C105  C109  A    
C54   C55   A    
C106  H29   S    
N5    H69   S    
C86   C87   A    
C10   H55   S    
C31   C32   A    
Cr2   O20   S    
C44   C45   A    
Cr3   O5    S    
C80   C81   A    
C39   C48   S    
C86   C89   A    
C93   C102  S    
C100  H40   S    
C11   C12   A    
C119  H68   S    
C6    C7    A    
C83   H31   S    
C6    H51   S    
C17   O6    A    
C81   H30   S    
C103  H41   S    
C22   N4    A    
C99   C100  A    
C121  H77   S    
Cr2   O26   S    
C95   C117  S    
C64   C65   A    
C7    C113  S    
N10   H89   S    
Cr1   O25   S    
C44   H7    S    
C20   O18   A    
C91   H34   S    
Cr1   O12   S    
Cr1   O1    S    
C1    O12   A    
C32   C33   A    
C120  H66   S    
C70   C76   A    
C51   O26   A    
Cr6   O18   S    
C119  C120  S    
C38   C39   A    
C115  N10   S    
C77   C82   A    
C65   C69   A    
N7    H78   S    
C92   C93   A    
C86   N7    S    
C5    H50   S    
C105  H43   S    
C117  H62   S    
C73   C109  S    
C16   O10   A    
C1    C69   S    
C20   O13   A    
C70   C71   A    
C17   O11   A    
C10   C11   A    
N6    H71   S    
C79   C80   A    
Cr4   O13   S    
C75   H33   S    
C4    C5    A    
C71   C72   A    
C98   H37   S    
Cr1   O5    S    
C72   H27   S    
C124  H84   S    
C18   O15   A    
C104  N9    S    
Cr4   O19   S    
C46   N6    S    
C104  C109  A    
C32   H58   S    
C19   C70   S    
C100  C101  A    
C35   C36   A    
Cr3   O3    S    
C57   C58   A    
C1    O20   A    
C110  C115  A    
C66   H21   S    
C38   H2    S    
C44   C48   A    
C122  H73   S    
C62   O3    A    
C27   C28   A    
C64   H17   S    
