data_mof_unit_37240.cif
_audit_creation_date              2012-12-10T17:31:54-0500
_audit_creation_method            fapswitch 2.2
_symmetry_space_group_name_H-M    P1
_symmetry_Int_Tables_number       1
_space_group_crystal_system       triclinic
_cell_length_a                    12.206634
_cell_length_b                    11.522035
_cell_length_c                    12.869523
_cell_angle_alpha                 93.836506
_cell_angle_beta                  94.403349
_cell_angle_gamma                 85.376167
_cell_volume                      1795.46049899

loop_
_atom_site_label
_atom_site_type_symbol
_atom_type_description
_atom_site_fract_x
_atom_site_fract_y
_atom_site_fract_z
_atom_type_partial_charge
C1    C     C_R   0.477719 0.506968 0.299892 0.871731
C2    C     C_R   0.522593 0.493500 0.699743 0.900801
C3    C     C_R   0.046204 0.597322 0.611528 0.109701
C4    C     C_R   0.951125 0.394483 0.391252 0.124499
C5    C     C_R   0.160559 0.597880 0.593860 0.186398
C6    C     C_R   0.838460 0.394853 0.412561 0.166733
C7    C     C_R   0.142123 0.444297 0.460738 0.586135
C8    C     C_R   0.857184 0.557480 0.533476 0.598685
C9    C     C_R   0.023693 0.459773 0.460715 -0.198603
C10   C     C_R   0.975520 0.539774 0.535555 -0.191156
C11   C     C_R   0.500781 0.282311 0.499876 0.860301
C12   C     C_R   0.499299 0.717706 0.500472 0.894579
C13   C     C_1   0.502034 0.161582 0.499920 -0.187527
C14   C     C_1   0.498105 0.838447 0.500506 -0.197417
C15   C     C_1   0.501153 0.059334 0.500106 -0.013633
C16   C     C_1   0.499113 0.940692 0.500365 -0.022094
C17   C     C_R   0.537744 0.479054 0.810586 -0.205242
C18   C     C_R   0.464554 0.512324 0.187227 -0.206018
C19   C     C_R   0.352419 0.479220 0.025852 0.175348
C20   C     C_R   0.651974 0.487331 0.971351 0.201251
C21   C     C_R   0.362999 0.497603 0.134037 -0.316494
C22   C     C_R   0.639665 0.493963 0.863769 -0.296623
C23   C     C_R   0.556359 0.527483 0.132540 0.481011
C24   C     C_R   0.449167 0.448318 0.863368 0.467575
C25   C     C_R   0.554504 0.493962 0.026200 -0.096692
C26   C     C_R   0.450821 0.471637 0.971569 -0.109484
H1    H     H_    0.710400 0.507056 0.821249 0.197511
H2    H     H_    0.291992 0.503089 0.177890 0.191233
N1    N     N_R   0.792200 0.479100 0.480660 -0.164570
N2    N     N_R   0.207800 0.520900 0.519340 -0.168133
O1    O     O_R   0.578300 0.494420 0.341180 -0.590319
O2    O     O_R   0.421700 0.505580 0.658820 -0.590030
O3    O     O_R   0.390690 0.507830 0.353590 -0.654219
O4    O     O_R   0.609310 0.492170 0.646410 -0.604701
O5    O     O_R   0.593810 0.327740 0.493800 -0.636215
O6    O     O_R   0.406190 0.672260 0.506200 -0.639982
O7    O     O_R   0.406190 0.341150 0.506220 -0.564055
O8    O     O_R   0.593810 0.658850 0.493780 -0.563056
Zn1   Zn    Zn3+2 0.625270 0.491050 0.491710 0.969982
Zn2   Zn    Zn3+2 0.374730 0.508950 0.508290 0.956282
O9    O     O_3   0.359986 0.401161 0.807846 -0.618912
C27   C     C_3   0.385542 0.280299 0.789566 -0.297262
H3    H     H_    0.401957 0.236387 0.864284 0.142294
H4    H     H_    0.456838 0.262251 0.740408 0.158938
H5    H     H_    0.313505 0.242029 0.746454 0.200009
O10   O     O_3   0.645327 0.580702 0.182781 -0.619633
C28   C     C_3   0.622696 0.702650 0.182846 -0.321062
H6    H     H_    0.695145 0.745012 0.220857 0.181053
H7    H     H_    0.550646 0.732111 0.228610 0.159311
H8    H     H_    0.609036 0.732063 0.101836 0.157742
C29   C     C_3   0.237569 0.470503 0.969789 -0.288396
C30   C     C_3   0.138803 0.499913 0.036068 -0.997714
H9    H     H_    0.136681 0.434548 0.095312 0.252564
H10   H     H_    0.141531 0.589059 0.074292 0.271570
H11   H     H_    0.061315 0.496921 0.985447 0.269258
H12   H     H_    0.227837 0.531603 0.905853 0.231065
H13   H     H_    0.230388 0.379973 0.936122 0.236186
C31   C     C_3   0.768574 0.470290 0.022374 -0.344255
C32   C     C_3   0.834497 0.365366 0.972192 -0.949927
H14   H     H_    0.789063 0.285666 0.972667 0.270371
H15   H     H_    0.850850 0.380327 0.890772 0.269464
H16   H     H_    0.915165 0.350540 0.017269 0.257233
H17   H     H_    0.812266 0.550388 0.017026 0.205963
H18   H     H_    0.768809 0.451054 0.105300 0.246435
O11   O     O_3   0.805378 0.654280 0.582798 -0.589811
C33   C     C_3   0.813794 0.751179 0.522816 -0.325149
H19   H     H_    0.764918 0.827317 0.557635 0.194310
H20   H     H_    0.779758 0.735357 0.440703 0.176572
H21   H     H_    0.900413 0.774846 0.523643 0.141919
O12   O     O_3   0.189263 0.336414 0.424922 -0.592249
C34   C     C_3   0.238285 0.342978 0.329863 -0.188755
H22   H     H_    0.327367 0.318497 0.337971 0.192582
H23   H     H_    0.219692 0.428063 0.295329 0.116861
H24   H     H_    0.209889 0.274943 0.272347 0.144656
C35   C     C_3   0.771455 0.298406 0.360933 -0.293675
C36   C     C_3   0.790796 0.188105 0.422014 -0.864744
H25   H     H_    0.771775 0.206933 0.504654 0.276440
H26   H     H_    0.737468 0.120432 0.386068 0.236561
H27   H     H_    0.877979 0.152777 0.421949 0.255405
H28   H     H_    0.684143 0.324241 0.350380 0.246818
H29   H     H_    0.788025 0.277150 0.278649 0.166208
C37   C     C_3   0.228949 0.684191 0.659617 -0.330494
C38   C     C_3   0.191658 0.810361 0.636417 -0.936245
H30   H     H_    0.105020 0.833118 0.654896 0.251467
H31   H     H_    0.244764 0.870495 0.684261 0.255421
H32   H     H_    0.199247 0.823666 0.552638 0.276442
H33   H     H_    0.229932 0.670311 0.743974 0.173681
H34   H     H_    0.315450 0.673223 0.647208 0.269378
C39   C     C_3   0.002472 0.646110 0.716050 -0.333578
C40   C     C_3   0.960447 0.550341 0.775879 -0.856762
H35   H     H_    0.889559 0.510431 0.732609 0.268512
H36   H     H_    0.027481 0.481026 0.790412 0.259340
H37   H     H_    0.932882 0.588148 0.851998 0.239604
H38   H     H_    0.064372 0.686610 0.770343 0.191347
H39   H     H_    0.938412 0.718458 0.705755 0.239114
C41   C     C_3   0.982044 0.350472 0.282093 -0.335785
C42   C     C_3   0.011266 0.218229 0.268981 -0.835591
H40   H     H_    0.061653 0.185734 0.337976 0.293487
H41   H     H_    0.937599 0.167956 0.256188 0.242590
H42   H     H_    0.057138 0.198264 0.197940 0.225134
H43   H     H_    0.914019 0.374708 0.223631 0.176451
H44   H     H_    0.047002 0.400541 0.256923 0.176744

loop_
_geom_bond_atom_site_label_1
_geom_bond_atom_site_label_2
_ccdc_geom_bond_type
C33   H20   S    
C4    C9    A    
C41   H44   S    
C18   C21   A    
O9    C27   S    
C36   H27   S    
C7    O12   S    
C42   H40   S    
C1    O3    A    
C6    C35   S    
C28   H7    S    
C1    C18   S    
C8    N1    A    
C19   C21   A    
C36   H26   S    
O7    Zn2   S    
O8    Zn1   S    
C33   H21   S    
C20   C25   A    
C37   H33   S    
C1    O1    A    
C2    O2    A    
C29   H12   S    
C39   H38   S    
C11   O7    A    
C19   C26   A    
C4    C41   S    
O4    Zn1   S    
C28   H6    S    
O12   C34   S    
C29   H13   S    
C12   O6    A    
C9    C10   A    
C30   H11   S    
C2    O4    A    
C23   C25   A    
C33   H19   S    
C8    O11   S    
C23   O10   S    
C41   H43   S    
C2    C17   S    
C24   O9    S    
C27   H4    S    
C42   H41   S    
C30   H10   S    
C28   H8    S    
C31   H18   S    
C32   H15   S    
C17   C24   A    
C18   C23   A    
O3    Zn2   S    
O6    Zn2   S    
C36   H25   S    
C4    C6    A    
C34   H23   S    
C35   H29   S    
C25   C26   A    
C29   C30   S    
C27   H5    S    
C39   H39   S    
O5    Zn1   S    
C35   C36   S    
C40   H36   S    
C38   H30   S    
C41   C42   S    
N1    Zn1   S    
C38   H32   S    
N2    Zn2   S    
C38   H31   S    
C21   H2    S    
C12   C14   S    
C37   C38   S    
C22   H1    S    
C13   C15   T    
C14   C16   T    
C27   H3    S    
C20   C31   S    
C42   H42   S    
C30   H9    S    
C40   H37   S    
C5    N2    A    
C35   H28   S    
C31   H17   S    
C7    C9    A    
O10   C28   S    
C32   H16   S    
C24   C26   A    
C20   C22   A    
C3    C5    A    
C34   H24   S    
C17   C22   A    
C3    C39   S    
C11   O5    A    
C31   C32   S    
C34   H22   S    
C3    C10   A    
C5    C37   S    
C11   C13   S    
C40   H35   S    
C37   H34   S    
O1    Zn1   S    
O2    Zn2   S    
C12   O8    A    
C19   C29   S    
C32   H14   S    
C6    N1    A    
C8    C10   A    
O11   C33   S    
C7    N2    A    
C39   C40   S    
C15   C16   S    
