data_mof_unit_48417.cif
_audit_creation_date              2012-12-10T19:45:17-0500
_audit_creation_method            fapswitch 2.2
_symmetry_space_group_name_H-M    P1
_symmetry_Int_Tables_number       1
_space_group_crystal_system       triclinic
_cell_length_a                    14.849584
_cell_length_b                    14.112414
_cell_length_c                    10.656053
_cell_angle_alpha                 90.235884
_cell_angle_beta                  90.238496
_cell_angle_gamma                 89.264994
_cell_volume                      2232.89799195

loop_
_atom_site_label
_atom_site_type_symbol
_atom_type_description
_atom_site_fract_x
_atom_site_fract_y
_atom_site_fract_z
_atom_type_partial_charge
C1    C     C_R   0.327167 0.500484 0.498873 0.943341
C2    C     C_R   0.532495 0.895342 0.604389 0.333933
C3    C     C_R   0.471868 0.895728 0.393142 0.330208
C4    C     C_R   0.529943 0.795524 0.602941 -0.112023
C5    C     C_R   0.472170 0.795835 0.395877 -0.146094
C6    C     C_R   0.502189 0.947014 0.498904 -0.114651
C7    C     C_R   0.499440 0.499608 0.262168 1.022655
C8    C     C_R   0.494231 0.500155 0.737875 0.991088
C9    C     C_2   0.458793 0.423516 0.935347 0.396856
C10   C     C_2   0.443419 0.437318 0.069683 0.382987
C11   C     C_2   0.472010 0.502070 0.867966 -0.519073
C12   C     C_R   0.673111 0.499300 0.496740 0.918243
C13   C     C_2   0.498568 0.496715 0.129725 -0.477074
C14   C     C_R   0.098498 0.546641 0.368120 -0.358986
C15   C     C_R   0.913054 0.571020 0.461569 -0.401356
C16   C     C_R   0.187500 0.562646 0.400563 0.482180
C17   C     C_R   0.821188 0.578636 0.483140 0.493088
C18   C     C_R   0.230811 0.499634 0.483852 -0.234393
C19   C     C_R   0.769266 0.496368 0.473447 -0.187520
C20   C     C_R   0.182931 0.427711 0.542656 -0.408307
C21   C     C_R   0.808349 0.410213 0.433197 -0.420732
C22   C     C_R   0.091170 0.419566 0.521708 0.558996
C23   C     C_R   0.049487 0.477897 0.431219 0.003502
C24   C     C_R   0.899659 0.404081 0.404645 0.555380
C25   C     C_3   0.510651 0.267219 0.948697 0.090070
C26   C     C_3   0.612054 0.284313 0.933758 -0.346545
C27   C     C_3   0.667122 0.221346 0.022193 -1.002348
C28   C     C_3   0.297227 0.385216 0.073258 0.080670
C29   C     C_3   0.224488 0.356499 0.165888 -0.285269
C30   C     C_3   0.130553 0.368663 0.109485 -1.008045
C31   C     C_3   0.218170 0.720334 0.420860 0.129071
C32   C     C_3   0.146112 0.784833 0.361083 -0.395961
C33   C     C_3   0.130632 0.874696 0.438665 -0.971619
C34   C     C_R   0.952210 0.484403 0.425545 -0.006448
C35   C     C_3   0.792760 0.737755 0.445005 0.099737
C36   C     C_3   0.849343 0.816552 0.503604 -0.359424
C37   C     C_3   0.850983 0.904129 0.420106 -0.975642
C38   C     C_3   0.016618 0.397040 0.705044 0.060382
C39   C     C_3   0.944009 0.336717 0.765519 -0.279039
C40   C     C_3   0.908811 0.382301 0.886146 -1.019365
C41   C     C_3   0.905933 0.279627 0.264207 0.039571
C42   C     C_3   0.955878 0.186613 0.235224 -0.284358
C43   C     C_3   0.924091 0.143033 0.111760 -0.999319
C44   C     C_3   0.658806 0.948925 0.699625 0.086996
C45   C     C_R   0.546849 0.104543 0.406046 -0.247686
C46   C     C_3   0.692258 0.020493 0.796345 -0.317667
C47   C     C_3   0.793958 0.033302 0.787907 -0.970751
C48   C     C_3   0.352440 0.962734 0.291824 0.083215
C49   C     C_3   0.326460 0.031656 0.187119 -0.301213
C50   C     C_3   0.226062 0.056352 0.190382 -0.987355
C51   C     C_R   0.456340 0.105115 0.593236 -0.256001
C52   C     C_R   0.545281 0.204138 0.408351 -0.001238
C53   C     C_R   0.455661 0.204674 0.591326 0.000109
C54   C     C_R   0.502107 0.053493 0.499518 0.199622
H1    H     H_    0.553174 0.756404 0.684150 0.170095
H2    H     H_    0.420338 0.068654 0.666418 0.162231
H3    H     H_    0.580498 0.242935 0.336767 0.120716
H4    H     H_    0.419314 0.243776 0.662784 0.170006
H5    H     H_    0.495963 0.195736 0.910255 0.152585
H6    H     H_    0.491434 0.264332 0.049251 0.176711
H7    H     H_    0.631852 0.269250 0.835112 0.229623
H8    H     H_    0.628142 0.359365 0.954969 0.216344
H9    H     H_    0.655062 0.242812 0.121145 0.260298
H10   H     H_    0.739823 0.228863 0.001663 0.268423
H11   H     H_    0.648639 0.145929 0.010239 0.269680
H12   H     H_    0.449393 0.756957 0.314319 0.180084
H13   H     H_    0.298084 0.333799 0.993841 0.164538
H14   H     H_    0.280064 0.457501 0.037292 0.136533
H15   H     H_    0.235235 0.281468 0.194121 0.223367
H16   H     H_    0.229497 0.401388 0.251165 0.246582
H17   H     H_    0.119893 0.442327 0.075667 0.266771
H18   H     H_    0.079726 0.354814 0.182658 0.287980
H19   H     H_    0.120995 0.318249 0.030348 0.265592
H20   H     H_    0.282515 0.759393 0.424192 0.155397
H21   H     H_    0.200548 0.705547 0.520782 0.117943
H22   H     H_    0.167387 0.804467 0.264874 0.226849
H23   H     H_    0.464909 0.572036 0.910413 0.131678
H24   H     H_    0.081182 0.747240 0.354207 0.216565
H25   H     H_    0.104115 0.856445 0.532724 0.266496
H26   H     H_    0.080623 0.921238 0.390492 0.276153
H27   H     H_    0.194312 0.914087 0.450275 0.256140
H28   H     H_    0.723913 0.766256 0.426112 0.168146
H29   H     H_    0.821633 0.716958 0.352042 0.115194
H30   H     H_    0.821069 0.836631 0.596372 0.223905
H31   H     H_    0.919508 0.790804 0.518523 0.217805
H32   H     H_    0.881305 0.886265 0.327724 0.269629
H33   H     H_    0.892073 0.959851 0.465689 0.269586
H34   H     H_    0.547952 0.539522 0.081752 0.102926
H35   H     H_    0.781622 0.932555 0.405566 0.258150
H36   H     H_    0.988385 0.470009 0.691454 0.138681
H37   H     H_    0.075837 0.400555 0.769298 0.134378
H38   H     H_    0.886925 0.328346 0.698679 0.240584
H39   H     H_    0.972236 0.265251 0.787069 0.220584
H40   H     H_    0.964305 0.390392 0.955287 0.271826
H41   H     H_    0.856405 0.336859 0.927637 0.265914
H42   H     H_    0.878349 0.452957 0.866075 0.275043
H43   H     H_    0.915814 0.330045 0.185395 0.140225
H44   H     H_    0.833069 0.263655 0.272403 0.138152
H45   H     H_    0.065486 0.591844 0.299650 0.170672
H46   H     H_    0.029431 0.199287 0.229774 0.233507
H47   H     H_    0.944208 0.135460 0.312380 0.228258
H48   H     H_    0.851375 0.126128 0.116927 0.271202
H49   H     H_    0.962475 0.076413 0.093347 0.271605
H50   H     H_    0.935575 0.192559 0.032889 0.273165
H51   H     H_    0.679683 0.973542 0.604698 0.141495
H52   H     H_    0.690527 0.878611 0.719172 0.143640
H53   H     H_    0.658158 0.089943 0.779886 0.234651
H54   H     H_    0.674962 0.995724 0.892033 0.225398
H55   H     H_    0.829600 0.964972 0.805793 0.264249
H56   H     H_    0.955110 0.631446 0.481190 0.167021
H57   H     H_    0.815864 0.085809 0.859300 0.273821
H58   H     H_    0.812560 0.059655 0.693511 0.270796
H59   H     H_    0.333943 0.996314 0.383336 0.136665
H60   H     H_    0.314037 0.896203 0.279059 0.144995
H61   H     H_    0.365709 0.097809 0.197916 0.229957
H62   H     H_    0.343107 0.999260 0.094687 0.226859
H63   H     H_    0.185404 0.991364 0.178585 0.271801
H64   H     H_    0.209242 0.105909 0.112818 0.266756
H65   H     H_    0.208339 0.091095 0.280872 0.270774
H66   H     H_    0.216175 0.379825 0.607865 0.186489
H67   H     H_    0.768349 0.346786 0.427273 0.185205
H68   H     H_    0.583453 0.067681 0.332535 0.162896
N1    N     N_R   0.500000 0.252470 0.500000 -0.089371
N2    N     N_R   0.500000 0.747550 0.500000 -0.135938
O1    O     O_R   0.369060 0.579480 0.500010 -0.602379
O2    O     O_3   0.381299 0.384027 0.135740 -0.630646
O3    O     O_3   0.232419 0.637557 0.346967 -0.633337
O4    O     O_3   0.784520 0.662077 0.531227 -0.633173
O5    O     O_3   0.042328 0.354900 0.589874 -0.604885
O6    O     O_3   0.940668 0.317553 0.377169 -0.609180
O7    O     O_3   0.564289 0.942202 0.709268 -0.640566
O8    O     O_3   0.445631 0.942516 0.285046 -0.638033
O9    O     O_R   0.630940 0.579480 0.499990 -0.577339
O10   O     O_R   0.369050 0.420520 0.500010 -0.615884
O11   O     O_R   0.630950 0.420520 0.499990 -0.644042
O12   O     O_R   0.500000 0.579460 0.319080 -0.632140
O13   O     O_R   0.500000 0.579460 0.680920 -0.638764
O14   O     O_R   0.499990 0.420500 0.319080 -0.586834
O15   O     O_R   0.500010 0.420500 0.680920 -0.567890
O16   O     O_3   0.458469 0.333879 0.879513 -0.641528
Zn1   Zn    Zn3+2 0.500000 0.606140 0.500000 0.950252
Zn2   Zn    Zn3+2 0.500000 0.393860 0.500000 0.967292

loop_
_geom_bond_atom_site_label_1
_geom_bond_atom_site_label_2
_ccdc_geom_bond_type
C50   H63   S    
C41   C42   S    
C35   C36   S    
C31   O3    S    
C3    C6    A    
C30   H17   S    
C14   H45   S    
C44   H51   S    
C44   O7    S    
C5    N2    A    
C4    N2    A    
C1    C18   S    
C29   C30   S    
C8    O15   A    
C36   C37   S    
C28   H14   S    
C26   H7    S    
C1    O1    A    
C38   C39   S    
C9    O16   S    
C47   H58   S    
N1    Zn2   S    
C51   H2    S    
C43   H50   S    
C39   H39   S    
C11   H23   S    
C12   C19   S    
C17   C19   A    
O11   Zn2   S    
O1    Zn1   S    
C12   O11   A    
C46   H54   S    
C25   H6    S    
C9    C10   S    
C15   C34   A    
C18   C20   A    
C15   H56   S    
C2    C6    A    
C40   H42   S    
C35   H28   S    
C44   C46   S    
C29   H15   S    
C22   C23   A    
C3    O8    S    
C38   O5    S    
C37   H32   S    
C28   H13   S    
C53   N1    A    
C39   C40   S    
C30   H19   S    
C35   H29   S    
C33   H25   S    
C31   H20   S    
C45   C52   A    
C25   C26   S    
C47   H55   S    
C38   H37   S    
C24   C34   A    
C50   H65   S    
C8    O13   A    
C51   C53   A    
C14   C23   A    
C2    C4    A    
O12   Zn1   S    
C27   H11   S    
C42   H46   S    
O10   Zn2   S    
C31   H21   S    
C31   C32   S    
C23   C34   S    
C46   H53   S    
C25   O16   S    
C2    O7    S    
C26   C27   S    
C17   O4    S    
C9    C11   D    
C27   H9    S    
C48   C49   S    
C49   H61   S    
C20   C22   A    
C45   C54   A    
C6    C54   S    
C12   O9    A    
C4    H1    S    
O14   Zn2   S    
C45   H68   S    
C41   H43   S    
N2    Zn1   S    
C42   C43   S    
C40   H41   S    
C1    O10   A    
C42   H47   S    
C39   H38   S    
C20   H66   S    
C52   H3    S    
C48   H60   S    
C29   H16   S    
C15   C17   A    
O13   Zn1   S    
C46   C47   S    
C28   C29   S    
C19   C21   A    
C50   H64   S    
C37   H33   S    
C40   H40   S    
C5    H12   S    
C3    C5    A    
C10   C13   D    
C32   H22   S    
C7    O14   A    
C30   H18   S    
C53   H4    S    
C33   H26   S    
C44   H52   S    
C36   H31   S    
C28   O2    S    
C38   H36   S    
O9    Zn1   S    
C37   H35   S    
C51   C54   A    
C32   C33   S    
C26   H8    S    
C43   H48   S    
C7    O12   A    
C22   O5    S    
C41   O6    S    
O15   Zn2   S    
C36   H30   S    
C8    C11   S    
C47   H57   S    
C13   H34   S    
C52   N1    A    
C14   C16   A    
C21   H67   S    
C35   O4    S    
C16   O3    S    
C43   H49   S    
C27   H10   S    
C32   H24   S    
C24   O6    S    
C7    C13   S    
C49   H62   S    
C16   C18   A    
C49   C50   S    
C21   C24   A    
C41   H44   S    
C48   O8    S    
C25   H5    S    
C10   O2    S    
C33   H27   S    
C48   H59   S    
