data_mof_unit_35834.cif
_audit_creation_date              2012-12-10T19:08:07-0500
_audit_creation_method            fapswitch 2.2
_symmetry_space_group_name_H-M    P1
_symmetry_Int_Tables_number       1
_space_group_crystal_system       triclinic
_cell_length_a                    9.057123
_cell_length_b                    10.84287
_cell_length_c                    9.559156
_cell_angle_alpha                 90.118903
_cell_angle_beta                  90.102422
_cell_angle_gamma                 89.876372
_cell_volume                      938.75319707

loop_
_atom_site_label
_atom_site_type_symbol
_atom_type_description
_atom_site_fract_x
_atom_site_fract_y
_atom_site_fract_z
_atom_type_partial_charge
C1    C     C_R   0.501041 0.262235 0.499301 0.832198
C2    C     C_R   0.508205 0.933499 0.370238 -0.332451
C3    C     C_R   0.513510 0.870218 0.498074 -0.162745
C4    C     C_R   0.537481 0.936807 0.620733 0.142615
C5    C     C_3   0.461382 0.931053 0.758975 -0.442177
C6    C     C_3   0.461931 0.071151 0.758090 -0.458577
C7    C     C_R   0.606774 0.439281 0.073902 0.290262
C8    C     C_R   0.387684 0.553984 0.074206 -0.108581
C9    C     C_R   0.387480 0.553573 0.925555 -0.069678
C10   C     C_R   0.608287 0.441533 0.926596 0.155587
C11   C     C_3   0.770699 0.467246 0.922708 0.173331
C12   C     C_R   0.220738 0.499869 0.499849 0.830829
C13   C     C_3   0.769534 0.461924 0.081902 -0.324507
C14   C     C_R   0.501854 0.737434 0.499958 0.818301
C15   C     C_R   0.779248 0.499769 0.500044 0.862293
C16   C     C_1   0.065581 0.499612 0.499552 -0.212276
C17   C     C_1   0.934378 0.499556 0.499781 -0.192664
C18   C     C_R   0.537527 0.063629 0.619480 0.058916
C19   C     C_R   0.511938 0.128660 0.495774 -0.193672
C20   C     C_R   0.503260 0.062478 0.367799 0.466883
Cu1   Cu    Cu3+1 0.499990 0.499980 0.640670 0.965612
Cu2   Cu    Cu3+1 0.500010 0.500020 0.359330 0.975661
H1    H     H_    0.797578 0.551115 0.132998 0.174366
H2    H     H_    0.500289 0.883663 0.272210 0.177468
H3    H     H_    0.348770 0.890803 0.751703 0.186186
H4    H     H_    0.533130 0.890907 0.841742 0.214913
H5    H     H_    0.349604 0.112385 0.751196 0.197575
H6    H     H_    0.534771 0.111475 0.839867 0.212761
H7    H     H_    0.298540 0.599094 0.129496 0.137230
H8    H     H_    0.298279 0.598286 0.870082 0.127246
H9    H     H_    0.831842 0.391893 0.867921 0.069785
N1    N     N_R   0.500920 0.500930 0.147930 -0.189480
N2    N     N_R   0.500930 0.500890 0.852020 -0.159730
O1    O     O_R   0.500000 0.319640 0.618810 -0.601868
O2    O     O_R   0.500020 0.319680 0.381230 -0.501981
O3    O     O_R   0.288380 0.499980 0.618770 -0.598257
O4    O     O_R   0.288400 0.500020 0.381190 -0.596466
O5    O     O_R   0.499980 0.680320 0.618770 -0.562701
O6    O     O_R   0.500000 0.680360 0.381190 -0.591961
O7    O     O_R   0.711600 0.499980 0.618810 -0.543654
O8    O     O_R   0.711620 0.500020 0.381230 -0.575233
O9    O     O_3   0.490553 0.123898 0.241161 -0.526889
C21   C     C_3   0.353603 0.096349 0.176846 0.068954
H10   H     H_    0.263839 0.077329 0.253831 0.124435
H11   H     H_    0.366878 0.014933 0.107039 0.146535
C22   C     C_3   0.304752 0.206008 0.088899 -0.760242
H12   H     H_    0.391813 0.230448 0.012391 0.238893
H13   H     H_    0.201853 0.182906 0.031292 0.187921
H14   H     H_    0.283211 0.286827 0.157504 0.252232
O10   O     O_3   0.798817 0.587586 0.872819 -0.523380
C23   C     C_3   0.952708 0.606692 0.864818 0.082096
H15   H     H_    0.006883 0.535242 0.798600 0.148075
H16   H     H_    0.003304 0.605306 0.971015 0.114318
C24   C     C_3   0.981506 0.732111 0.799426 -0.771493
H17   H     H_    0.931832 0.805961 0.864976 0.246021
H18   H     H_    0.102186 0.748198 0.791286 0.181099
H19   H     H_    0.932299 0.735903 0.692996 0.247705
C25   C     C_2   0.857505 0.354738 0.138111 0.330725
H20   H     H_    0.976661 0.354616 0.126499 0.055032
O11   O     O_2   0.797623 0.268757 0.197597 -0.493397

loop_
_geom_bond_atom_site_label_1
_geom_bond_atom_site_label_2
_ccdc_geom_bond_type
C7    C10   A    
C20   O9    S    
C21   H10   S    
C13   C25   S    
C14   O5    A    
C21   H11   S    
C19   C20   A    
Cu1   O1    S    
C6    H5    S    
C23   C24   S    
C4    C18   A    
O10   C23   S    
C25   H20   S    
C11   H9    S    
Cu1   O3    S    
Cu1   Cu2   S    
C9    N2    A    
Cu2   O2    S    
C11   C13   S    
C22   H14   S    
C13   H1    S    
Cu1   O5    S    
C3    C14   S    
Cu2   N1    S    
C9    H8    S    
C5    H3    S    
C8    H7    S    
C1    O1    A    
C2    C3    A    
C10   N2    A    
C22   H13   S    
C2    H2    S    
C5    C6    S    
C6    C18   S    
C21   C22   S    
C24   H18   S    
C15   O7    A    
C1    C19   S    
Cu2   O8    S    
C12   O3    A    
O9    C21   S    
Cu2   O6    S    
C15   O8    A    
C2    C20   A    
C23   H15   S    
C8    N1    A    
C12   C16   S    
C7    C13   S    
Cu1   N2    S    
C1    O2    A    
C18   C19   A    
C10   C11   S    
C12   O4    A    
C15   C17   S    
C11   O10   S    
C22   H12   S    
C8    C9    A    
C7    N1    A    
C14   O6    A    
C24   H17   S    
Cu2   O4    S    
C25   O11   D    
C6    H6    S    
C3    C4    A    
C5    H4    S    
C16   C17   T    
C4    C5    S    
C23   H16   S    
C24   H19   S    
Cu1   O7    S    
