data_mof_unit_65687.cif
_audit_creation_date              2012-12-10T19:34:04-0500
_audit_creation_method            fapswitch 2.2
_symmetry_space_group_name_H-M    P1
_symmetry_Int_Tables_number       1
_space_group_crystal_system       triclinic
_cell_length_a                    18.804085
_cell_length_b                    18.619229
_cell_length_c                    18.675809
_cell_angle_alpha                 109.108436
_cell_angle_beta                  110.014002
_cell_angle_gamma                 109.319089
_cell_volume                      5031.5254495

loop_
_atom_site_label
_atom_site_type_symbol
_atom_type_description
_atom_site_fract_x
_atom_site_fract_y
_atom_site_fract_z
_atom_type_partial_charge
C1    C     C_R   0.619572 0.620457 0.499712 0.878698
C2    C     C_R   0.826967 0.749884 0.514719 0.144534
C3    C     C_3   0.844934 0.686114 0.461648 -0.501248
C4    C     C_R   0.379354 0.499810 0.379001 0.872631
C5    C     C_3   0.773308 0.614683 0.458770 -0.471080
C6    C     C_R   0.755931 0.496471 0.681504 0.136746
C7    C     C_R   0.686349 0.500715 0.688368 -0.102219
C8    C     C_R   0.682369 0.506436 0.763874 -0.217506
C9    C     C_R   0.747358 0.505871 0.828796 -0.218947
C10   C     C_R   0.817373 0.502370 0.819119 -0.091920
C11   C     C_R   0.819630 0.499023 0.745001 0.127459
C12   C     C_3   0.188079 0.416169 0.191454 -0.183226
C13   C     C_3   0.868649 0.492047 0.697535 -0.491850
C14   C     C_3   0.796012 0.490264 0.625001 -0.492195
C15   C     C_R   0.298668 0.230402 0.469849 0.089966
C16   C     C_R   0.379366 0.379799 0.499402 0.894422
C17   C     C_R   0.311811 0.314597 0.498235 -0.123224
C18   C     C_R   0.257956 0.335319 0.528188 -0.250727
C19   C     C_R   0.192756 0.271101 0.528833 0.086278
C20   C     C_R   0.183773 0.186756 0.500654 -0.099333
C21   C     C_R   0.238268 0.169646 0.472485 0.014380
C22   C     C_3   0.260620 0.101106 0.437262 -0.120405
C23   C     C_3   0.217250 0.460562 0.290359 -0.222841
C24   C     C_3   0.330844 0.171570 0.435312 -0.436581
C25   C     C_R   0.003757 0.620427 0.123491 0.936975
C26   C     C_R   0.124400 0.499585 0.124291 0.927517
C27   C     C_R   0.004613 0.379948 0.884745 0.873067
C28   C     C_R   0.620878 0.500267 0.621225 0.887053
C29   C     C_R   0.883200 0.500418 0.883199 0.875452
C30   C     C_R   0.999709 0.120338 0.619373 0.895319
C31   C     C_R   0.880181 0.879854 0.500295 0.875067
C32   C     C_R   0.000784 0.880010 0.380444 0.870574
C33   C     C_R   0.119467 0.119646 0.499668 0.905271
C34   C     C_3   0.312275 0.499183 0.311565 0.018837
C35   C     C_R   0.927341 0.690827 0.171003 0.074774
C36   C     C_R   0.004078 0.688113 0.187705 -0.069798
C37   C     C_R   0.083481 0.757650 0.262516 -0.150584
C38   C     C_R   0.083047 0.822010 0.326420 -0.233961
C39   C     C_R   0.003449 0.817769 0.313455 -0.097041
C40   C     C_3   0.315771 0.582734 0.312097 -0.237752
C41   C     C_R   0.927189 0.755682 0.232952 0.152727
C42   C     C_3   0.839798 0.694146 0.214115 -0.486846
C43   C     C_3   0.840187 0.622468 0.145812 -0.474271
C44   C     C_R   0.927546 0.243999 0.746291 0.129390
C45   C     C_R   0.762399 0.685239 0.512448 0.106391
C46   C     C_R   0.004950 0.314630 0.819399 -0.094121
C47   C     C_R   0.084213 0.322288 0.825917 -0.224756
C48   C     C_R   0.082923 0.257838 0.759605 -0.205293
C49   C     C_R   0.002402 0.187643 0.685794 -0.097607
C50   C     C_R   0.926339 0.184106 0.681277 0.128024
C51   C     C_3   0.829257 0.132056 0.627984 -0.495168
C52   C     C_3   0.219724 0.543431 0.288892 0.062373
C53   C     C_3   0.830657 0.201666 0.702163 -0.485369
C54   C     C_3   0.191135 0.499554 0.191602 0.010580
C55   C     C_3   0.286531 0.538154 0.213354 -0.189082
C56   C     C_R   0.686814 0.688090 0.502807 -0.086577
C57   C     C_3   0.284355 0.454674 0.214060 -0.152608
C58   C     C_2   0.184855 0.593453 0.332820 0.343651
C59   C     C_R   0.680774 0.762004 0.505652 -0.214984
C60   C     C_R   0.744894 0.826126 0.505273 -0.221529
C61   C     C_R   0.815868 0.817102 0.504906 -0.089226
H1    H     H_    0.910993 0.696527 0.500143 0.211255
H2    H     H_    0.266084 0.400537 0.550332 0.162661
H3    H     H_    0.369344 0.650672 0.363047 0.138163
H4    H     H_    0.207254 0.044252 0.371536 0.162828
H5    H     H_    0.399318 0.194553 0.483140 0.201004
H6    H     H_    0.317341 0.156604 0.367818 0.186653
H7    H     H_    0.144636 0.759449 0.273479 0.172596
H8    H     H_    0.143857 0.873125 0.386373 0.161692
H9    H     H_    0.842770 0.684450 0.270494 0.191687
H10   H     H_    0.789193 0.710409 0.185138 0.206167
H11   H     H_    0.843507 0.571191 0.162649 0.223269
H12   H     H_    0.715270 0.568118 0.391790 0.216504
H13   H     H_    0.313546 0.569717 0.180477 0.152011
H14   H     H_    0.789801 0.597337 0.077396 0.193778
H15   H     H_    0.146254 0.376809 0.882130 0.156437
H16   H     H_    0.144023 0.263125 0.765445 0.163490
H17   H     H_    0.803469 0.132515 0.565062 0.210683
H18   H     H_    0.803112 0.066321 0.622529 0.197136
H19   H     H_    0.806469 0.242931 0.682356 0.197656
H20   H     H_    0.804556 0.175945 0.739014 0.212445
H21   H     H_    0.312575 0.418258 0.184879 0.146654
H22   H     H_    0.134438 0.348254 0.140601 0.145156
H23   H     H_    0.798024 0.583650 0.495304 0.195624
H24   H     H_    0.190856 0.429200 0.323704 0.132069
H25   H     H_    0.624624 0.767656 0.503453 0.153662
H26   H     H_    0.738150 0.881080 0.503096 0.153278
H27   H     H_    0.828592 0.680904 0.396400 0.191924
H28   H     H_    0.212396 0.622241 0.403300 0.067002
H29   H     H_    0.075334 0.258924 0.505565 0.197993
H30   H     H_    0.159094 0.358558 0.586232 0.178939
H31   H     H_    0.341176 0.131305 0.563569 0.207695
H32   H     H_    0.246922 0.035322 0.504607 0.200990
H33   H     H_    0.628868 0.509707 0.771766 0.160178
H34   H     H_    0.743490 0.508952 0.886210 0.151912
H35   H     H_    0.933286 0.552149 0.732288 0.213495
H36   H     H_    0.869249 0.429153 0.677139 0.197968
H37   H     H_    0.818557 0.549755 0.618466 0.195787
H38   H     H_    0.755219 0.426662 0.562446 0.210588
N1    N     N_3   0.138004 0.291550 0.559945 -0.460164
N2    N     N_3   0.297936 0.075860 0.501025 -0.440652
O1    O     O_R   0.592030 0.539910 0.448670 -0.625810
O2    O     O_R   0.051340 0.091660 0.643070 -0.622949
O3    O     O_R   0.856270 0.908420 0.447910 -0.625065
O4    O     O_R   0.591210 0.643320 0.551340 -0.622343
O5    O     O_R   0.960500 0.908460 0.552180 -0.617506
O6    O     O_R   0.948660 0.908440 0.357030 -0.621219
O7    O     O_R   0.052890 0.908480 0.461300 -0.627539
O8    O     O_R   0.039500 0.091640 0.447920 -0.627717
O9    O     O_R   0.143730 0.091680 0.552190 -0.633204
O10   O     O_R   0.408090 0.448300 0.356360 -0.628301
O11   O     O_R   0.407280 0.551720 0.459030 -0.634528
O12   O     O_R   0.054880 0.643340 0.094730 -0.632621
O13   O     O_R   0.408790 0.356680 0.448660 -0.622477
O14   O     O_R   0.407970 0.460090 0.551330 -0.630698
O15   O     O_R   0.592720 0.448280 0.540970 -0.624060
O16   O     O_R   0.591910 0.551700 0.643640 -0.621317
O17   O     O_R   0.951440 0.539930 0.094760 -0.608344
O18   O     O_2   0.125810 0.602043 0.290218 -0.588456
O19   O     O_R   0.044460 0.448310 0.096120 -0.608630
O20   O     O_R   0.147900 0.551710 0.096100 -0.637455
O21   O     O_R   0.952840 0.356700 0.912890 -0.626992
O22   O     O_R   0.056280 0.460110 0.912860 -0.627682
O23   O     O_R   0.859820 0.448330 0.911520 -0.629835
O24   O     O_R   0.963270 0.551730 0.911500 -0.621958
O25   O     O_R   0.947110 0.091620 0.538800 -0.624150
Zn1   Zn    Zn3+2 0.500550 0.430950 0.431450 0.937877
Zn2   Zn    Zn3+2 0.499450 0.569050 0.568550 0.942268
Zn3   Zn    Zn3+2 0.934790 0.430980 0.003830 0.964522
Zn4   Zn    Zn3+2 0.072930 0.569070 0.003790 0.949877
Zn5   Zn    Zn3+2 0.930400 0.000020 0.430430 0.943863
Zn6   Zn    Zn3+2 0.069600 0.000080 0.569670 0.945949

loop_
_geom_bond_atom_site_label_1
_geom_bond_atom_site_label_2
_ccdc_geom_bond_type
C30   O25   A    
C43   H11   S    
C29   O24   A    
C41   C42   S    
C31   C61   S    
C35   C36   A    
O20   Zn4   S    
C25   O17   A    
C7    C8    A    
C39   C41   A    
O5    Zn6   S    
C12   C23   S    
C22   N2    S    
C34   C40   S    
C36   C37   A    
C1    C56   S    
C26   O19   A    
C47   H15   S    
C28   O16   A    
C38   C39   A    
C18   H2    S    
C29   O23   A    
C42   H9    S    
C53   H20   S    
C18   C19   A    
C32   C39   S    
C42   H10   S    
C28   O15   A    
C24   H6    S    
C46   C47   A    
C55   H13   S    
O24   Zn4   S    
C60   H26   S    
C19   C20   A    
C45   C56   A    
C52   C54   S    
C16   C17   S    
O15   Zn1   S    
C30   O2    A    
O8    Zn5   S    
C34   C57   S    
O9    Zn6   S    
C26   O20   A    
H30   N1    S    
C35   C43   S    
C9    C10   A    
C9    H34   S    
O21   Zn3   S    
C2    C61   A    
C24   H5    S    
C23   C34   S    
C4    O11   A    
C38   H8    S    
C59   C60   A    
C13   C14   S    
C5    H12   S    
C26   C54   S    
H29   N1    S    
C58   H28   S    
C27   O21   A    
C44   C46   A    
C14   H37   S    
C2    C45   A    
C43   H14   S    
C4    C34   S    
C51   H17   S    
O12   Zn4   S    
C13   H35   S    
O19   Zn3   S    
C14   H38   S    
C53   H19   S    
C8    H33   S    
C37   H7    S    
O3    Zn5   S    
O6    Zn5   S    
O1    Zn1   S    
H32   N2    S    
C6    C11   A    
C5    H23   S    
C27   O22   A    
C8    C9    A    
C50   C51   S    
C40   C52   S    
C5    C45   S    
C32   O6    A    
O14   Zn2   S    
C12   H22   S    
C60   C61   A    
C51   C53   S    
C48   H16   S    
C22   H4    S    
C37   C38   A    
C25   O12   A    
C6    C14   S    
C47   C48   A    
C40   C55   S    
C17   C18   A    
C44   C53   S    
C52   C58   S    
H31   N2    S    
C20   C33   S    
C27   C46   S    
C48   C49   A    
C4    O10   A    
C55   C57   S    
O22   Zn4   S    
O10   Zn1   S    
C31   O5    A    
C22   C24   S    
C33   O8    A    
C42   C43   S    
C12   C57   S    
C16   O14   A    
O2    Zn6   S    
C3    H1    S    
C44   C50   A    
C15   C17   A    
C54   C55   S    
C15   C24   S    
O7    Zn6   S    
O4    Zn2   S    
C3    H27   S    
C30   C49   S    
C3    C5    S    
C16   O13   A    
C19   N1    S    
C6    C7    A    
C40   H3    S    
C56   C59   A    
C31   O3    A    
C2    C3    S    
C59   H25   S    
C23   H24   S    
O17   Zn3   S    
O13   Zn1   S    
C11   C13   S    
C10   C29   S    
C23   C52   S    
O25   Zn5   S    
C58   O18   D    
O23   Zn3   S    
C13   H36   S    
C35   C41   A    
O16   Zn2   S    
C51   H18   S    
O11   Zn2   S    
C10   C11   A    
C7    C28   S    
C25   C36   S    
C15   C21   A    
C20   C21   A    
C49   C50   A    
C32   O7    A    
C57   H21   S    
C33   O9    A    
C21   C22   S    
C1    O1    A    
C12   C54   S    
C1    O4    A    
