data_mof_unit_34059.cif
_audit_creation_date              2013-03-05T16:33:11-0500
_audit_creation_method            fapswitch 2.2
_symmetry_space_group_name_H-M    P1
_symmetry_Int_Tables_number       1
_space_group_crystal_system       triclinic
_cell_length_a                    27.50593
_cell_length_b                    10.873441
_cell_length_c                    9.7229
_cell_angle_alpha                 89.571512
_cell_angle_beta                  89.808736
_cell_angle_gamma                 92.946025
_cell_volume                      2904.02029445

loop_
_atom_site_label
_atom_site_type_symbol
_atom_site_description
_atom_site_fract_x
_atom_site_fract_y
_atom_site_fract_z
_atom_type_partial_charge
O1    O     O_R   0.500000 0.319640 0.618810 -0.538980
O2    O     O_R   0.500010 0.319680 0.381230 -0.577403
C1    C     C_R   0.502554 0.263289 0.500125 0.786344
O3    O     O_R   0.430260 0.500000 0.618780 -0.564454
O4    O     O_R   0.430270 0.500040 0.381190 -0.589293
C2    C     C_R   0.407778 0.497358 0.500152 0.781647
Cu1   Cu    Cu3+1 0.500000 0.499980 0.640670 1.030572
Cu2   Cu    Cu3+1 0.500000 0.500020 0.359330 0.998592
O5    O     O_R   0.499990 0.680320 0.618770 -0.578567
O6    O     O_R   0.500000 0.680360 0.381190 -0.570733
O7    O     O_R   0.569730 0.499960 0.618810 -0.541374
O8    O     O_R   0.569740 0.500000 0.381220 -0.574753
C3    C     C_R   0.498476 0.736853 0.499769 0.827151
C4    C     C_R   0.592153 0.500200 0.499718 0.876894
C5    C     C_R   0.175130 0.393608 0.581863 0.541356
O9    O     O_2   0.199392 0.361571 0.695777 -0.535477
N1    N     N_R   0.201030 0.446367 0.475379 -0.463884
C6    C     C_R   0.179478 0.482665 0.356849 0.554713
C7    C     C_R   0.276403 0.572202 0.516616 -0.086297
C8    C     C_R   0.327078 0.583399 0.523906 -0.225108
C9    C     C_R   0.331334 0.365150 0.471054 0.121583
C10   C     C_R   0.280505 0.355514 0.463763 -0.099256
C11   C     C_R   0.253093 0.458392 0.485718 0.322590
C12   C     C_R   0.100600 0.412033 0.450306 -0.123379
C13   C     C_R   0.124026 0.374172 0.572931 -0.014812
C14   C     C_R   0.095377 0.320410 0.682239 0.162862
C15   C     C_R   0.128303 0.466237 0.339512 -0.070058
C16   C     C_R   0.354777 0.481045 0.499823 -0.000999
H1    H     H_    0.261977 0.267728 0.440734 0.143666
C17   C     C_R   0.644781 0.489207 0.498138 -0.142875
C18   C     C_R   0.969969 0.321778 0.532904 0.036630
C19   C     C_R   0.974282 0.455753 0.330265 0.026747
C20   C     C_R   0.946505 0.393062 0.433771 0.041937
C21   C     C_R   0.941082 0.236358 0.613966 0.080832
C22   C     C_R   0.890379 0.250687 0.626041 -0.014525
C23   C     C_R   0.868042 0.340604 0.544307 -0.115002
C24   C     C_R   0.895452 0.403545 0.439742 -0.086909
C25   C     C_R   0.872030 0.479194 0.343361 -0.013906
C26   C     C_R   0.820873 0.484054 0.351621 0.607659
N2    N     N_R   0.796097 0.434842 0.462697 -0.449827
C27   C     C_R   0.818880 0.369084 0.561340 0.634750
C28   C     C_R   0.710590 0.351491 0.464025 -0.019807
C29   C     C_R   0.661183 0.371030 0.480385 -0.236679
C30   C     C_R   0.677979 0.592820 0.502213 -0.154641
C31   C     C_R   0.728495 0.572715 0.497311 -0.013836
C32   C     C_R   0.744667 0.452729 0.475320 0.193892
O10   O     O_2   0.793975 0.333368 0.675797 -0.503435
C33   C     C_R   0.021336 0.340014 0.546941 0.031267
C34   C     C_R   0.049187 0.397574 0.439663 0.029005
C35   C     C_R   0.025352 0.441514 0.322345 0.005676
C36   C     C_R   0.044860 0.309636 0.669208 -0.209889
H2    H     H_    0.634717 0.293874 0.473456 0.216692
H3    H     H_    0.023616 0.279671 0.758073 0.169157
O11   O     O_2   0.208246 0.532684 0.256576 -0.537663
C37   C     C_R   0.104194 0.496498 0.214333 0.153737
H4    H     H_    0.344789 0.672305 0.546168 0.149163
H5    H     H_    0.255235 0.651918 0.533977 0.145006
C38   C     C_R   0.951150 0.538894 0.244331 -0.193458
C39   C     C_R   0.900749 0.549365 0.246139 0.143452
O12   O     O_2   0.795612 0.537054 0.250604 -0.505560
C40   C     C_R   0.053317 0.471738 0.202945 0.155582
H6    H     H_    0.972710 0.600406 0.177945 0.163754
C41   C     C_R   0.492517 0.062899 0.619812 0.035868
C42   C     C_R   0.504063 0.129297 0.499132 -0.147624
C43   C     C_R   0.512246 0.063345 0.376571 -0.035130
C44   C     C_R   0.502234 0.935956 0.375944 -0.251717
H7    H     H_    0.505892 0.886550 0.281682 0.238807
C45   C     C_R   0.494981 0.870002 0.498754 -0.104336
C46   C     C_R   0.488499 0.935185 0.619682 0.102811
C47   C     C_3   0.513948 0.923106 0.753897 -0.481127
C48   C     C_3   0.519863 0.063542 0.753939 -0.139094
H8    H     H_    0.489290 0.881446 0.834208 0.258087
H9    H     H_    0.548613 0.875921 0.743761 0.208011
C49   C     C_R   0.542194 0.520190 0.070723 0.206345
N3    N     N_R   0.500300 0.500930 0.147930 -0.195655
C50   C     C_R   0.460792 0.452120 0.075092 0.207059
C51   C     C_R   0.459720 0.459746 0.927385 0.090695
N4    N     N_R   0.500310 0.500890 0.852020 -0.244113
C52   C     C_R   0.542366 0.515828 0.926021 0.238957
C53   C     C_3   0.582663 0.612705 0.911651 -0.308506
C54   C     C_3   0.583077 0.619200 0.071074 -0.103979
H10   H     H_    0.570002 0.695440 0.857585 0.162337
C55   C     C_3   0.358557 0.249985 0.449019 -0.876163
H11   H     H_    0.352517 0.216819 0.342420 0.241257
H12   H     H_    0.398215 0.264046 0.465958 0.226756
H13   H     H_    0.344824 0.177127 0.522019 0.244343
C56   C     C_3   0.131735 0.555426 0.092794 -0.729643
H14   H     H_    0.108353 0.580598 0.005752 0.211581
H15   H     H_    0.150252 0.643624 0.124903 0.256016
H16   H     H_    0.158432 0.491611 0.052228 0.261577
C57   C     C_2   0.659819 0.720200 0.506632 0.916604
O13   O     O_2   0.681952 0.804942 0.446451 -0.483774
O14   O     O_R   0.616617 0.743104 0.575699 -0.772472
H17   H     H_    0.607730 0.832107 0.566915 0.355756
C58   C     C_3   0.879939 0.641121 0.147672 -0.687318
H18   H     H_    0.859317 0.709225 0.205466 0.267081
H19   H     H_    0.908742 0.693796 0.088317 0.196292
H20   H     H_    0.856119 0.592409 0.071497 0.275913
C59   C     C_2   0.765253 0.673829 0.524406 0.902376
O15   O     O_2   0.775861 0.750339 0.434988 -0.521425
O16   O     O_R   0.789190 0.677813 0.650971 -0.730562
H21   H     H_    0.814064 0.749645 0.657208 0.336909
C60   C     C_3   0.030783 0.455616 0.061207 -0.877018
H22   H     H_    0.054562 0.401383 0.995466 0.241790
H23   H     H_    0.995294 0.402303 0.065008 0.251762
H24   H     H_    0.025903 0.546159 0.011076 0.229248
C61   C     C_2   0.540155 0.116837 0.257359 0.893529
O17   O     O_2   0.569990 0.202895 0.273032 -0.563684
O18   O     O_R   0.536515 0.059186 0.129947 -0.751972
H25   H     H_    0.563241 0.089686 0.064563 0.373068
C62   C     C_2   0.490667 0.122331 0.865905 0.977995
O19   O     O_2   0.505085 0.219883 0.916605 -0.560921
O20   O     O_R   0.446281 0.066124 0.909380 -0.736481
H26   H     H_    0.430681 0.112274 0.986624 0.335955
C63   C     C_2   0.573249 0.108834 0.740274 0.853434
O21   O     O_2   0.597324 0.077144 0.641757 -0.571769
O22   O     O_R   0.595577 0.182686 0.841245 -0.704063
H27   H     H_    0.631594 0.199799 0.822866 0.367360
C64   C     C_3   0.420080 0.376955 0.146277 -0.706724
H28   H     H_    0.389373 0.435690 0.170234 0.249864
H29   H     H_    0.405618 0.300019 0.081798 0.174256
H30   H     H_    0.432975 0.328473 0.237378 0.257207
C65   C     C_2   0.414612 0.413983 0.859225 0.896219
O23   O     O_2   0.377361 0.469480 0.873227 -0.587948
O24   O     O_R   0.413838 0.304223 0.785356 -0.739681
H31   H     H_    0.380319 0.280109 0.748381 0.332837
C66   C     C_2   0.628740 0.567506 0.848698 0.951686
O25   O     O_2   0.662005 0.642020 0.819380 -0.559467
O26   O     O_R   0.634512 0.441710 0.830771 -0.726107
H32   H     H_    0.667644 0.424159 0.791687 0.343637
C67   C     C_3   0.630533 0.576671 0.137794 -0.653701
H33   H     H_    0.631780 0.597893 0.248021 0.243225
H34   H     H_    0.634641 0.476342 0.124003 0.247363
H35   H     H_    0.662752 0.628296 0.093093 0.259302
C68   C     C_2   0.569185 0.743693 0.120804 0.918695
O27   O     O_2   0.532656 0.789298 0.076097 -0.615874
O28   O     O_R   0.599688 0.809052 0.212640 -0.726364
H36   H     H_    0.589361 0.895095 0.231414 0.349328
C69   C     C_3   0.116589 0.271158 0.813728 -0.762727
H37   H     H_    0.088333 0.226775 0.882238 0.198469
H38   H     H_    0.142438 0.199142 0.789661 0.261969
H39   H     H_    0.134950 0.347202 0.872250 0.256227
C70   C     C_2   0.725383 0.225042 0.431862 0.947467
O29   O     O_2   0.699649 0.135517 0.468396 -0.506668
O30   O     O_R   0.767912 0.207618 0.356841 -0.737579
H40   H     H_    0.773819 0.117391 0.342057 0.371060
C71   C     C_2   0.860632 0.162200 0.712958 0.936266
O31   O     O_2   0.870935 0.147653 0.834037 -0.573720
O32   O     O_R   0.821366 0.094310 0.655082 -0.715259
H41   H     H_    0.804058 0.036770 0.723975 0.356882
C72   C     C_3   0.961720 0.117619 0.665858 -0.832279
H42   H     H_    0.937717 0.037434 0.634749 0.237008
H43   H     H_    0.997791 0.101287 0.620112 0.237376
H44   H     H_    0.964496 0.118233 0.779716 0.250656

loop_
_geom_bond_atom_site_label_1
_geom_bond_atom_site_label_2
_geom_bond_distance
_ccdc_geom_bond_type
C38   H6    1.079763 S    
C44   C45   1.396711 A    
C56   H14   1.105918 S    
O14   H17   1.013317 S    
C10   H1    1.083943 S    
C58   H18   1.110480 S    
C12   C15   1.423839 A    
C19   C38   1.404150 A    
C8    H4    1.083568 S    
C67   H35   1.109944 S    
O30   H40   1.013857 S    
C58   H20   1.109878 S    
O32   H41   1.013795 S    
C65   O23   1.223256 D    
C62   O20   1.399548 S    
C31   C32   1.417359 A    
C7    H5    1.082697 S    
Cu1   O7    1.929035 S    
O16   H21   1.013862 S    
C9    C55   1.507990 S    
C23   C24   1.414883 A    
C40   C60   1.520589 S    
O26   H32   1.013899 S    
O4    C2    1.309326 A    
O7    C4    1.310038 A    
C15   C37   1.432203 A    
C29   H2    1.084769 S    
C54   C67   1.549775 S    
C26   O12   1.347893 S    
C63   O21   1.224300 D    
C70   O30   1.398405 S    
C5    N1    1.361148 A    
C21   C22   1.415819 A    
C28   C32   1.413804 A    
C72   H44   1.109955 S    
O5    C3    1.307913 A    
C60   H22   1.107527 S    
C71   O31   1.222810 D    
C33   C36   1.400798 A    
C2    C16   1.459529 S    
C7    C8    1.395026 A    
C45   C46   1.393066 A    
C63   O22   1.396757 S    
C48   C62   1.515254 S    
C61   O17   1.223247 D    
C18   C20   1.410939 A    
C47   C48   1.527335 S    
C52   C53   1.494806 S    
Cu2   O8    1.930749 S    
C68   O27   1.222840 D    
C44   H7    1.072848 S    
C9    C10   1.398733 A    
C61   O18   1.394146 S    
C17   C30   1.414165 A    
C23   C27   1.412169 A    
C39   C58   1.512512 S    
C4    C17   1.458663 S    
O3    Cu1   1.930754 S    
C54   C68   1.507958 S    
C64   H29   1.107432 S    
C50   C64   1.514370 S    
C49   N3    1.379253 A    
C41   C46   1.387413 A    
Cu1   Cu2   2.735436 S    
C12   C13   1.425204 A    
C53   H10   1.110529 S    
C14   C69   1.512793 S    
C31   C59   1.480657 S    
C26   N2    1.366034 A    
N4    C52   1.367572 A    
C22   C71   1.487185 S    
C8    C16   1.401342 A    
C38   C39   1.396873 A    
C51   N4    1.386330 A    
Cu2   N3    2.055359 S    
C20   C24   1.415732 A    
C25   C39   1.421963 A    
O1    C1    1.313949 A    
C22   C23   1.420680 A    
C7    C11   1.399303 A    
N3    C50   1.384058 A    
C66   O26   1.397241 S    
C24   C25   1.420136 A    
C51   C65   1.474175 S    
C57   O14   1.397393 S    
C55   H11   1.110166 S    
C72   H42   1.110713 S    
C47   H9    1.110185 S    
N1    C6    1.362780 A    
C27   O10   1.348941 S    
C18   C21   1.422748 A    
C48   C63   1.529666 S    
C60   H23   1.109764 S    
N1    C11   1.435201 S    
C50   C51   1.438399 A    
C64   H28   1.109888 S    
C19   C35   1.422992 A    
C30   C57   1.497197 S    
Cu1   N4    2.055078 S    
C21   C72   1.520291 S    
O3    C2    1.310347 A    
N2    C27   1.365157 A    
C55   H12   1.106729 S    
C9    C16   1.415981 A    
C41   C48   1.507543 S    
C67   H33   1.098248 S    
C43   C44   1.398380 A    
C18   C33   1.423776 A    
C56   H15   1.109914 S    
O24   H31   1.013307 S    
C17   C29   1.395325 A    
C28   C29   1.394985 A    
N2    C32   1.442756 S    
C49   C54   1.516304 S    
C66   O25   1.222096 D    
C57   O13   1.222258 D    
C30   C31   1.418322 A    
O20   H26   1.012736 S    
C64   H30   1.096648 S    
C12   C34   1.419036 A    
C68   O28   1.399821 S    
C33   C34   1.414970 A    
C62   O19   1.221189 D    
C71   O32   1.398702 S    
O1    Cu1   1.973981 S    
O2    Cu2   1.970875 S    
C6    C15   1.420522 A    
O8    C4    1.308495 A    
C53   C54   1.552241 S    
C67   H34   1.111583 S    
O6    C3    1.311972 A    
O4    Cu2   1.929038 S    
C69   H37   1.110789 S    
C58   H19   1.110915 S    
C53   C66   1.511884 S    
C1    C42   1.459776 S    
O28   H36   1.009384 S    
C59   O15   1.222965 D    
C49   C52   1.408075 A    
C42   C43   1.418636 A    
O2    C1    1.308268 A    
C13   C14   1.424777 A    
C14   C36   1.394688 A    
C19   C20   1.411490 A    
C69   H38   1.110085 S    
C25   C26   1.412886 A    
C5    O9    1.347782 S    
C37   C40   1.416301 A    
C69   H39   1.108395 S    
C43   C61   1.486321 S    
C60   H24   1.109827 S    
C72   H43   1.109100 S    
C37   C56   1.521076 S    
C46   C47   1.491016 S    
C65   O24   1.396768 S    
C6    O11   1.347261 S    
C41   C42   1.400062 A    
Cu1   O5    1.970873 S    
C55   H13   1.110456 S    
C5    C13   1.413739 A    
Cu2   O6    1.973980 S    
C34   C35   1.410062 A    
C56   H16   1.109420 S    
O18   H25   1.011530 S    
C28   C70   1.488918 S    
C35   C40   1.417659 A    
C10   C11   1.398084 A    
C47   H8    1.111087 S    
C36   H3    1.080274 S    
O22   H27   1.013611 S    
C59   O16   1.397472 S    
C70   O29   1.223583 D    
C3    C45   1.455856 S    
