data_mof_unit_13741.cif
_audit_creation_date              2012-12-10T19:16:15-0500
_audit_creation_method            fapswitch 2.2
_symmetry_space_group_name_H-M    P1
_symmetry_Int_Tables_number       1
_space_group_crystal_system       triclinic
_cell_length_a                    10.684907
_cell_length_b                    9.816302
_cell_length_c                    27.63917
_cell_angle_alpha                 89.155167
_cell_angle_beta                  88.045416
_cell_angle_gamma                 88.31278
_cell_volume                      2895.75280787

loop_
_atom_site_label
_atom_site_type_symbol
_atom_type_description
_atom_site_fract_x
_atom_site_fract_y
_atom_site_fract_z
_atom_type_partial_charge
C1    C     C_R   0.257553 0.500526 0.499170 1.052835
C2    C     C_R   0.435207 0.611892 0.276137 -0.257402
C3    C     C_R   0.430117 0.484697 0.254661 0.267123
C4    C     C_R   0.439125 0.468051 0.103239 -0.187932
C5    C     C_R   0.322460 0.475957 0.129047 -0.115180
C6    C     C_R   0.210790 0.485307 0.103285 0.519362
C7    C     C_R   0.552147 0.464028 0.128556 -0.117607
C8    C     C_R   0.465974 0.500512 0.353981 -0.121984
C9    C     C_R   0.490906 0.497807 0.646609 -0.405145
C10   C     C_R   0.335890 0.441264 0.975719 -0.046217
C11   C     C_R   0.560841 0.491856 0.975546 0.110555
C12   C     C_R   0.491892 0.500998 0.406137 0.852478
C13   C     C_R   0.450119 0.469584 0.950270 0.016070
C14   C     C_R   0.232429 0.397229 0.949303 0.512273
C15   C     C_R   0.241257 0.397301 0.898443 -0.238455
C16   C     C_R   0.348962 0.440593 0.873405 -0.112505
C17   C     C_R   0.454296 0.475011 0.899185 -0.061601
C18   C     C_R   0.564637 0.513307 0.873767 -0.020460
C19   C     C_R   0.566114 0.520177 0.823239 0.569158
C20   C     C_R   0.355786 0.444961 0.822703 0.610919
C21   C     C_R   0.405313 0.593606 0.721866 0.441779
C22   C     C_R   0.419280 0.599286 0.671214 0.511931
C23   C     C_R   0.741792 0.497848 0.499639 0.990435
C24   C     C_R   0.552335 0.393780 0.672741 0.594233
C25   C     C_R   0.540887 0.389874 0.722827 -0.269408
C26   C     C_R   0.468496 0.489355 0.747334 0.053344
C27   C     C_R   0.330281 0.457728 0.026742 0.013774
C28   C     C_R   0.442901 0.465821 0.052014 0.062767
C29   C     C_R   0.559209 0.474585 0.026346 -0.000847
C30   C     C_R   0.215769 0.474318 0.053013 -0.250790
C31   C     C_R   0.667951 0.456056 0.102554 0.549272
C32   C     C_R   0.669441 0.532318 0.949180 -0.229705
C33   C     C_R   0.670816 0.543690 0.899148 -0.138712
C34   C     C_R   0.499143 0.499278 0.593841 1.060868
C35   C     C_R   0.670390 0.465984 0.052253 -0.328142
C36   C     C_3   0.062451 0.587468 0.538685 0.413902
C37   C     C_3   0.073043 0.349523 0.505816 0.456703
C38   C     C_3   0.920703 0.573021 0.543200 0.486702
C39   C     C_3   0.931621 0.345510 0.500959 0.481274
C40   C     C_3   0.074435 0.555081 0.447024 0.831988
C41   C     C_3   0.119753 0.498601 0.497426 -0.375563
C42   C     C_3   0.877550 0.493840 0.499022 -0.317406
C43   C     C_3   0.926704 0.563286 0.451435 -0.833236
C44   C     C_3   0.372311 0.085741 0.511156 0.773020
C45   C     C_3   0.370514 0.921812 0.509820 0.801801
C46   C     C_3   0.539773 0.083236 0.450036 0.172210
C47   C     C_3   0.546862 0.918953 0.451041 0.144151
C48   C     C_3   0.594483 0.074176 0.532092 0.349012
C49   C     C_3   0.585685 0.914138 0.535459 0.337400
C50   C     C_R   0.321861 0.479107 0.179892 0.535656
C51   C     C_R   0.545515 0.468038 0.179276 0.536551
C52   C     C_R   0.434234 0.366024 0.282616 -0.142045
C53   C     C_R   0.451273 0.373883 0.331888 -0.309783
C54   C     C_R   0.447534 0.622132 0.326536 0.506923
H1    H     H_    0.428420 0.267478 0.265852 0.140381
H2    H     H_    0.753647 0.560715 0.966476 0.136853
H3    H     H_    0.756077 0.575370 0.880429 0.188667
H4    H     H_    0.589789 0.310388 0.742919 0.215127
H5    H     H_    0.761528 0.462359 0.034256 0.148829
H6    H     H_    0.078323 0.692921 0.528049 0.036646
H7    H     H_    0.116614 0.279138 0.478683 0.163110
H8    H     H_    0.432505 0.701699 0.253004 0.139141
H9    H     H_    0.876008 0.676986 0.544378 0.053731
H10   H     H_    0.910329 0.292581 0.466934 0.060291
H11   H     H_    0.888397 0.669161 0.451691 0.231542
H12   H     H_    0.885927 0.513311 0.419996 0.211579
H13   H     H_    0.468818 0.117030 0.423426 0.148394
H14   H     H_    0.484768 0.883070 0.422836 0.204141
H15   H     H_    0.690763 0.095978 0.518167 0.205785
H16   H     H_    0.681340 0.869066 0.529032 0.158458
H17   H     H_    0.164705 0.359710 0.878316 0.202968
H18   H     H_    0.128195 0.487141 0.035102 0.198290
H19   H     H_    0.453479 0.279789 0.352576 0.183150
N1    N     N_R   0.432068 0.475970 0.203303 -0.355200
N2    N     N_R   0.462663 0.486067 0.798949 -0.305060
N3    N     N_3   0.499750 0.138610 0.498940 -0.235158
N4    N     N_3   0.499750 0.861390 0.498940 -0.226222
O1    O     O_R   0.314910 0.616040 0.499990 -0.527018
O2    O     O_R   0.314910 0.383960 0.499990 -0.544378
O3    O     O_R   0.500140 0.616020 0.428740 -0.572071
O4    O     O_R   0.500140 0.383980 0.428740 -0.625599
O5    O     O_R   0.685320 0.616040 0.499970 -0.641452
O6    O     O_R   0.685320 0.383960 0.499970 -0.541136
O7    O     O_R   0.500090 0.616050 0.571230 -0.493219
O8    O     O_R   0.500090 0.383950 0.571230 -0.551919
O9    O     O_2   0.212918 0.485442 0.206034 -0.520668
O10   O     O_2   0.257088 0.407599 0.797281 -0.562398
O11   O     O_2   0.651058 0.465427 0.204809 -0.508646
O12   O     O_2   0.670003 0.560270 0.798426 -0.525369
Zn1   Zn    Zn3+2 0.500150 0.654960 0.499980 1.119961
Zn2   Zn    Zn3+2 0.500150 0.345040 0.499980 1.117243
O13   O     O_3   0.449230 0.747115 0.349496 -0.621289
C55   C     C_3   0.365931 0.845257 0.329368 -0.352955
H20   H     H_    0.274917 0.801343 0.320194 0.163651
H21   H     H_    0.410647 0.895663 0.297253 0.160791
H22   H     H_    0.345151 0.925674 0.356485 0.202092
O14   O     O_3   0.780264 0.449014 0.126068 -0.566742
C56   C     C_3   0.829698 0.314388 0.123360 -0.168511
H23   H     H_    0.861143 0.289157 0.085691 0.136405
H24   H     H_    0.761092 0.239050 0.137540 0.132103
H25   H     H_    0.912849 0.305520 0.146264 0.230642
F1    F     F_    0.627580 0.299286 0.650058 -0.522451
F2    F     F_    0.117893 0.558976 0.582570 -0.561748
F3    F     F_    0.104506 0.302044 0.551477 -0.499743
F4    F     F_    0.886967 0.506375 0.586113 -0.500920
F5    F     F_    0.879097 0.271433 0.539377 -0.512300
O15   O     O_3   0.136179 0.681796 0.437857 -0.564379
C57   C     C_3   0.067075 0.786180 0.414003 -0.227586
H26   H     H_    0.011138 0.847439 0.440900 0.175724
H27   H     H_    0.007010 0.748216 0.385531 0.110159
H28   H     H_    0.134040 0.856182 0.395967 0.214975
O16   O     O_3   0.115349 0.455517 0.412233 -0.659257
C58   C     C_3   0.112706 0.502809 0.363822 -0.204392
H29   H     H_    0.017006 0.535944 0.353510 0.140900
H30   H     H_    0.141878 0.416990 0.339918 0.194220
H31   H     H_    0.181120 0.584182 0.356730 0.195306
F6    F     F_    0.296169 0.127588 0.473753 -0.661505
F7    F     F_    0.297261 0.883266 0.471834 -0.650506
O17   O     O_3   0.313558 0.153589 0.552079 -0.548428
C59   C     C_3   0.351736 0.122660 0.599713 -0.027890
H32   H     H_    0.401778 0.024973 0.604408 0.242304
H33   H     H_    0.267656 0.121098 0.624312 0.159554
H34   H     H_    0.405230 0.205874 0.614220 0.228410
O18   O     O_3   0.319851 0.864158 0.553539 -0.548959
C60   C     C_3   0.188947 0.892010 0.560320 -0.045169
H35   H     H_    0.136049 0.896840 0.526489 0.179565
H36   H     H_    0.166240 0.988287 0.578570 0.171714
H37   H     H_    0.150597 0.814560 0.585756 0.205696
F8    F     F_    0.593044 0.132254 0.576966 -0.548363
F9    F     F_    0.552522 0.870773 0.581777 -0.560281
O19   O     O_3   0.658604 0.137157 0.436234 -0.553618
C61   C     C_3   0.676874 0.155769 0.385669 -0.202466
H38   H     H_    0.678088 0.266296 0.376990 0.171472
H39   H     H_    0.606656 0.107106 0.363291 0.100314
H40   H     H_    0.770531 0.112557 0.374813 0.168183
O20   O     O_3   0.673328 0.872021 0.442438 -0.585374
C62   C     C_3   0.698891 0.828610 0.394497 -0.170360
H41   H     H_    0.639570 0.879754 0.367146 0.167826
H42   H     H_    0.691258 0.716640 0.392454 0.181754
H43   H     H_    0.797135 0.852464 0.384451 0.129690
O21   O     O_3   0.095117 0.498328 0.127064 -0.563469
C63   C     C_3   0.052316 0.635283 0.123393 -0.182929
H44   H     H_    0.029784 0.663286 0.085472 0.125504
H45   H     H_    0.121445 0.706314 0.137480 0.138154
H46   H     H_    0.964793 0.647794 0.145836 0.227747
F10   F     F_    0.363682 0.703189 0.646172 -0.583410
O22   O     O_3   0.340319 0.694842 0.747592 -0.589910
C64   C     C_3   0.212402 0.697383 0.736133 -0.080217
H47   H     H_    0.175850 0.594140 0.729784 0.182871
H48   H     H_    0.195837 0.765020 0.704325 0.212570
H49   H     H_    0.157131 0.741033 0.767187 0.172446
O23   O     O_3   0.134343 0.331596 0.973385 -0.601593
C65   C     C_3   0.016689 0.379693 0.957197 -0.358042
H50   H     H_    0.989913 0.322978 0.924856 0.196510
H51   H     H_    0.013868 0.491659 0.949776 0.149275
H52   H     H_    0.944967 0.359540 0.986162 0.191119

loop_
_geom_bond_atom_site_label_1
_geom_bond_atom_site_label_2
_ccdc_geom_bond_type
C45   F7    S    
C10   C27   A    
C39   F5    S    
C21   C26   A    
C55   H20   S    
C23   O5    A    
C47   O20   S    
C48   N3    S    
O22   C64   S    
C51   N1    A    
C48   H15   S    
C46   N3    S    
O14   C56   S    
O8    Zn2   S    
C40   O16   S    
O1    Zn1   S    
C39   H10   S    
C62   H42   S    
C23   C42   S    
C23   O6    A    
C36   F2    S    
C21   O22   S    
C28   C29   A    
C64   H48   S    
C38   C42   S    
C50   N1    A    
C5    C6    A    
C9    C22   A    
C15   C16   A    
C34   O7    A    
C20   O10   S    
C57   H26   S    
C35   H5    S    
C18   C19   A    
C44   N3    S    
C3    N1    S    
C38   H9    S    
C40   C43   S    
C22   F10   S    
C49   N4    S    
C61   H38   S    
C60   H37   S    
O15   C57   S    
C64   H49   S    
C8    C12   S    
C65   H51   S    
O2    Zn2   S    
C52   H1    S    
C43   H11   S    
C58   H31   S    
C55   H21   S    
C43   H12   S    
C21   C22   A    
C27   C30   A    
C37   C41   S    
C1    O1    A    
C63   H46   S    
C36   C41   S    
O7    Zn1   S    
C4    C7    A    
O16   C58   S    
C4    C28   A    
C59   H33   S    
C17   C18   A    
C39   C42   S    
C45   O18   S    
C62   H43   S    
N4    Zn1   S    
C7    C31   A    
C64   H47   S    
C10   C14   A    
C8    C54   A    
C46   O19   S    
C16   C17   A    
C44   O17   S    
C25   C26   A    
C20   N2    A    
C65   H52   S    
C34   O8    A    
C8    C53   A    
C54   O13   S    
C19   O12   S    
C30   H18   S    
C14   C15   A    
C16   C20   A    
C26   N2    S    
O17   C59   S    
C24   C25   A    
C6    O21   S    
C40   O15   S    
C1    C41   S    
C48   C49   S    
C6    C30   A    
C11   C32   A    
C55   H22   S    
C56   H24   S    
C49   H16   S    
C2    C54   A    
C60   H35   S    
C1    O2    A    
C31   C35   A    
C5    C50   A    
C42   C43   S    
C47   N4    S    
O19   C61   S    
C47   H14   S    
C63   H45   S    
O6    Zn2   S    
C52   C53   A    
C58   H29   S    
C49   F9    S    
C46   C47   S    
C40   C41   S    
C33   H3    S    
C63   H44   S    
C53   H19   S    
C44   C45   S    
O20   C62   S    
C36   H6    S    
C10   C13   A    
C51   O11   S    
C37   F3    S    
C37   H7    S    
C3    C52   A    
C59   H34   S    
C9    C24   A    
C56   H25   S    
C15   H17   S    
C62   H41   S    
C29   C35   A    
O5    Zn1   S    
C57   H28   S    
C13   C17   A    
C32   C33   A    
C38   F4    S    
C36   C38   S    
C2    C3    A    
C7    C51   A    
C46   H13   S    
C37   C39   S    
O21   C63   S    
C11   C13   A    
C9    C34   S    
C44   F6    S    
C61   H40   S    
C12   O3    A    
C19   N2    A    
O13   C55   S    
C57   H27   S    
C12   O4    A    
C24   F1    S    
C31   O14   S    
O3    Zn1   S    
C48   F8    S    
C18   C33   A    
C50   O9    S    
N3    Zn2   S    
O4    Zn2   S    
C4    C5    A    
O23   C65   S    
C11   C29   A    
C61   H39   S    
C56   H23   S    
C25   H4    S    
C14   O23   S    
C27   C28   A    
C60   H36   S    
C59   H32   S    
C45   N4    S    
C65   H50   S    
C32   H2    S    
C2    H8    S    
O18   C60   S    
C58   H30   S    
