data_mof_unit_31942.cif
_audit_creation_date              2012-12-10T17:52:22-0500
_audit_creation_method            fapswitch 2.2
_symmetry_space_group_name_H-M    P1
_symmetry_Int_Tables_number       1
_space_group_crystal_system       triclinic
_cell_length_a                    19.069598
_cell_length_b                    10.622238
_cell_length_c                    10.011149
_cell_angle_alpha                 89.694649
_cell_angle_beta                  89.017892
_cell_angle_gamma                 92.860243
_cell_volume                      2025.01379557

loop_
_atom_site_label
_atom_site_type_symbol
_atom_type_description
_atom_site_fract_x
_atom_site_fract_y
_atom_site_fract_z
_atom_type_partial_charge
C1    C     C_R   0.511796 0.262969 0.501099 0.864823
C2    C     C_R   0.290617 0.539582 0.496242 -0.187161
C3    C     C_R   0.933877 0.585005 0.445195 0.348809
C4    C     C_R   0.075147 0.598537 0.443519 0.242402
C5    C     C_R   0.823899 0.598019 0.581969 0.127364
C6    C     C_R   0.750828 0.572358 0.597397 0.100882
C7    C     C_R   0.712651 0.512263 0.493731 -0.234128
C8    C     C_R   0.748598 0.471226 0.379141 0.075456
C9    C     C_R   0.819489 0.506503 0.358251 0.460964
C10   C     C_R   0.857517 0.568165 0.460176 -0.160378
C11   C     C_R   0.532547 0.112284 0.753780 0.398911
C12   C     C_R   0.365677 0.509998 0.500846 0.857734
C13   C     C_R   0.493477 0.066022 0.867538 0.324465
C14   C     C_R   0.446775 0.960415 0.851023 0.367351
C15   C     C_R   0.442167 0.898640 0.726503 0.081369
C16   C     C_R   0.484670 0.943863 0.617675 -0.091119
C17   C     C_R   0.515773 0.063628 0.627213 -0.146032
C18   C     C_R   0.530114 0.131142 0.508407 -0.126227
C19   C     C_R   0.551134 0.065856 0.395329 0.208311
C20   C     C_R   0.532960 0.937462 0.389867 -0.230529
C21   C     C_R   0.498227 0.876517 0.499093 -0.099561
C22   C     C_R   0.390320 0.345940 0.131637 0.149404
C23   C     C_R   0.496256 0.740461 0.499774 0.905649
C24   C     C_R   0.335014 0.293780 0.051794 0.427650
C25   C     C_R   0.340778 0.297073 0.913560 0.138225
C26   C     C_R   0.400422 0.354893 0.855755 -0.199372
C27   C     C_R   0.448900 0.429445 0.927559 0.055542
C28   C     C_R   0.446938 0.427542 0.071654 -0.075008
C29   C     C_R   0.546932 0.574430 0.071304 0.558197
C30   C     C_R   0.546158 0.573382 0.926645 -0.288339
C31   C     C_R   0.635005 0.500417 0.498875 0.935292
C32   C     C_R   0.244589 0.542846 0.609830 0.205937
C33   C     C_R   0.173972 0.568303 0.587946 -0.215510
C34   C     C_R   0.150039 0.594225 0.460181 -0.013964
C35   C     C_R   0.196124 0.599662 0.349878 0.249784
C36   C     C_R   0.265388 0.571067 0.369033 -0.237482
H1    H     H_    0.548502 0.884056 0.303608 0.196939
H2    H     H_    0.408147 0.340507 0.752974 0.243091
H3    H     H_    0.135980 0.566393 0.669491 0.164076
H4    H     H_    0.582457 0.632710 0.867689 0.175677
H5    H     H_    0.299424 0.572195 0.281290 0.183615
N1    N     N_R   0.039978 0.497345 0.391150 -0.169037
N2    N     N_R   0.970425 0.490631 0.392185 -0.120620
N3    N     N_R   0.969303 0.687740 0.495261 -0.151317
N4    N     N_R   0.039094 0.693964 0.495484 -0.168657
N5    N     N_R   0.499340 0.498800 0.142780 -0.140863
N6    N     N_R   0.499320 0.498720 0.857170 -0.110611
O1    O     O_R   0.500000 0.316780 0.614690 -0.590934
O2    O     O_R   0.499990 0.316750 0.385360 -0.621502
O3    O     O_R   0.398140 0.500000 0.614700 -0.647813
O4    O     O_R   0.398130 0.499970 0.385370 -0.594978
O5    O     O_R   0.500010 0.683250 0.614640 -0.609722
O6    O     O_R   0.500000 0.683220 0.385310 -0.600483
O7    O     O_R   0.601870 0.500030 0.614630 -0.569873
O8    O     O_R   0.601860 0.500000 0.385300 -0.561726
Zn1   Zn    Zn3+2 0.500000 0.500020 0.653130 0.957976
Zn2   Zn    Zn3+2 0.500000 0.499980 0.346870 0.980847
N7    N     N_2   0.269188 0.522829 0.742729 -0.296363
H6    H     H_    0.316172 0.569064 0.763285 0.253253
C37   C     C_3   0.220826 0.526218 0.855837 -0.786232
H7    H     H_    0.199308 0.621148 0.864476 0.239480
H8    H     H_    0.177742 0.452818 0.845807 0.249374
H9    H     H_    0.248942 0.506618 0.949336 0.251632
O9    O     O_3   0.586523 0.203831 0.763297 -0.583315
C38   C     C_3   0.651224 0.147537 0.741237 -0.366554
H10   H     H_    0.659378 0.126275 0.633670 0.183847
H11   H     H_    0.655678 0.060669 0.802866 0.138784
H12   H     H_    0.694180 0.215006 0.770972 0.188500
O10   O     O_3   0.489138 0.127608 0.989890 -0.614942
C39   C     C_3   0.549793 0.200776 0.022479 -0.235833
H13   H     H_    0.542544 0.235733 0.124720 0.193751
H14   H     H_    0.555763 0.288199 0.962630 0.209707
H15   H     H_    0.597507 0.145332 0.016331 0.186004
O11   O     O_3   0.400738 0.924125 0.953895 -0.604352
C40   C     C_3   0.434807 0.842964 0.040603 -0.303488
H16   H     H_    0.482964 0.889429 0.083079 0.195745
H17   H     H_    0.447638 0.754543 0.988932 0.149244
H18   H     H_    0.398618 0.816969 0.125338 0.180426
N8    N     N_2   0.386657 0.807095 0.704910 -0.262762
H19   H     H_    0.372547 0.754748 0.788774 0.254066
C41   C     C_3   0.326607 0.858982 0.642052 -0.788237
H20   H     H_    0.286193 0.783417 0.623156 0.243698
H21   H     H_    0.342087 0.903999 0.544773 0.239337
H22   H     H_    0.303008 0.929182 0.708787 0.258391
O12   O     O_3   0.593665 0.649080 0.146420 -0.566135
C42   C     C_3   0.636917 0.735179 0.070908 -0.473117
H23   H     H_    0.605198 0.804590 0.018409 0.164383
H24   H     H_    0.671626 0.686217 0.000596 0.173469
H25   H     H_    0.672463 0.786767 0.140365 0.207744
N9    N     N_2   0.401046 0.276369 0.249750 -0.225073
H26   H     H_    0.429321 0.197728 0.231437 0.245694
C43   C     C_3   0.345060 0.251277 0.348179 -0.622071
H27   H     H_    0.366978 0.262553 0.448969 0.202565
H28   H     H_    0.324679 0.151912 0.343461 0.205744
H29   H     H_    0.301565 0.315766 0.336478 0.259605
O13   O     O_3   0.277288 0.228772 0.110630 -0.627671
C44   C     C_3   0.283811 0.096905 0.099028 -0.244433
H30   H     H_    0.337906 0.067975 0.119050 0.211222
H31   H     H_    0.266808 0.061773 0.000119 0.204857
H32   H     H_    0.248383 0.049001 0.174452 0.166697
N10   N     N_2   0.287002 0.234997 0.836095 -0.276445
H33   H     H_    0.235875 0.248619 0.865557 0.263382
C45   C     C_3   0.297986 0.207205 0.696407 -0.812005
H34   H     H_    0.254177 0.143764 0.661308 0.241439
H35   H     H_    0.347741 0.158575 0.681321 0.239041
H36   H     H_    0.298531 0.295208 0.636989 0.253152
N11   N     N_2   0.173631 0.630315 0.218752 -0.301470
H37   H     H_    0.120473 0.619525 0.202661 0.240159
C46   C     C_3   0.203905 0.747919 0.164720 -0.817211
H38   H     H_    0.183522 0.763663 0.063095 0.242773
H39   H     H_    0.261966 0.745635 0.156550 0.246811
H40   H     H_    0.189434 0.827656 0.229332 0.241314
N12   N     N_2   0.863951 0.650564 0.689469 -0.274922
H41   H     H_    0.838233 0.711592 0.750543 0.221302
C47   C     C_3   0.904285 0.562323 0.763449 -0.750540
H42   H     H_    0.936496 0.614311 0.838456 0.226528
H43   H     H_    0.940386 0.512173 0.696737 0.251618
H44   H     H_    0.869115 0.491337 0.815771 0.228527
N13   N     N_2   0.716491 0.597828 0.720842 -0.275066
H45   H     H_    0.720741 0.689979 0.752642 0.194430
C48   C     C_3   0.723693 0.503957 0.824663 -0.752039
H46   H     H_    0.755742 0.544656 0.906813 0.205732
H47   H     H_    0.749101 0.419064 0.786499 0.236442
H48   H     H_    0.671205 0.472955 0.864883 0.260780
N14   N     N_2   0.716012 0.379180 0.294835 -0.293568
H49   H     H_    0.738338 0.293026 0.301339 0.231686
C49   C     C_3   0.702974 0.416873 0.158927 -0.661128
H50   H     H_    0.742132 0.376864 0.089828 0.229641
H51   H     H_    0.705385 0.520661 0.148134 0.264673
H52   H     H_    0.649910 0.380593 0.130628 0.213804
O14   O     O_3   0.852438 0.469720 0.241451 -0.581973
C50   C     C_3   0.862945 0.575526 0.156045 -0.321288
H53   H     H_    0.877224 0.541665 0.055320 0.191405
H54   H     H_    0.907067 0.638912 0.189962 0.171957
H55   H     H_    0.814847 0.629870 0.146101 0.140196
N15   N     N_2   0.597744 0.126189 0.299336 -0.309107
H56   H     H_    0.614130 0.216787 0.323531 0.243040
C51   C     C_3   0.654161 0.054174 0.245874 -0.873693
H57   H     H_    0.691123 0.116472 0.185787 0.237671
H58   H     H_    0.632664 0.981560 0.177242 0.248718
H59   H     H_    0.683433 0.010765 0.327865 0.253793

loop_
_geom_bond_atom_site_label_1
_geom_bond_atom_site_label_2
_ccdc_geom_bond_type
C8    C9    A    
C16   C21   A    
C19   C20   A    
C32   N7    S    
C2    C12   S    
C41   H22   S    
C44   H30   S    
C23   O5    A    
C7    C8    A    
O12   C42   S    
C3    N2    A    
C1    C18   S    
N10   H33   S    
C4    N1    A    
C37   H9    S    
C14   O11   S    
C2    C32   A    
C41   H20   S    
C18   C19   A    
C46   H39   S    
C5    C6    A    
C42   H24   S    
N7    C37   S    
C15   C16   A    
O2    Zn2   S    
C37   H8    S    
C34   C35   A    
C48   H48   S    
C41   H21   S    
C15   N8    S    
C35   C36   A    
C16   C17   A    
C38   H11   S    
N11   H37   S    
C39   H13   S    
O4    Zn2   S    
C9    C10   A    
C29   O12   S    
C47   H44   S    
N13   C48   S    
N10   C45   S    
C22   C28   A    
C13   C14   A    
N11   C46   S    
C36   H5    S    
C44   H31   S    
C23   O6    A    
O7    Zn1   S    
C4    N4    A    
C9    O14   S    
C4    C34   S    
C3    N3    A    
C7    C31   S    
O11   C40   S    
C30   N6    A    
C24   C25   A    
N15   C51   S    
C11   O9    S    
C46   H40   S    
N8    C41   S    
O6    Zn2   S    
C42   H23   S    
C26   H2    S    
C47   H43   S    
C19   N15   S    
C51   H59   S    
C43   H29   S    
O3    Zn1   S    
C37   H7    S    
C40   H16   S    
C49   H51   S    
C29   C30   A    
N9    C43   S    
C47   H42   S    
C38   H12   S    
C28   N5    A    
O13   C44   S    
C39   H15   S    
C43   H28   S    
C17   C18   A    
C22   N9    S    
C30   H4    S    
C45   H35   S    
C33   H3    S    
C40   H17   S    
C48   H46   S    
C51   H58   S    
C27   N6    A    
O8    Zn2   S    
N5    Zn2   S    
C26   C27   A    
N14   H49   S    
C22   C24   A    
N7    H6    S    
N1    N2    A    
C49   H50   S    
C6    N13   S    
C45   H34   S    
C12   O4    A    
N3    N4    A    
N12   H41   S    
C2    C36   A    
O1    Zn1   S    
C11   C17   A    
C44   H32   S    
C5    N12   S    
N15   H56   S    
C42   H25   S    
C12   O3    A    
N13   H45   S    
C1    O1    A    
C6    C7    A    
C29   N5    A    
C31   O8    A    
C32   C33   A    
C21   C23   S    
C25   C26   A    
C49   H52   S    
C5    C10   A    
C3    C10   S    
C46   H38   S    
O9    C38   S    
C20   H1    S    
C11   C13   A    
C25   N10   S    
N9    H26   S    
C13   O10   S    
C50   H55   S    
C43   H27   S    
C33   C34   A    
C50   H53   S    
C45   H36   S    
C31   O7    A    
O10   C39   S    
C40   H18   S    
C48   H47   S    
C35   N11   S    
C51   H57   S    
N8    H19   S    
O5    Zn1   S    
C8    N14   S    
C20   C21   A    
C50   H54   S    
C38   H10   S    
C27   C28   A    
N14   C49   S    
C14   C15   A    
C39   H14   S    
C24   O13   S    
C1    O2    A    
O14   C50   S    
N6    Zn1   S    
N12   C47   S    
