data_mof_unit_35248.cif
_audit_creation_date              2012-12-11T16:34:02-0500
_audit_creation_method            fapswitch 2.2
_symmetry_space_group_name_H-M    P1
_symmetry_Int_Tables_number       1
_space_group_crystal_system       triclinic
_cell_length_a                    8.272056
_cell_length_b                    17.472472
_cell_length_c                    26.936929
_cell_angle_alpha                 96.082106
_cell_angle_beta                  92.408484
_cell_angle_gamma                 83.662558
_cell_volume                      3845.89745164

loop_
_atom_site_label
_atom_site_type_symbol
_atom_type_description
_atom_site_fract_x
_atom_site_fract_y
_atom_site_fract_z
_atom_type_partial_charge
Ba1   Ba    Ba6+2 0.856110 0.463800 0.523550 1.713889
Ba2   Ba    Ba6+2 0.333710 0.536130 0.476450 1.698983
C1    C     C_3   0.717096 0.191401 0.661412 0.199063
C2    C     C_R   0.963555 0.588435 0.183323 0.577466
C3    C     C_2   0.776172 0.565080 0.273633 -0.041994
C4    C     C_3   0.238493 0.246730 0.653394 0.776192
C5    C     C_3   0.745945 0.583987 0.328761 -0.076340
C6    C     C_1   0.986408 0.492916 0.344664 0.055747
C7    C     C_2   0.029796 0.488697 0.297123 -0.042348
C8    C     C_2   0.918119 0.524799 0.258363 0.254810
C9    C     C_R   0.044670 0.514938 0.104431 -0.080745
C10   C     C_R   0.046941 0.446243 0.127712 -0.041794
C11   C     C_R   0.085136 0.375235 0.098957 -0.053208
C12   C     C_3   0.689208 0.268209 0.638649 0.355345
C13   C     C_R   0.001170 0.586344 0.132440 -0.023849
C14   C     C_2   0.853651 0.534641 0.361998 -0.232607
C15   C     C_2   0.359119 0.489549 0.641304 -0.185450
C16   C     C_3   0.221318 0.213100 0.702533 -0.184261
C17   C     C_R   0.192786 0.439105 0.975728 -0.056463
C18   C     C_R   0.093312 0.577561 0.976582 0.036505
C19   C     C_R   0.158488 0.506752 0.950298 0.017364
C20   C     C_R   0.281743 0.373142 0.949720 0.365415
C21   C     C_R   0.307774 0.370919 0.898566 -0.024375
C22   C     C_R   0.263487 0.435463 0.872231 -0.116473
C23   C     C_3   0.544849 0.663831 0.631327 0.641110
C24   C     C_R   0.191525 0.504019 0.898296 -0.084060
C25   C     C_R   0.153294 0.570090 0.872421 -0.019364
C26   C     C_R   0.187833 0.566849 0.821124 0.588747
C27   C     C_R   0.296727 0.433850 0.820821 0.618735
C28   C     C_3   0.170372 0.291920 0.408983 0.672298
C29   C     C_2   0.459871 0.485886 0.730027 -0.047358
C30   C     C_3   0.505495 0.492950 0.676629 -0.066915
C31   C     C_1   0.213822 0.517605 0.657191 0.106811
C32   C     C_2   0.173104 0.516005 0.704258 -0.039127
C33   C     C_2   0.302128 0.498537 0.743665 0.245103
C34   C     C_3   0.643056 0.678013 0.680455 0.235471
C35   C     C_R   0.138155 0.440528 0.025778 0.013546
C36   C     C_R   0.084675 0.512308 0.052966 0.060762
C37   C     C_R   0.068764 0.581430 0.029006 0.021107
C38   C     C_R   0.127249 0.372420 0.049010 -0.111335
C39   C     C_R   0.996123 0.654583 0.109054 -0.057505
C40   C     C_3   0.115206 0.210705 0.397159 0.197872
C41   C     C_R   0.053436 0.642234 0.949252 -0.097994
C42   C     C_R   0.082528 0.638431 0.898440 -0.051433
C43   C     C_R   0.027984 0.652278 0.058509 -0.104581
C44   C     C_R   0.412998 0.276875 0.519871 -0.266350
C45   C     C_3   0.981586 0.757234 0.343004 0.296697
C46   C     C_R   0.554389 0.251765 0.493711 0.064011
C47   C     C_R   0.605045 0.170676 0.485547 0.353986
C48   C     C_R   0.511313 0.117722 0.503788 -0.002414
C49   C     C_R   0.366225 0.144545 0.528334 -0.231462
C50   C     C_R   0.316445 0.224107 0.535659 -0.024952
C51   C     C_R   0.579105 0.832600 0.502724 -0.119066
C52   C     C_3   0.990861 0.696509 0.578565 0.320669
C53   C     C_R   0.634374 0.753609 0.498584 0.043505
C54   C     C_R   0.869966 0.777620 0.455139 -0.020647
C55   C     C_R   0.816387 0.857432 0.459228 -0.123996
C56   C     C_3   0.020086 0.779473 0.292135 -0.295700
C57   C     C_R   0.668220 0.884952 0.482434 -0.006369
C58   C     C_1   0.612354 0.966943 0.489393 0.022028
C59   C     C_1   0.564245 0.035264 0.496084 0.094154
C60   C     C_R   0.774338 0.726198 0.472778 -0.276067
C61   C     C_3   0.959583 0.783737 0.591094 -0.370511
C62   C     C_3   0.677134 0.367224 0.372908 0.392268
C63   C     C_3   0.702828 0.339221 0.317488 0.576530
C64   C     C_3   0.504752 0.744860 0.360092 0.423588
C65   C     C_3   0.464108 0.820737 0.337130 -0.354362
C66   C     C_R   0.005860 0.449980 0.178716 0.615306
H1    H     H_    0.800669 0.275742 0.619117 0.119138
H2    H     H_    0.822874 0.303723 0.313923 0.117031
H3    H     H_    0.586088 0.266252 0.611058 -0.077003
H4    H     H_    0.608823 0.182301 0.682377 0.042780
H5    H     H_    0.775188 0.673143 0.672921 0.026367
H6    H     H_    0.822774 0.192774 0.688207 0.103508
H7    H     H_    0.332949 0.218878 0.726422 0.101204
H8    H     H_    0.940645 0.698494 0.338153 0.010675
H9    H     H_    0.882626 0.800399 0.358267 -0.021022
H10   H     H_    0.117648 0.737433 0.274956 0.170385
H11   H     H_    0.909056 0.779916 0.267511 0.119312
H12   H     H_    0.192575 0.176822 0.367891 0.039737
H13   H     H_    0.060735 0.838334 0.295994 0.090192
H14   H     H_    0.639637 0.733113 0.361573 -0.140822
H15   H     H_    0.459823 0.752005 0.398778 0.070016
H16   H     H_    0.331269 0.838256 0.337374 0.142927
H17   H     H_    0.081263 0.321111 0.114897 0.133478
H18   H     H_    0.372277 0.319065 0.880022 0.148811
H19   H     H_    0.145410 0.315765 0.028550 0.141156
H20   H     H_    0.965601 0.710595 0.129757 0.120936
H21   H     H_    0.995206 0.696556 0.965920 0.074833
H22   H     H_    0.345435 0.212871 0.634808 -0.171543
H23   H     H_    0.129011 0.179919 0.431443 0.018089
H24   H     H_    0.049524 0.689909 0.879533 0.131845
H25   H     H_    0.047316 0.529670 0.714833 0.093975
H26   H     H_    0.023643 0.707515 0.043815 0.074923
H27   H     H_    0.375403 0.466919 0.602492 0.048368
H28   H     H_    0.471413 0.853572 0.523737 0.087432
H29   H     H_    0.291556 0.103863 0.541180 0.103456
H30   H     H_    0.891236 0.897572 0.445865 0.087629
H31   H     H_    0.372042 0.338096 0.525178 0.070098
H32   H     H_    0.115260 0.244276 0.722756 0.115759
H33   H     H_    0.817381 0.665221 0.470926 0.052858
H34   H     H_    0.876355 0.673182 0.565330 -0.033846
H35   H     H_    0.203268 0.150795 0.695292 0.051471
H36   H     H_    0.120961 0.317084 0.445582 0.026775
H37   H     H_    0.929466 0.161916 0.369065 0.309749
H38   H     H_    0.918382 0.812197 0.557338 0.067576
H39   H     H_    0.645058 0.119366 0.607667 0.296324
H40   H     H_    0.594086 0.420533 0.280133 0.343799
H41   H     H_    0.610581 0.240780 0.306147 0.305274
H42   H     H_    0.337350 0.719375 0.651528 0.344029
H43   H     H_    0.590395 0.605183 0.614287 -0.021550
H44   H     H_    0.647526 0.789321 0.689642 0.318718
H45   H     H_    0.080778 0.684351 0.548655 0.086501
H46   H     H_    0.625171 0.632970 0.705191 0.043177
H47   H     H_    0.526840 0.866854 0.359090 0.066054
H48   H     H_    0.331180 0.337637 0.637553 0.246695
H49   H     H_    0.505497 0.814343 0.298073 0.113385
H50   H     H_    0.146652 0.458809 0.285885 0.111984
H51   H     H_    0.556024 0.476186 0.758072 0.083970
H52   H     H_    0.402962 0.334976 0.006169 0.304931
H53   H     H_    0.692102 0.591875 0.246910 0.090022
H54   H     H_    0.834465 0.544856 0.401849 0.065583
H55   H     H_    0.801859 0.181809 0.451029 0.348793
H56   H     H_    0.864437 0.797538 0.619503 0.123443
H57   H     H_    0.378130 0.266724 0.377992 0.316125
H58   H     H_    0.073341 0.807180 0.606044 0.132981
H59   H     H_    0.785789 0.393615 0.388907 -0.094527
H60   H     H_    0.569277 0.410694 0.376469 0.056188
N1    N     N_R   0.964236 0.520731 0.206092 -0.431217
N2    N     N_R   0.260016 0.499368 0.795882 -0.430362
O1    O     O_2   0.910880 0.540430 0.617910 -0.505071
O2    O     O_2   0.204365 0.773281 0.468295 -0.490166
O3    O     O_3   0.121991 0.757833 0.374046 -0.573963
O4    O     O_3   0.142880 0.540370 0.557740 -0.484304
O5    O     O_3   0.562610 0.408580 0.475460 -0.477392
O6    O     O_2   0.365880 0.685750 0.523280 -0.437539
O7    O     O_3   0.565896 0.722179 0.600725 -0.677761
O8    O     O_2   0.424397 0.534438 0.321731 -0.491729
O9    O     O_3   0.429859 0.685452 0.331418 -0.567372
O10   O     O_2   0.005143 0.390184 0.198429 -0.554827
O11   O     O_2   0.358114 0.374022 0.798264 -0.573314
O12   O     O_3   0.653430 0.302873 0.397380 -0.608391
O13   O     O_2   0.930639 0.650973 0.207487 -0.629460
O14   O     O_2   0.155975 0.624635 0.799143 -0.578496
O15   O     O_3   0.675650 0.402220 0.588450 -0.503768
O16   O     O_2   0.841914 0.436687 0.672757 -0.468641
O17   O     O_3   0.049959 0.663956 0.621837 -0.601067
O18   O     O_3   0.653325 0.328503 0.676679 -0.615699
O19   O     O_2   0.823810 0.314230 0.476690 -0.473048
O20   O     O_3   0.086630 0.363340 0.564170 -0.468810
O21   O     O_2   0.979498 0.227515 0.533184 -0.467952
O22   O     O_3   0.952975 0.215706 0.380035 -0.738830
O23   O     O_3   0.094903 0.238883 0.624329 -0.601512
O24   O     O_3   0.751026 0.130273 0.624008 -0.715474
O25   O     O_3   0.707686 0.402120 0.289637 -0.756795
O26   O     O_3   0.578116 0.294692 0.298282 -0.712786
O27   O     O_3   0.379772 0.664854 0.641226 -0.752149
O28   O     O_3   0.592805 0.750760 0.705484 -0.689705
O29   O     O_3   0.261694 0.325146 0.663999 -0.713348
O30   O     O_3   0.360385 0.312863 0.973422 -0.724909
O31   O     O_3   0.740442 0.140035 0.458990 -0.727844
O32   O     O_3   0.339232 0.285000 0.412044 -0.813019
O33   O     O_2   0.278810 0.459550 0.382060 -0.451441
O34   O     O_3   0.046820 0.459570 0.442260 -0.505693
O35   O     O_3   0.514050 0.597710 0.411540 -0.477607
O36   O     O_3   0.117503 0.337323 0.370391 -0.624653
O37   O     O_3   0.627090 0.591350 0.524530 -0.485566
O38   O     O_3   0.103080 0.636600 0.435820 -0.474998
P1    P     P_3+3 0.078810 0.562990 0.610370 1.044062
P2    P     P_3+3 0.645380 0.325580 0.462150 1.064350
P3    P     P_3+3 0.121037 0.262313 0.563693 0.985382
P4    P     P_3+3 0.110900 0.436950 0.389630 1.036456
P5    P     P_3+3 0.073338 0.737463 0.433431 0.955526
P6    P     P_3+3 0.670444 0.417416 0.653693 0.971558
P7    P     P_3+3 0.550664 0.688725 0.537130 0.965369
P8    P     P_3+3 0.527920 0.596991 0.347086 0.980216

loop_
_geom_bond_atom_site_label_1
_geom_bond_atom_site_label_2
_ccdc_geom_bond_type
C49   H29   S    
C44   H31   S    
C53   C60   A    
O36   P4    S    
C16   H7    S    
C12   O18   S    
C12   H3    S    
Ba1   Ba2   S    
Ba1   O15   S    
H57   O32   S    
C32   H25   S    
C19   C24   A    
C34   H46   S    
C2    O13   D    
C4    O29   S    
C51   C57   A    
O35   P8    S    
C40   H12   S    
C10   C66   A    
C24   C25   A    
Ba2   O4    S    
H44   O28   S    
C38   H19   S    
C17   C19   A    
C22   C24   A    
C45   H8    S    
O7    P7    S    
C63   O26   S    
C36   C37   A    
H55   O31   S    
C55   C57   A    
C52   C61   S    
Ba1   O37   S    
C63   H2    S    
C52   H45   S    
C44   C50   A    
Ba1   P2    S    
O21   P3    D    
C54   C55   A    
C32   C33   S    
O5    P2    S    
C1    H6    S    
H41   O26   S    
C65   H47   S    
C22   C27   A    
C11   C38   A    
C14   H54   S    
C17   C35   A    
C64   H15   S    
C9    C13   A    
C25   C42   A    
C64   O9    S    
C29   C30   S    
Ba1   O34   S    
C6    C7    D    
C62   H60   S    
O4    P1    S    
C21   C22   A    
Ba1   O19   S    
C26   O14   D    
C40   O22   S    
C7    C8    S    
C47   O31   S    
C42   H24   S    
C34   O28   S    
C37   C43   A    
C60   H33   S    
C64   C65   S    
O6    P7    D    
C31   P1    S    
C57   C58   S    
C6    C14   D    
C45   O3    S    
C51   H28   S    
C7    H50   S    
O9    P8    S    
C16   H32   S    
C43   H26   S    
C50   P3    S    
C45   H9    S    
C61   H56   S    
C51   C53   A    
O38   P5    S    
C4    C16   S    
C44   C46   A    
O19   P2    D    
H39   O24   S    
C17   C20   A    
C6    P4    S    
C28   O36   S    
H48   O29   S    
C56   H13   S    
Ba2   O34   S    
C3    C5    S    
C18   C37   A    
C56   H10   S    
C4    H22   S    
C30   P6    S    
C21   H18   S    
C1    O24   S    
O18   P6    S    
C49   C50   A    
C58   C59   T    
C53   P7    S    
C9    C36   A    
C23   O7    S    
C41   C42   A    
C35   C36   A    
C64   H14   S    
O20   P3    S    
C33   N2    S    
C62   H59   S    
C27   O11   D    
C5    P8    S    
O23   P3    S    
C48   C49   A    
Ba1   O20   S    
C15   C31   D    
C41   H21   S    
C18   C19   A    
C61   H38   S    
O33   P4    D    
C65   H49   S    
Ba2   O35   S    
C13   C39   A    
H42   O27   S    
C56   H11   S    
C15   H27   S    
C46   C47   A    
C62   O12   S    
C23   O27   S    
C12   H1    S    
C54   C60   A    
C66   O10   D    
C28   O32   S    
C28   H36   S    
Ba1   O4    S    
Ba2   O38   S    
C18   C41   A    
O37   P7    S    
C46   P2    S    
C15   C30   S    
C39   H20   S    
O1    P1    D    
C3    H53   S    
O15   P6    S    
C52   H34   S    
C5    C14   S    
Ba1   O1    S    
Ba2   O33   S    
C9    C10   A    
C2    N1    Am   
C29   H51   S    
C1    C12   S    
C35   C38   A    
Ba2   O5    S    
O12   P2    S    
C54   P5    S    
C62   C63   S    
C2    C13   A    
C1    H4    S    
C8    N1    S    
C3    C8    D    
C63   O25   S    
C45   C56   S    
O8    P8    D    
C16   H35   S    
H40   O25   S    
C20   O30   S    
C55   H30   S    
O16   P6    D    
C29   C33   D    
Ba1   P1    S    
C31   C32   D    
C26   N2    Am   
O2    P5    D    
C66   N1    Am   
Ba2   O6    S    
C4    O23   S    
O34   P4    S    
C34   H5    S    
C23   H43   S    
C23   C34   S    
C27   N2    Am   
O17   P1    S    
C61   H58   S    
C65   H16   S    
C10   C11   A    
C47   C48   A    
C11   H17   S    
C25   C26   A    
H52   O30   S    
C48   C59   S    
C39   C43   A    
C20   C21   A    
C28   C40   S    
H37   O22   S    
Ba1   O5    S    
O3    P5    S    
Ba2   O37   S    
C40   H23   S    
Ba2   P4    S    
C52   O17   S    
