data_mof_unit_49523.cif
_audit_creation_date              2012-12-10T20:02:29-0500
_audit_creation_method            fapswitch 2.2
_symmetry_space_group_name_H-M    P1
_symmetry_Int_Tables_number       1
_space_group_crystal_system       triclinic
_cell_length_a                    10.750868
_cell_length_b                    14.799969
_cell_length_c                    14.141976
_cell_angle_alpha                 88.115392
_cell_angle_beta                  91.364642
_cell_angle_gamma                 89.378344
_cell_volume                      2248.15796099

loop_
_atom_site_label
_atom_site_type_symbol
_atom_type_description
_atom_site_fract_x
_atom_site_fract_y
_atom_site_fract_z
_atom_type_partial_charge
C1    C     C_R   0.495238 0.326678 0.501537 0.861397
C2    C     C_R   0.494635 0.826568 0.413530 0.195324
C3    C     C_R   0.464470 0.230861 0.504506 -0.054485
C4    C     C_R   0.467500 0.770049 0.493324 -0.040306
C5    C     C_R   0.396030 0.197498 0.427571 -0.237528
C6    C     C_R   0.400841 0.805021 0.568390 -0.257613
C7    C     C_R   0.363753 0.107233 0.426503 -0.196203
C8    C     C_R   0.366608 0.895325 0.567416 -0.202564
C9    C     C_R   0.399308 0.049404 0.502517 0.079816
C10   C     C_R   0.399825 0.952220 0.491846 0.074350
C11   C     C_R   0.405217 0.456690 0.105274 -0.299758
C12   C     C_R   0.496510 0.673493 0.498084 0.863732
C13   C     C_R   0.551394 0.571782 0.893252 -0.301738
C14   C     C_R   0.407997 0.456848 0.204629 0.027174
C15   C     C_R   0.551764 0.569982 0.794052 0.028950
C16   C     C_R   0.260216 0.498551 0.498673 0.900499
C17   C     C_R   0.740366 0.502194 0.501689 0.903292
C18   C     C_R   0.591182 0.543514 0.204537 0.018683
C19   C     C_R   0.446497 0.430696 0.796767 0.028579
C20   C     C_R   0.593196 0.543782 0.105307 -0.287842
C21   C     C_R   0.446176 0.428921 0.896112 -0.285802
C22   C     C_R   0.499088 0.500201 0.053380 0.140733
C23   C     C_R   0.873450 0.508534 0.506315 -0.150734
C24   C     C_R   0.498926 0.500252 0.946593 0.139369
C25   C     C_R   0.221520 0.757826 0.317918 -0.121371
C26   C     C_R   0.813828 0.307699 0.774523 -0.151392
C27   C     C_R   0.167546 0.701425 0.386320 -0.166064
C28   C     C_R   0.856151 0.334726 0.685213 -0.159929
C29   C     C_R   0.127203 0.615034 0.362609 0.174755
C30   C     C_R   0.886528 0.425304 0.666278 0.195688
C31   C     C_R   0.143178 0.585241 0.270405 -0.115199
C32   C     C_R   0.873220 0.488462 0.737536 -0.119120
C33   C     C_R   0.199948 0.641102 0.202886 -0.141668
C34   C     C_R   0.127891 0.496289 0.495677 -0.145604
C35   C     C_R   0.829471 0.461383 0.826197 -0.143957
C36   C     C_R   0.238809 0.727442 0.226569 -0.122624
C37   C     C_R   0.799454 0.371069 0.844625 -0.094315
C38   C     C_R   0.933681 0.563849 0.438969 0.153983
C39   C     C_R   0.067758 0.441336 0.563105 0.143376
C40   C     C_3   0.864471 0.635752 0.378624 -0.899238
C41   C     C_3   0.136617 0.368128 0.622599 -0.860915
C42   C     C_3   0.571154 0.203443 0.666961 -0.917048
C43   C     C_3   0.562828 0.794114 0.328774 -0.922947
C44   C     C_R   0.941163 0.455049 0.574910 -0.078376
C45   C     C_R   0.062320 0.556922 0.433123 -0.072424
C46   C     C_R   0.460862 0.082922 0.581829 -0.160049
C47   C     C_R   0.460404 0.917543 0.414375 -0.187389
C48   C     C_R   0.494788 0.173196 0.583749 0.186858
H1    H     H_    0.316555 0.081477 0.364602 0.135282
H2    H     H_    0.819467 0.510338 0.880775 0.126124
H3    H     H_    0.490731 0.036940 0.639421 0.134365
H4    H     H_    0.487658 0.962877 0.356939 0.138751
H5    H     H_    0.281687 0.770997 0.174033 0.123938
H6    H     H_    0.765786 0.350118 0.913364 0.127459
H7    H     H_    0.662985 0.578031 0.243331 0.130527
H8    H     H_    0.403439 0.376553 0.758930 0.116704
H9    H     H_    0.669180 0.577031 0.070068 0.128353
H10   H     H_    0.405849 0.371397 0.932652 0.131263
H11   H     H_    0.249276 0.825318 0.335539 0.145009
H12   H     H_    0.320069 0.921954 0.627844 0.139916
H13   H     H_    0.792270 0.237518 0.789509 0.133783
H14   H     H_    0.111742 0.518909 0.251094 0.111074
H15   H     H_    0.897622 0.558506 0.724444 0.114799
H16   H     H_    0.909390 0.702351 0.386182 0.234223
H17   H     H_    0.865075 0.617533 0.303161 0.238035
H18   H     H_    0.767910 0.646458 0.400638 0.237279
H19   H     H_    0.084847 0.303883 0.620712 0.223692
H20   H     H_    0.229295 0.350728 0.595304 0.235885
H21   H     H_    0.147116 0.389219 0.696969 0.244130
H22   H     H_    0.516678 0.250802 0.709111 0.255032
H23   H     H_    0.328789 0.423733 0.069820 0.130832
H24   H     H_    0.601285 0.145970 0.714922 0.220769
H25   H     H_    0.655587 0.236448 0.640309 0.246019
H26   H     H_    0.654446 0.765737 0.351696 0.237805
H27   H     H_    0.507420 0.743062 0.291180 0.268924
H28   H     H_    0.580199 0.850015 0.276586 0.225544
H29   H     H_    0.368768 0.241028 0.367350 0.159612
H30   H     H_    0.375363 0.762510 0.628538 0.167007
H31   H     H_    0.591024 0.629509 0.927370 0.130365
H32   H     H_    0.335687 0.422993 0.243616 0.116731
H33   H     H_    0.593521 0.624902 0.754232 0.124185
H34   H     H_    0.154719 0.725563 0.456942 0.125536
H35   H     H_    0.866891 0.285083 0.631375 0.114270
H36   H     H_    0.212900 0.617750 0.132025 0.132545
N1    N     N_R   0.500000 0.499980 0.252470 -0.085933
N2    N     N_R   0.500000 0.500020 0.747530 -0.083219
O1    O     O_R   0.500010 0.369070 0.579480 -0.617806
O2    O     O_R   0.499990 0.630930 0.420520 -0.607679
O3    O     O_R   0.500010 0.369060 0.420520 -0.621347
O4    O     O_R   0.499990 0.630940 0.579480 -0.636565
O5    O     O_R   0.316760 0.500010 0.579480 -0.611893
O6    O     O_R   0.683240 0.499990 0.420520 -0.613438
O7    O     O_R   0.316760 0.500000 0.420520 -0.626136
O8    O     O_R   0.683240 0.500000 0.579480 -0.613373
Zn1   Zn    Zn3+2 0.500000 0.500010 0.606140 0.943677
Zn2   Zn    Zn3+2 0.500000 0.499990 0.393860 0.945587

loop_
_geom_bond_atom_site_label_1
_geom_bond_atom_site_label_2
_ccdc_geom_bond_type
C19   H8    S    
C1    O1    A    
C38   C40   S    
O2    Zn2   S    
C27   C29   A    
C42   H22   S    
C19   N2    A    
C13   H31   S    
O4    Zn1   S    
C39   C41   S    
C16   O7    A    
C17   C23   S    
C12   O4    A    
C35   C37   A    
C26   H13   S    
N1    Zn2   S    
C11   H23   S    
C6    H30   S    
C3    C48   A    
O6    Zn2   S    
C33   C36   A    
C38   C45   A    
C36   H5    S    
C16   C34   S    
O1    Zn1   S    
C31   C33   A    
C14   H32   S    
C4    C12   S    
C9    C10   S    
C43   H26   S    
C9    C46   A    
C40   H18   S    
C28   H35   S    
C31   H14   S    
C30   C44   S    
C17   O6    A    
C41   H20   S    
C43   H27   S    
C46   C48   A    
C15   H33   S    
C18   N1    A    
C12   O2    A    
C34   C39   A    
C32   C35   A    
C32   H15   S    
C41   H19   S    
C5    C7    A    
C6    C8    A    
C46   H3    S    
C23   C44   A    
C13   C24   A    
C29   C45   S    
C1    C3    S    
C2    C4    A    
C2    C43   S    
C35   H2    S    
C42   H24   S    
C34   C45   A    
C42   C48   S    
C7    H1    S    
C47   H4    S    
C18   H7    S    
C15   N2    A    
C37   H6    S    
C4    C6    A    
C20   C22   A    
O7    Zn2   S    
C40   H17   S    
C13   C15   A    
C22   C24   S    
C5    H29   S    
C41   H21   S    
C43   H28   S    
C7    C9    A    
C42   H25   S    
C1    O3    A    
C19   C21   A    
C27   H34   S    
C14   N1    A    
C3    C5    A    
C26   C37   A    
C39   C44   A    
C2    C47   A    
C25   C27   A    
C23   C38   A    
C11   C22   A    
C26   C28   A    
C40   H16   S    
O3    Zn2   S    
C28   C30   A    
C21   H10   S    
C29   C31   A    
C8    H12   S    
C30   C32   A    
C11   C14   A    
C18   C20   A    
O8    Zn1   S    
C33   H36   S    
N2    Zn1   S    
C25   C36   A    
O5    Zn1   S    
C16   O5    A    
C8    C10   A    
C21   C24   A    
C10   C47   A    
C17   O8    A    
C25   H11   S    
C20   H9    S    
