data_mof_unit_66911.cif
_audit_creation_date              2013-03-05T15:57:26-0500
_audit_creation_method            fapswitch 2.2
_symmetry_space_group_name_H-M    P1
_symmetry_Int_Tables_number       1
_space_group_crystal_system       triclinic
_cell_length_a                    17.147102
_cell_length_b                    18.898568
_cell_length_c                    8.376408
_cell_angle_alpha                 89.974195
_cell_angle_beta                  101.482275
_cell_angle_gamma                 90.243432
_cell_volume                      2660.07276172

loop_
_atom_site_label
_atom_site_type_symbol
_atom_site_description
_atom_site_fract_x
_atom_site_fract_y
_atom_site_fract_z
_atom_type_partial_charge
P1    P     P_3+3 0.834140 0.419320 0.003900 0.459743
P2    P     P_3+3 0.834140 0.580680 0.503900 0.461570
P3    P     P_3+3 0.334140 0.919320 0.003900 0.458455
P4    P     P_3+3 0.334140 0.080680 0.503900 0.462923
O1    O     O_2   0.841960 0.394640 0.833410 -0.372574
O2    O     O_2   0.841960 0.605360 0.333410 -0.374878
O3    O     O_2   0.341960 0.894640 0.833410 -0.361272
O4    O     O_2   0.341960 0.105360 0.333410 -0.381551
O5    O     O_3   0.907950 0.463080 0.102990 -0.400345
O6    O     O_3   0.907950 0.536920 0.602990 -0.397816
O7    O     O_3   0.407950 0.963080 0.102990 -0.408227
O8    O     O_3   0.407950 0.036920 0.602990 -0.389813
O9    O     O_3   0.972780 0.329600 0.629720 -0.394186
O10   O     O_3   0.972780 0.670400 0.129720 -0.384101
O11   O     O_3   0.472780 0.829600 0.629720 -0.386049
O12   O     O_3   0.472780 0.170400 0.129720 -0.388788
O13   O     O_2   0.849471 0.266580 0.707718 -0.386733
O14   O     O_2   0.850221 0.731229 0.209547 -0.390786
O15   O     O_2   0.348964 0.770323 0.707139 -0.383806
O16   O     O_2   0.350463 0.230193 0.210944 -0.384017
O17   O     O_3   0.748750 0.471809 0.959882 -0.571089
O18   O     O_3   0.748833 0.527403 0.461218 -0.570811
O19   O     O_3   0.249300 0.972715 0.960149 -0.565666
O20   O     O_3   0.250836 0.024785 0.467421 -0.567549
O21   O     O_3   0.961530 0.185565 0.637674 -0.536063
O22   O     O_3   0.965807 0.811146 0.149527 -0.525730
O23   O     O_3   0.465723 0.689568 0.659951 -0.525823
O24   O     O_3   0.466903 0.310600 0.156916 -0.524805
H1    H     H_    0.068050 0.234334 0.735784 0.173513
H2    H     H_    0.077658 0.766368 0.198315 0.153689
H3    H     H_    0.574657 0.740309 0.718634 0.167506
H4    H     H_    0.576448 0.261955 0.215549 0.165248
C1    C     C_3   0.090293 0.133860 0.636688 -1.049999
C2    C     C_3   0.084032 0.871484 0.105484 -1.051325
C3    C     C_3   0.591029 0.634067 0.646474 -1.040401
C4    C     C_3   0.590553 0.367210 0.131719 -1.045819
H5    H     H_    0.655387 0.646383 0.675446 0.237444
H6    H     H_    0.655056 0.356206 0.156618 0.238029
H7    H     H_    0.153488 0.145687 0.689196 0.239496
H8    H     H_    0.147884 0.862837 0.108337 0.240425
H9    H     H_    0.068334 0.093514 0.713203 0.281153
H10   H     H_    0.078330 0.903241 0.213020 0.277912
H11   H     H_    0.576590 0.602226 0.746830 0.280156
H12   H     H_    0.578024 0.400592 0.231201 0.276644
P5    P     P_3+3 0.165830 0.418670 0.685610 0.444144
P6    P     P_3+3 0.165830 0.581330 0.185610 0.446336
P7    P     P_3+3 0.665830 0.918670 0.685610 0.438317
P8    P     P_3+3 0.665830 0.081330 0.185610 0.455538
P9    P     P_3+3 0.104511 0.268204 0.112564 0.421182
P10   P     P_3+3 0.104677 0.732322 0.610589 0.438169
P11   P     P_3+3 0.603975 0.767696 0.111679 0.430033
P12   P     P_3+3 0.604232 0.232441 0.609802 0.430614
O25   O     O_2   0.157990 0.394030 0.856030 -0.389363
O26   O     O_2   0.157990 0.605970 0.356030 -0.388114
O27   O     O_2   0.657990 0.894030 0.856030 -0.390233
O28   O     O_2   0.657990 0.105970 0.356030 -0.369777
O29   O     O_3   0.027110 0.329490 0.059550 -0.389237
O30   O     O_3   0.027110 0.670510 0.559550 -0.391931
O31   O     O_3   0.527110 0.829490 0.059550 -0.382818
O32   O     O_3   0.527110 0.170510 0.559550 -0.386835
O33   O     O_2   0.160987 0.275318 0.991271 -0.409826
O34   O     O_2   0.160170 0.725695 0.487286 -0.395374
O35   O     O_2   0.661119 0.775538 0.991862 -0.408236
O36   O     O_2   0.659697 0.225621 0.486573 -0.410747
O37   O     O_3   0.250167 0.471283 0.725011 -0.606462
O38   O     O_3   0.249466 0.528585 0.225819 -0.607465
O39   O     O_3   0.750337 0.972044 0.723066 -0.619301
O40   O     O_3   0.747490 0.027597 0.253349 -0.570729
O41   O     O_3   0.061268 0.185472 0.067860 -0.521757
O42   O     O_3   0.061909 0.815238 0.567762 -0.520632
O43   O     O_3   0.560774 0.684983 0.064212 -0.516995
O44   O     O_3   0.561047 0.315204 0.567101 -0.518916
C5    C     C_3   0.986987 0.186597 0.114031 0.499086
C6    C     C_3   0.983699 0.811548 0.594149 0.543750
C7    C     C_3   0.486841 0.684172 0.112363 0.516723
C8    C     C_3   0.486266 0.313995 0.611575 0.516247
H13   H     H_    0.944746 0.220808 0.029990 0.137579
H14   H     H_    0.944111 0.787527 0.486391 0.148620
H15   H     H_    0.440686 0.707116 0.013918 0.134065
H16   H     H_    0.441619 0.289366 0.512388 0.138093
H17   H     H_    0.991640 0.204449 0.242124 0.023893
H18   H     H_    0.978829 0.781190 0.705640 0.024737
H19   H     H_    0.487212 0.713283 0.227920 0.020583
H20   H     H_    0.486548 0.285291 0.727583 0.021194
C9    C     C_3   0.953705 0.112863 0.099761 -1.093223
C10   C     C_3   0.955697 0.885301 0.617189 -1.157528
C11   C     C_3   0.465288 0.608427 0.139976 -1.124109
C12   C     C_3   0.461915 0.389133 0.635204 -1.118375
H21   H     H_    0.403779 0.605998 0.162544 0.245440
H22   H     H_    0.399851 0.389939 0.654926 0.244566
H23   H     H_    0.891343 0.113966 0.117465 0.232501
H24   H     H_    0.892196 0.883156 0.627482 0.236971
H25   H     H_    0.956055 0.093403 0.976391 0.280709
H26   H     H_    0.963624 0.918652 0.512660 0.286591
H27   H     H_    0.470054 0.577540 0.030674 0.282046
H28   H     H_    0.466962 0.419486 0.525294 0.281720
C13   C     C_3   0.235503 0.456050 0.234851 0.228264
C14   C     C_3   0.237087 0.543852 0.733934 0.224685
C15   C     C_3   0.729882 0.955083 0.241949 0.257139
C16   C     C_3   0.735142 0.044566 0.711754 0.244763
H29   H     H_    0.223665 0.442852 0.356464 0.061565
H30   H     H_    0.225168 0.557234 0.855354 0.061512
H31   H     H_    0.716990 0.937194 0.359217 0.061099
H32   H     H_    0.723960 0.063404 0.830168 0.034551
H33   H     H_    0.185169 0.437714 0.139548 0.159961
H34   H     H_    0.187086 0.562171 0.638327 0.158760
H35   H     H_    0.679310 0.940927 0.142757 0.154202
H36   H     H_    0.683008 0.057657 0.617079 0.170134
C17   C     C_3   0.312856 0.420622 0.210382 -0.463793
C18   C     C_3   0.314969 0.579081 0.709975 -0.459650
C19   C     C_3   0.804179 0.917900 0.209658 -0.495794
C20   C     C_3   0.809300 0.082211 0.673359 -0.370558
H37   H     H_    0.360793 0.429925 0.317072 0.205430
H38   H     H_    0.362768 0.569679 0.816883 0.205743
H39   H     H_    0.852391 0.919969 0.318073 0.207147
H40   H     H_    0.844964 0.103379 0.788180 0.169792
H41   H     H_    0.303378 0.362655 0.196071 0.209854
H42   H     H_    0.306168 0.637059 0.696215 0.208457
H43   H     H_    0.790491 0.861113 0.183013 0.212809
H44   H     H_    0.789689 0.128945 0.600016 0.196766
Ba1   Ba    Ba6+2 0.000000 0.447380 0.844850 1.520052
Ba2   Ba    Ba6+2 0.000000 0.552620 0.344850 1.521647
Ba3   Ba    Ba6+2 0.500000 0.947380 0.844850 1.522508
Ba4   Ba    Ba6+2 0.500000 0.052620 0.344850 1.526341
C21   C     C_3   0.766651 0.543742 0.945989 0.363082
C22   C     C_3   0.766946 0.456108 0.440582 0.357449
C23   C     C_3   0.268601 0.044020 0.940253 0.367116
C24   C     C_3   0.269212 0.959189 0.405924 0.369105
H45   H     H_    0.758101 0.557358 0.814901 0.078424
H46   H     H_    0.757687 0.444546 0.308382 0.079075
H47   H     H_    0.262062 0.055120 0.808350 0.090606
H48   H     H_    0.255200 0.961521 0.271350 0.095460
H49   H     H_    0.827529 0.559923 0.006996 0.137099
H50   H     H_    0.828124 0.440125 0.499079 0.136038
H51   H     H_    0.329209 0.060043 0.003243 0.134500
H52   H     H_    0.332181 0.943013 0.447271 0.118581
C25   C     C_3   0.708193 0.585377 0.022549 -0.865343
C26   C     C_3   0.709518 0.411989 0.515446 -0.856616
C27   C     C_3   0.209983 0.088972 0.009078 -0.880837
C28   C     C_3   0.217001 0.902970 0.461902 -0.867154
H53   H     H_    0.646641 0.568149 0.972059 0.259804
H54   H     H_    0.647506 0.427125 0.464127 0.259556
H55   H     H_    0.148292 0.075321 0.949915 0.267927
H56   H     H_    0.155421 0.922681 0.451799 0.269025
H57   H     H_    0.715390 0.642883 0.003102 0.252756
H58   H     H_    0.718711 0.354907 0.495410 0.250381
H59   H     H_    0.221656 0.145918 0.991543 0.251371
H60   H     H_    0.216851 0.853894 0.389444 0.229409
H61   H     H_    0.717605 0.573408 0.153860 0.272164
H62   H     H_    0.718257 0.423632 0.646903 0.272683
H63   H     H_    0.215203 0.077567 0.140175 0.264137
H64   H     H_    0.239728 0.890374 0.590930 0.276999
O45   O     O_3   0.092100 0.536880 0.086720 -0.385983
O46   O     O_3   0.092100 0.463120 0.586720 -0.385764
O47   O     O_3   0.592100 0.036880 0.086720 -0.397333
O48   O     O_3   0.592100 0.963120 0.586720 -0.392952
P13   P     P_3+3 0.905217 0.737942 0.084719 0.429935
P14   P     P_3+3 0.904249 0.261638 0.582092 0.420926
P15   P     P_3+3 0.405641 0.238230 0.086851 0.428569
P16   P     P_3+3 0.405409 0.761557 0.585913 0.431816
C29   C     C_3   0.041308 0.201028 0.630036 0.518657
C30   C     C_3   0.040657 0.801100 0.106641 0.494994
C31   C     C_3   0.542748 0.701799 0.628748 0.513151
C32   C     C_3   0.543360 0.298568 0.123155 0.514676
H65   H     H_    0.045614 0.228963 0.515570 0.027044
H66   H     H_    0.035202 0.777343 0.983592 0.025751
H67   H     H_    0.540583 0.722103 0.503596 0.018029
H68   H     H_    0.540437 0.275782 0.999977 0.017877
H69   H     H_    0.578133 0.602837 0.532044 0.259955
H70   H     H_    0.575021 0.396597 0.015191 0.261221
H71   H     H_    0.087291 0.112535 0.512037 0.252976
H72   H     H_    0.059712 0.901829 0.993870 0.263870
H73   H     H_    0.507447 0.586219 0.245778 0.275670
H74   H     H_    0.502435 0.413223 0.741120 0.274296
H75   H     H_    0.990299 0.077990 0.191837 0.276659
H76   H     H_    0.991522 0.908524 0.729722 0.270572
C33   C     C_R   0.145400 0.673342 0.920831 -0.539301
C34   C     C_R   0.145230 0.326201 0.422664 -0.533053
C35   C     C_R   0.645936 0.172893 0.918926 -0.525478
C36   C     C_R   0.642768 0.824560 0.423984 -0.535542
C37   C     C_R   0.861315 0.324216 0.269362 -0.500284
C38   C     C_R   0.861947 0.676471 0.770243 -0.500946
C39   C     C_R   0.364669 0.822159 0.268603 -0.484129
C40   C     C_R   0.362454 0.176701 0.771159 -0.495189
C41   C     C_R   0.790795 0.215812 0.301540 -0.245770
C42   C     C_R   0.792554 0.785044 0.805267 -0.225764
C43   C     C_R   0.293005 0.714643 0.304871 -0.233843
C44   C     C_R   0.292295 0.284735 0.806829 -0.233542
C45   C     C_R   0.847917 0.266927 0.366575 0.208099
C46   C     C_R   0.849579 0.733886 0.868151 0.206032
C47   C     C_R   0.351473 0.764981 0.367299 0.200301
C48   C     C_R   0.350029 0.234101 0.869464 0.195526
C49   C     C_R   0.817384 0.333066 0.110158 0.269776
C50   C     C_R   0.817442 0.667244 0.611450 0.268390
C51   C     C_R   0.318544 0.832331 0.111266 0.254624
C52   C     C_R   0.317313 0.167046 0.612764 0.264733
C53   C     C_R   0.760010 0.278898 0.043813 -0.066531
C54   C     C_R   0.759560 0.721068 0.546728 -0.068783
C55   C     C_R   0.260588 0.778420 0.046294 -0.077281
C56   C     C_R   0.259455 0.220893 0.548058 -0.063142
C57   C     C_R   0.247486 0.718520 0.144750 -0.049014
C58   C     C_R   0.246633 0.280819 0.646754 -0.047980
C59   C     C_R   0.746806 0.219141 0.141902 -0.049754
C60   C     C_R   0.746596 0.780919 0.645569 -0.053604
C61   C     C_R   0.187456 0.665868 0.080372 0.274281
C62   C     C_R   0.187117 0.333670 0.582051 0.274765
C63   C     C_R   0.688247 0.165513 0.078232 0.245241
C64   C     C_R   0.686352 0.833256 0.581879 0.270055
C65   C     C_R   0.160276 0.729076 0.822952 0.219436
C66   C     C_R   0.159735 0.270611 0.324901 0.219514
C67   C     C_R   0.660230 0.228947 0.821182 0.221663
C68   C     C_R   0.658376 0.769733 0.324963 0.213922
C69   C     C_R   0.214609 0.782540 0.886686 -0.173009
C70   C     C_R   0.213856 0.217164 0.388049 -0.178857
C71   C     C_R   0.714500 0.282548 0.884126 -0.166893
C72   C     C_R   0.713732 0.717130 0.387038 -0.172115
H77   H     H_    0.281549 0.674460 0.385913 0.176514
H78   H     H_    0.281865 0.325547 0.887192 0.177833
H79   H     H_    0.779424 0.173418 0.375740 0.184342
H80   H     H_    0.782878 0.826415 0.885099 0.175583
H81   H     H_    0.720233 0.326628 0.806590 0.182862
H82   H     H_    0.720414 0.673694 0.308496 0.184387
H83   H     H_    0.219821 0.827147 0.809993 0.185021
H84   H     H_    0.219842 0.173282 0.310067 0.182779
H85   H     H_    0.101691 0.633788 0.869601 0.177288
H86   H     H_    0.101869 0.365712 0.371326 0.175260
H87   H     H_    0.602332 0.133206 0.867987 0.176067
H88   H     H_    0.598196 0.863266 0.373828 0.174454
H89   H     H_    0.904696 0.363944 0.320791 0.170908
H90   H     H_    0.905118 0.636789 0.821053 0.170278
H91   H     H_    0.409110 0.861275 0.318307 0.168410
H92   H     H_    0.405990 0.137240 0.821488 0.169891
C73   C     C_3   0.335364 0.452856 0.057565 -0.175359
C74   C     C_3   0.415242 0.436795 0.019193 -0.853396
H93   H     H_    0.460658 0.442942 0.131620 0.299011
H94   H     H_    0.413420 0.385381 0.956598 0.281280
H95   H     H_    0.429168 0.474206 0.927446 0.227517
H96   H     H_    0.291275 0.430425 0.964128 0.249025
H97   H     H_    0.330632 0.511007 0.052149 0.225632
C75   C     C_3   0.337171 0.547077 0.556731 -0.168322
C76   C     C_3   0.417954 0.561850 0.520461 -0.859624
H98   H     H_    0.418042 0.613297 0.458599 0.281326
H99   H     H_    0.462814 0.554830 0.633321 0.297239
H100  H     H_    0.431143 0.524331 0.428489 0.228465
H101  H     H_    0.330678 0.489030 0.549837 0.226228
H102  H     H_    0.294223 0.570509 0.462886 0.244897
C77   C     C_3   0.828746 0.954254 0.063817 -0.197527
C78   C     C_3   0.911292 0.940914 0.037173 -0.837331
H103  H     H_    0.953289 0.941489 0.155864 0.296256
H104  H     H_    0.911371 0.892629 0.962960 0.278857
H105  H     H_    0.929284 0.982469 0.960182 0.224146
H106  H     H_    0.788351 0.931738 0.964394 0.253277
H107  H     H_    0.820217 0.012180 0.058912 0.219754
C79   C     C_3   0.862338 0.032063 0.593858 -0.097280
C80   C     C_3   0.905202 0.062238 0.465521 -0.820488
H108  H     H_    0.888973 0.116553 0.430084 0.277664
H109  H     H_    0.969750 0.057332 0.508039 0.252850
H110  H     H_    0.892915 0.030898 0.352600 0.252377
H111  H     H_    0.907612 0.010194 0.694044 0.180296
H112  H     H_    0.827181 0.987131 0.533853 0.218654

loop_
_geom_bond_atom_site_label_1
_geom_bond_atom_site_label_2
_geom_bond_distance
_ccdc_geom_bond_type
P6    C61   1.894975 S    
C15   H31   1.101617 S    
C80   H109  1.097450 S    
P1    O17   1.749539 S    
P5    C62   1.896951 S    
C14   C18   1.538181 S    
O1    Ba1   2.867067 S    
O9    P14   1.729354 S    
P3    O19   1.751800 S    
O7    Ba4   2.857695 S    
C2    H10   1.103255 S    
C20   H40   1.105961 S    
P4    O4    1.533000 D    
O6    Ba1   2.864548 S    
C54   C72   1.411881 A    
C28   H60   1.108342 S    
C12   H28   1.102252 S    
C9    H23   1.108710 S    
P9    O29   1.754454 S    
Ba3   Ba4   4.635645 S    
C70   H84   1.073703 S    
Ba3   O47   2.857648 S    
C77   H106  1.059515 S    
C26   H62   1.103464 S    
C20   H44   1.091024 S    
C34   C66   1.385738 A    
C1    H7    1.107202 S    
O11   Ba3   2.842457 S    
P7    C64   1.900601 S    
C29   H65   1.109446 S    
P1    O1    1.533737 D    
O15   P16   1.545356 D    
O28   Ba4   2.870582 S    
O38   C13   1.395153 S    
C25   H57   1.108852 S    
C3    H5    1.105506 S    
C23   H51   1.108747 S    
O37   C14   1.395047 S    
P6    O38   1.727218 S    
P3    O3    1.533737 D    
C24   H52   1.110442 S    
P4    O20   1.750234 S    
C18   C75   1.534821 S    
O18   C22   1.402449 S    
P7    O48   1.606746 S    
C22   H46   1.108662 S    
C35   C67   1.389084 A    
C16   H32   1.106328 S    
C12   H74   1.108779 S    
P4    Ba4   3.415633 S    
O22   P13   1.746983 S    
C19   H43   1.110788 S    
C76   H98   1.101663 S    
C33   C65   1.388115 A    
C36   C68   1.387352 A    
P7    O27   1.532305 D    
P13   C46   1.875458 S    
C10   H26   1.108384 S    
O23   C31   1.414533 S    
C30   H66   1.111019 S    
P5    O37   1.728276 S    
C9    H25   1.105368 S    
P11   C68   1.843816 S    
C38   H90   1.081912 S    
C10   H24   1.109812 S    
C60   C64   1.455618 A    
P10   C65   1.844492 S    
O21   C29   1.411463 S    
O16   P15   1.545618 D    
C11   H27   1.102879 S    
P9    C66   1.841577 S    
P2    O18   1.749534 S    
P12   C67   1.839825 S    
C56   C70   1.412492 A    
C40   C48   1.404579 A    
O41   C5    1.403109 S    
C15   C19   1.528052 S    
C38   C50   1.406038 A    
P4    O8    1.601474 S    
C3    H11   1.100541 S    
C73   C74   1.500120 S    
C28   H64   1.099783 S    
C43   C47   1.402563 A    
C53   C71   1.409866 A    
C78   H105  1.097508 S    
C52   C56   1.451769 A    
C13   H33   1.107100 S    
C33   H85   1.082653 S    
C28   H56   1.108431 S    
O26   Ba2   2.870582 S    
C80   H110  1.099985 S    
P5    O25   1.532305 D    
P9    O41   1.736294 S    
C66   C70   1.404749 A    
O12   P15   1.716115 S    
C75   H102  1.062232 S    
Ba2   O46   2.864503 S    
C25   H61   1.102924 S    
P2    O2    1.533000 D    
C74   H94   1.101668 S    
C6    H18   1.112860 S    
C24   H48   1.105696 S    
C22   H50   1.108921 S    
C5    H17   1.112402 S    
C78   H104  1.104524 S    
C51   C55   1.448572 A    
Ba3   O48   2.934710 S    
P2    Ba2   3.415633 S    
O31   Ba3   2.843679 S    
H4    C32   1.108005 S    
C11   H73   1.109652 S    
C1    H71   1.110890 S    
H3    C31   1.108611 S    
C8    H20   1.111866 S    
O30   Ba2   2.841853 S    
C16   H36   1.099414 S    
Ba1   O46   2.934710 S    
O10   P13   1.718084 S    
C17   H41   1.109835 S    
P10   O30   1.754213 S    
C68   C72   1.403804 A    
C20   C79   1.554930 S    
C32   H68   1.110027 S    
C2    H72   1.105975 S    
P11   O35   1.542564 D    
C40   H92   1.081810 S    
P12   O36   1.542260 D    
P14   C45   1.873068 S    
C37   H89   1.081935 S    
C37   C45   1.399869 A    
O4    Ba4   2.875031 S    
P5    Ba1   3.418024 S    
O23   P16   1.749576 S    
C40   C52   1.408162 A    
C42   H80   1.063831 S    
O22   C30   1.413536 S    
O24   P15   1.749741 S    
P3    C51   1.916681 S    
C8    C12   1.506035 S    
C18   H42   1.109494 S    
C76   H99   1.101932 S    
C74   H95   1.103920 S    
C3    C31   1.518499 S    
C42   C46   1.403846 A    
C1    C29   1.519961 S    
C73   H96   1.061045 S    
C4    C32   1.520162 S    
O42   C6    1.403348 S    
C79   C80   1.526923 S    
P12   O44   1.739702 S    
C14   H30   1.106153 S    
C27   H63   1.105059 S    
O9    Ba1   2.842457 S    
C39   C51   1.409067 A    
C33   C61   1.393879 A    
C35   C63   1.393454 A    
C79   H112  1.101136 S    
C31   H67   1.109891 S    
C27   H59   1.108849 S    
P6    O26   1.533044 D    
O5    Ba2   2.857695 S    
P1    O5    1.596297 S    
O44   C8    1.404797 S    
P7    O39   1.738533 S    
C6    C10   1.501134 S    
O13   P14   1.546820 D    
C5    C9    1.499326 S    
Ba1   Ba2   4.635645 S    
Ba1   O45   2.857648 S    
O39   C16   1.395849 S    
C57   C61   1.453007 A    
C77   H107  1.104723 S    
C7    C11   1.506129 S    
P8    O47   1.601511 S    
C12   H22   1.109135 S    
C16   C20   1.543190 S    
C44   H78   1.062819 S    
Ba4   O48   2.864503 S    
C54   C60   1.445860 A    
C75   H101  1.102552 S    
P10   O34   1.542814 D    
Ba2   O45   2.936268 S    
C2    H8    1.103243 S    
C4    H12   1.100653 S    
O32   Ba4   2.841853 S    
C74   H93   1.101885 S    
O2    Ba2   2.875031 S    
O17   C21   1.402246 S    
C80   H108  1.090172 S    
P2    O6    1.601474 S    
O27   Ba3   2.878628 S    
C39   H91   1.081531 S    
C18   H38   1.101882 S    
C42   C60   1.412941 A    
C37   C49   1.405253 A    
C78   H103  1.105457 S    
O24   C32   1.414449 S    
O20   C24   1.403529 S    
C43   H77   1.061832 S    
C21   H49   1.108780 S    
P4    C52   1.920654 S    
P6    O45   1.601511 S    
C25   H53   1.103780 S    
C22   C26   1.515425 S    
C5    H13   1.113008 S    
C41   H79   1.054832 S    
C58   C62   1.456302 A    
C55   C69   1.412742 A    
P15   C48   1.881317 S    
C8    H16   1.112249 S    
P16   C47   1.881213 S    
O3    Ba3   2.867067 S    
C2    C30   1.522182 S    
C39   C47   1.404948 A    
P8    Ba4   3.413996 S    
C19   H39   1.100241 S    
C77   C78   1.498544 S    
P11   O43   1.738892 S    
C41   C45   1.403318 A    
P7    Ba3   3.418024 S    
P5    O46   1.606746 S    
C17   H37   1.100766 S    
H2    C30   1.110027 S    
C15   H35   1.106924 S    
C43   C57   1.413189 A    
O19   C23   1.403985 S    
C4    H70   1.108774 S    
C14   H34   1.106888 S    
P8    O40   1.734666 S    
C65   C69   1.402982 A    
C44   C48   1.404194 A    
C76   H100  1.103929 S    
C21   C25   1.516000 S    
C41   C59   1.399917 A    
C23   H47   1.108157 S    
C11   H21   1.108685 S    
C13   C17   1.538005 S    
C73   H97   1.102562 S    
O40   C15   1.401215 S    
C1    H9    1.107758 S    
O11   P16   1.715158 S    
O14   P13   1.546006 D    
O25   Ba1   2.878628 S    
C4    H6    1.104605 S    
O43   C7    1.404803 S    
C69   H83   1.073815 S    
P9    O33   1.542284 D    
C7    H19   1.112494 S    
C50   C54   1.451739 A    
O8    Ba3   2.864548 S    
C59   C63   1.448608 A    
C79   H111  1.104883 S    
C26   H58   1.108563 S    
C49   C53   1.448768 A    
C34   C62   1.391330 A    
P8    C63   1.902369 S    
P3    Ba3   3.411693 S    
C75   C76   1.501063 S    
C9    H75   1.110532 S    
C3    H69   1.109507 S    
C36   H88   1.082744 S    
C53   C59   1.439713 A    
C10   H76   1.107275 S    
C19   C77   1.530849 S    
O12   Ba4   2.844291 S    
P1    Ba1   3.411693 S    
P10   O42   1.739673 S    
C34   H86   1.082787 S    
C72   H82   1.072886 S    
P3    O7    1.596297 S    
O29   Ba1   2.843679 S    
C21   H45   1.108781 S    
C35   H87   1.082658 S    
P11   O31   1.753601 S    
P8    O28   1.533044 D    
P12   O32   1.749726 S    
C6    H14   1.111502 S    
Ba4   O47   2.936268 S    
O21   P14   1.754348 S    
C55   C57   1.443222 A    
O10   Ba2   2.844291 S    
C26   H54   1.103532 S    
P1    C49   1.904841 S    
P6    Ba2   3.413996 S    
C44   C58   1.413521 A    
C27   H55   1.104641 S    
C67   C71   1.402565 A    
C38   C46   1.402471 A    
H1    C29   1.107899 S    
P2    C50   1.917773 S    
C36   C64   1.392986 A    
C7    H15   1.112260 S    
C23   C27   1.517469 S    
C56   C58   1.445581 A    
C13   H29   1.105806 S    
C71   H81   1.072245 S    
C24   C28   1.519467 S    
C17   C73   1.533817 S    
