data_mof_unit_20216.cif
_audit_creation_date              2013-03-05T16:00:37-0500
_audit_creation_method            fapswitch 2.2
_symmetry_space_group_name_H-M    P1
_symmetry_Int_Tables_number       1
_space_group_crystal_system       triclinic
_cell_length_a                    10.723362
_cell_length_b                    14.695571
_cell_length_c                    14.73002
_cell_angle_alpha                 65.060538
_cell_angle_beta                  103.413745
_cell_angle_gamma                 103.027915
_cell_volume                      2025.83756098

loop_
_atom_site_label
_atom_site_type_symbol
_atom_site_description
_atom_site_fract_x
_atom_site_fract_y
_atom_site_fract_z
_atom_type_partial_charge
O1    O     O_R   0.455060 0.022100 0.338110 -0.580444
O2    O     O_R   0.512640 0.160150 0.379180 -0.585071
C1    C     C_R   0.479541 0.119744 0.312267 0.838015
O3    O     O_R   0.288900 0.930980 0.479450 -0.590145
O4    O     O_R   0.346480 0.069030 0.520520 -0.590625
C2    C     C_R   0.260030 0.000551 0.499753 0.771905
Cu1   Cu    Cu3+1 0.465900 0.918260 0.475680 0.948705
Cu2   Cu    Cu3+1 0.534100 0.081740 0.524320 0.948116
O5    O     O_R   0.487360 0.839850 0.620820 -0.591471
O6    O     O_R   0.544940 0.977900 0.661890 -0.588046
O7    O     O_R   0.653520 0.930970 0.479480 -0.587283
O8    O     O_R   0.711100 0.069020 0.520550 -0.581011
C3    C     C_R   0.523427 0.880254 0.687716 0.792881
C4    C     C_R   0.740018 0.000025 0.499774 0.808752
C5    C     C_3   0.043176 0.012314 0.393470 -0.427133
H1    H     H_    0.054903 0.949917 0.373474 0.148364
H2    H     H_    0.081499 0.084570 0.334682 0.194644
C6    C     C_3   0.897660 0.007861 0.394087 0.217753
H3    H     H_    0.845706 0.936568 0.385104 0.107246
H4    H     H_    0.075694 0.835015 0.565534 0.183065
H5    H     H_    0.863481 0.834235 0.567931 0.173071
C7    C     C_3   0.067104 0.901128 0.580923 -0.373213
C8    C     C_3   0.106980 0.091890 0.522165 -0.363394
C9    C     C_3   0.122247 0.001447 0.499198 0.091924
H6    H     H_    0.164948 0.087735 0.596758 0.180771
H7    H     H_    0.143395 0.165011 0.463297 0.184261
C10   C     C_3   0.878055 0.000923 0.498863 0.030068
C11   C     C_3   0.923283 0.901154 0.581499 -0.468330
C12   C     C_3   0.964583 0.090311 0.524346 -0.329866
H8    H     H_    0.933881 0.164501 0.471029 0.221971
H9    H     H_    0.954495 0.081505 0.601349 0.174567
H10   H     H_    0.123825 0.892075 0.657065 0.168514
H11   H     H_    0.910769 0.893336 0.657546 0.180260
C13   C     C_R   0.478416 0.187389 0.205067 -0.039665
C14   C     C_R   0.543822 0.812675 0.795242 -0.062366
C15   C     C_R   0.475615 0.216243 0.030401 -0.139736
C16   C     C_R   0.465826 0.149541 0.130142 -0.115346
C17   C     C_R   0.498937 0.292123 0.179033 -0.223043
C18   C     C_R   0.514893 0.360878 0.080114 0.095964
C19   C     C_R   0.499944 0.321381 0.004827 0.154271
C20   C     C_R   0.542681 0.467545 0.053810 0.072166
C21   C     C_R   0.540339 0.533644 0.950044 0.062894
C22   C     C_R   0.528332 0.491248 0.877531 -0.212220
C23   C     C_R   0.509645 0.387059 0.904905 -0.168673
C24   C     C_R   0.575137 0.510248 0.127853 -0.204593
C25   C     C_R   0.595674 0.614409 0.100607 -0.223030
C26   C     C_R   0.581782 0.679746 0.998975 0.157377
C27   C     C_R   0.552119 0.640085 0.922579 0.093249
C28   C     C_R   0.596296 0.784654 0.972892 -0.185600
C29   C     C_R   0.578285 0.850852 0.871546 -0.183743
C30   C     C_R   0.530459 0.708172 0.821170 -0.251866
H12   H     H_    0.501188 0.357753 0.847043 0.163190
H13   H     H_    0.499103 0.681236 0.760834 0.152796
H14   H     H_    0.589800 0.931553 0.853054 0.166815
H15   H     H_    0.620306 0.643924 0.159708 0.150278
H16   H     H_    0.465274 0.185632 0.973321 0.145061
H17   H     H_    0.450122 0.068648 0.148772 0.160245
H18   H     H_    0.500199 0.318285 0.237379 0.142249
H19   H     H_    0.536970 0.536651 0.799061 0.142098
H20   H     H_    0.589380 0.465333 0.208116 0.149766
H21   H     H_    0.620555 0.815410 0.031011 0.146779
N1    N     N_R   0.585360 0.204570 0.560800 -0.202891
N2    N     N_R   0.414550 0.795430 0.439160 -0.177361
C31   C     C_R   0.713825 0.281417 0.672943 0.225877
C32   C     C_R   0.680957 0.201682 0.639840 -0.002708
C33   C     C_R   0.518829 0.285026 0.510242 -0.011780
C34   C     C_R   0.547993 0.370266 0.537636 -0.057321
C35   C     C_R   0.648681 0.367524 0.620392 0.028294
C36   C     C_R   0.481031 0.457303 0.486157 0.103008
C37   C     C_R   0.518024 0.541382 0.516989 0.084429
C38   C     C_R   0.620723 0.535871 0.597737 -0.261958
C39   C     C_R   0.684438 0.451476 0.647602 -0.141184
C40   C     C_R   0.378109 0.463085 0.405042 -0.232361
C41   C     C_R   0.313290 0.547090 0.356259 -0.187819
C42   C     C_R   0.348156 0.629211 0.385523 0.157875
C43   C     C_R   0.451155 0.628309 0.465738 -0.022645
C44   C     C_R   0.280576 0.712719 0.334689 -0.307601
C45   C     C_R   0.315414 0.795356 0.362885 0.080945
C46   C     C_R   0.482129 0.715379 0.490370 0.011642
H22   H     H_    0.764145 0.453845 0.707310 0.198166
H23   H     H_    0.559780 0.722110 0.549271 0.118599
H24   H     H_    0.263787 0.860060 0.323432 0.123499
H25   H     H_    0.234667 0.547707 0.294662 0.152557
H26   H     H_    0.729154 0.135118 0.679459 0.159571
H27   H     H_    0.443316 0.279974 0.449480 0.131148
H28   H     H_    0.655067 0.596079 0.624754 0.128667
H29   H     H_    0.344105 0.403464 0.377223 0.135438
H30   H     H_    0.201456 0.714204 0.273257 0.143271
N3    N     N_R   0.809983 0.271932 0.761263 0.108853
O9    O     O_R   0.912858 0.232131 0.774340 -0.365866
O10   O     O_R   0.783248 0.283730 0.837084 -0.357652
N4    N     N_R   0.843549 0.093403 0.308503 0.119639
O11   O     O_R   0.746942 0.075788 0.243176 -0.364657
O12   O     O_R   0.895776 0.186733 0.292791 -0.371812

loop_
_geom_bond_atom_site_label_1
_geom_bond_atom_site_label_2
_geom_bond_distance
_ccdc_geom_bond_type
C5    C6    1.548973 S    
C30   H13   1.075932 S    
C24   H20   1.077203 S    
C10   C12   1.559537 S    
C13   C16   1.400102 A    
C20   C21   1.421806 A    
C43   C46   1.422376 A    
C41   H25   1.084319 S    
C42   C43   1.415670 A    
C33   H27   1.074696 S    
Cu1   Cu2   2.690017 S    
C18   C20   1.423677 A    
N2    C46   1.363987 A    
C44   C45   1.391274 A    
Cu1   O7    1.967987 S    
C29   H14   1.083084 S    
C7    H10   1.113435 S    
C8    C12   1.529494 S    
C15   C16   1.393213 A    
C3    C14   1.467443 S    
C17   C18   1.403362 A    
O7    C4    1.297056 A    
C5    H1    1.113686 S    
C5    H2    1.113191 S    
C6    H3    1.115834 S    
C40   C41   1.389434 A    
C8    H7    1.114093 S    
O5    C3    1.298523 A    
C40   H29   1.076089 S    
C17   H18   1.075885 S    
C27   C30   1.403487 A    
C44   H30   1.083802 S    
C25   H15   1.084374 S    
C8    C9    1.552679 S    
C36   C40   1.413416 A    
C37   C38   1.409023 A    
C4    C10   1.480425 S    
N3    O10   1.301479 A    
C22   H19   1.077598 S    
C23   H12   1.084541 S    
C33   C34   1.421577 A    
C13   C17   1.397537 A    
C31   N3    1.436884 S    
O3    Cu1   1.964225 S    
C28   H21   1.083902 S    
C41   C42   1.393729 A    
N1    C33   1.361164 A    
C34   C35   1.421584 A    
C15   C19   1.403641 A    
C26   C28   1.403100 A    
C18   C19   1.418030 A    
C46   H23   1.075151 S    
C32   H26   1.082190 S    
C1    C13   1.467844 S    
C24   C25   1.386927 A    
C35   C39   1.400772 A    
C34   C36   1.438787 A    
C22   C23   1.387644 A    
C12   H8    1.110687 S    
C15   H16   1.083888 S    
C38   H28   1.076514 S    
C45   H24   1.081851 S    
C26   C27   1.417985 A    
Cu2   O8    1.964226 S    
C2    C9    1.478609 S    
C14   C29   1.400072 A    
N4    O12   1.301722 A    
C21   C27   1.423841 A    
C42   C44   1.402184 A    
Cu1   N2    2.020926 S    
O3    C2    1.293859 A    
C5    C9    1.551936 S    
H5    C11   1.113654 S    
O8    C4    1.290462 A    
C11   H11   1.113659 S    
C14   C30   1.398721 A    
C7    C9    1.553315 S    
C21   C22   1.416634 A    
C31   C35   1.417747 A    
Cu1   O5    1.940406 S    
C25   C26   1.390703 A    
N1    C32   1.353649 A    
O1    Cu1   1.952277 S    
Cu2   O6    1.952277 S    
O2    Cu2   1.940406 S    
C6    C10   1.563556 S    
H4    C7    1.113363 S    
O6    C3    1.299302 A    
O4    Cu2   1.967987 S    
C6    N4    1.469423 S    
C31   C32   1.396751 A    
O2    C1    1.298563 A    
C38   C39   1.387612 A    
C12   H9    1.114377 S    
C37   C43   1.436837 A    
O4    C2    1.293489 A    
N4    O11   1.301085 A    
C8    H6    1.114021 S    
C36   C37   1.434904 A    
C19   C23   1.391577 A    
C39   H22   1.081168 S    
C28   C29   1.392275 A    
C10   C11   1.551827 S    
C20   C24   1.416717 A    
C7    C11   1.544326 S    
O1    C1    1.299514 A    
N3    O9    1.301334 A    
C16   H17   1.083006 S    
Cu2   N1    2.020576 S    
N2    C45   1.356022 A    
