data_mof_unit_56200.cif
_audit_creation_date              2012-12-10T17:16:34-0500
_audit_creation_method            fapswitch 2.2
_symmetry_space_group_name_H-M    P1
_symmetry_Int_Tables_number       1
_space_group_crystal_system       triclinic
_cell_length_a                    10.186981
_cell_length_b                    10.676812
_cell_length_c                    10.749105
_cell_angle_alpha                 90.155197
_cell_angle_beta                  94.482295
_cell_angle_gamma                 81.473814
_cell_volume                      1152.61700839

loop_
_atom_site_label
_atom_site_type_symbol
_atom_type_description
_atom_site_fract_x
_atom_site_fract_y
_atom_site_fract_z
_atom_type_partial_charge
C1    C     C_R   0.445235 0.513974 0.267270 0.892973
C2    C     C_R   0.500487 0.739089 0.500024 0.814253
C3    C     C_R   0.544960 0.123431 0.276467 -0.089319
C4    C     C_R   0.455390 0.876944 0.723468 -0.068495
C5    C     C_R   0.571078 0.054450 0.168745 -0.138839
C6    C     C_R   0.429208 0.945725 0.831259 -0.094578
C7    C     C_R   0.572649 0.924234 0.169104 -0.102130
C8    C     C_R   0.427291 0.075988 0.830969 -0.147635
C9    C     C_R   0.548123 0.862941 0.277193 -0.107721
C10   C     C_R   0.451698 0.137509 0.722934 -0.127997
C11   C     C_R   0.525113 0.930998 0.388916 0.056561
C12   C     C_R   0.554880 0.497671 0.732752 0.887843
C13   C     C_R   0.474855 0.069401 0.611126 0.074959
C14   C     C_R   0.523533 0.062049 0.388595 0.079740
C15   C     C_R   0.476568 0.938331 0.611401 0.061737
C16   C     C_R   0.501447 0.871473 0.500264 -0.143617
C17   C     C_R   0.498564 0.128816 0.499749 -0.144359
C18   C     C_2   0.416334 0.538735 0.135280 -0.442306
C19   C     C_2   0.584201 0.513681 0.864870 -0.429717
C20   C     C_2   0.512387 0.567279 0.066835 0.495889
C21   C     C_2   0.489011 0.570880 0.933629 0.497889
C22   C     C_2   0.072990 0.490168 0.489849 0.641454
C23   C     C_2   0.926971 0.509970 0.510026 0.652758
C24   C     C_R   0.499516 0.261014 0.499986 0.822633
F1    F     F_    0.365391 0.621227 0.883348 -0.630552
F2    F     F_    0.636675 0.580305 0.117335 -0.645071
F3    F     F_    0.879532 0.595397 0.595636 -0.614443
F4    F     F_    0.120386 0.404899 0.404087 -0.615338
F5    F     F_    0.887840 0.364349 0.364103 -0.513532
F6    F     F_    0.112220 0.635448 0.636099 -0.495726
H1    H     H_    0.407450 0.129604 0.914753 0.149107
H2    H     H_    0.317424 0.530807 0.093008 0.200102
H3    H     H_    0.592357 0.870470 0.085373 0.168105
H4    H     H_    0.541592 0.224900 0.270324 0.147056
H5    H     H_    0.459075 0.775584 0.729320 0.177311
H6    H     H_    0.589584 0.102377 0.084717 0.148199
H7    H     H_    0.410909 0.897609 0.915254 0.166311
H8    H     H_    0.547343 0.762137 0.271823 0.173466
H9    H     H_    0.452247 0.238499 0.728622 0.139378
H10   H     H_    0.682654 0.476094 0.906970 0.197085
N1    N     N_2   0.157300 0.551390 0.551120 0.108435
N2    N     N_2   0.842700 0.448610 0.448880 0.111386
O1    O     O_R   0.568940 0.489660 0.307530 -0.528805
O2    O     O_R   0.431060 0.510340 0.692470 -0.533088
O3    O     O_R   0.348880 0.522640 0.340350 -0.582302
O4    O     O_R   0.651120 0.477360 0.659650 -0.584921
O5    O     O_R   0.610030 0.300280 0.483580 -0.595877
O6    O     O_R   0.389970 0.699720 0.516420 -0.587681
O7    O     O_R   0.389970 0.333270 0.516400 -0.587222
O8    O     O_R   0.610030 0.666730 0.483600 -0.578785
Zn1   Zn    Zn3+2 0.646940 0.477980 0.478080 1.133006
Zn2   Zn    Zn3+2 0.353060 0.522020 0.521920 1.132421

loop_
_geom_bond_atom_site_label_1
_geom_bond_atom_site_label_2
_ccdc_geom_bond_type
C6    C8    A    
F6    N1    S    
C23   F3    S    
F5    N2    S    
C2    C16   S    
C11   C16   A    
N1    Zn2   S    
O3    Zn2   S    
C13   C17   A    
N2    Zn1   S    
O7    Zn2   S    
C1    O3    A    
O2    Zn2   S    
C4    C15   A    
O8    Zn1   S    
C6    H7    S    
C12   O2    A    
C22   F4    S    
C9    C11   A    
C14   C17   A    
O1    Zn1   S    
C1    C18   S    
C23   N2    D    
C20   F2    S    
C3    C14   A    
C12   C19   S    
C4    C6    A    
C9    H8    S    
C19   C21   D    
C18   C20   D    
C13   C15   A    
C11   C14   A    
C4    H5    S    
C22   N1    D    
C18   H2    S    
C19   H10   S    
C7    H3    S    
C15   C16   A    
C17   C24   S    
C5    H6    S    
C7    C9    A    
O6    Zn2   S    
C20   C21   S    
C12   O4    A    
C24   O7    A    
C5    C7    A    
C21   F1    S    
C22   C23   S    
O5    Zn1   S    
C2    O8    A    
C3    H4    S    
C2    O6    A    
C24   O5    A    
O4    Zn1   S    
C1    O1    A    
C8    C10   A    
C8    H1    S    
C10   H9    S    
C3    C5    A    
C10   C13   A    
