data_mof_unit_44700.cif
_audit_creation_date              2012-12-10T16:57:47-0500
_audit_creation_method            fapswitch 2.2
_symmetry_space_group_name_H-M    P1
_symmetry_Int_Tables_number       1
_space_group_crystal_system       triclinic
_cell_length_a                    7.756839
_cell_length_b                    8.579843
_cell_length_c                    19.019525
_cell_angle_alpha                 91.02026
_cell_angle_beta                  85.338372
_cell_angle_gamma                 93.699183
_cell_volume                      1258.88004702

loop_
_atom_site_label
_atom_site_type_symbol
_atom_type_description
_atom_site_fract_x
_atom_site_fract_y
_atom_site_fract_z
_atom_type_partial_charge
C1    C     C_R   0.545893 0.794836 0.498184 0.972095
C2    C     C_R   0.667727 0.575172 0.177891 -0.162582
C3    C     C_R   0.519583 0.605343 0.853406 0.089365
C4    C     C_R   0.515509 0.606406 0.147187 0.089191
C5    C     C_R   0.673138 0.579458 0.811717 -0.159905
C6    C     C_R   0.356536 0.599329 0.188314 -0.160121
C7    C     C_R   0.667241 0.540999 0.740685 -0.196855
C8    C     C_R   0.349987 0.560771 0.259102 -0.196013
C9    C     C_R   0.507807 0.528325 0.710575 -0.029865
C10   C     C_R   0.502334 0.529156 0.289575 -0.030102
C11   C     C_R   0.520723 0.632098 0.071337 0.290104
C12   C     C_R   0.454108 0.205165 0.501815 0.975101
C13   C     C_R   0.522978 0.631506 0.929363 0.290120
C14   C     C_2   0.570085 0.958273 0.497138 -0.379402
C15   C     C_2   0.429915 0.041718 0.502849 -0.381962
C16   C     C_R   0.501835 0.503354 0.634814 0.858848
C17   C     C_R   0.499371 0.503348 0.365190 0.857665
C18   C     C_R   0.354496 0.554006 0.752286 -0.191162
C19   C     C_R   0.661095 0.536307 0.248468 -0.190568
C20   C     C_R   0.360390 0.592742 0.823072 -0.161436
H1    H     H_    0.702431 0.009410 0.491688 0.179986
H2    H     H_    0.236879 0.621843 0.165798 0.148052
H3    H     H_    0.787466 0.523349 0.709299 0.152556
H4    H     H_    0.226176 0.557331 0.289989 0.154221
H5    H     H_    0.297570 0.990577 0.508297 0.180110
H6    H     H_    0.013935 0.382035 0.447286 0.189631
H7    H     H_    0.986062 0.617953 0.552722 0.188348
H8    H     H_    0.229790 0.546011 0.730185 0.155089
H9    H     H_    0.780921 0.513878 0.270903 0.156092
H10   H     H_    0.239734 0.610819 0.854046 0.151805
H11   H     H_    0.791983 0.578826 0.147357 0.151389
H12   H     H_    0.797646 0.587536 0.833943 0.147018
N1    N     N_R   0.672764 0.623565 0.960751 -0.175246
N2    N     N_R   0.371997 0.646381 0.039954 -0.175155
N3    N     N_R   0.671613 0.623878 0.030533 -0.173515
N4    N     N_R   0.373155 0.646117 0.970185 -0.173400
N5    N     N_2   0.950330 0.457950 0.481240 -0.175532
N6    N     N_2   0.049670 0.542050 0.518760 -0.175712
O1    O     O_R   0.389250 0.738570 0.504600 -0.610580
O2    O     O_R   0.610750 0.261430 0.495400 -0.608967
O3    O     O_R   0.678400 0.711620 0.492580 -0.628774
O4    O     O_R   0.321600 0.288380 0.507420 -0.626864
O5    O     O_R   0.355380 0.513500 0.607880 -0.620641
O6    O     O_R   0.644620 0.486500 0.392120 -0.620702
O7    O     O_R   0.644530 0.486550 0.595850 -0.626435
O8    O     O_R   0.355470 0.513450 0.404150 -0.627241
Zn1   Zn    Zn3+2 0.306930 0.517990 0.508030 0.940805
Zn2   Zn    Zn3+2 0.693070 0.482010 0.491970 0.941147

loop_
_geom_bond_atom_site_label_1
_geom_bond_atom_site_label_2
_ccdc_geom_bond_type
C16   O7    A    
C12   O2    A    
C2    C4    A    
H6    N5    S    
C13   N1    A    
N5    N6    D    
C5    C7    A    
N2    N4    A    
C3    C13   S    
C12   C15   S    
C10   C19   A    
C5    H12   S    
C11   N3    A    
C17   O6    A    
C3    C20   A    
C20   H10   S    
C4    C11   S    
C16   O5    A    
N6    Zn1   S    
C7    H3    S    
C14   H1    S    
C1    O3    A    
C8    H4    S    
C9    C16   S    
C18   C20   A    
O4    Zn1   S    
C8    C10   A    
C15   H5    S    
C1    O1    A    
H7    N6    S    
C12   O4    A    
C19   H9    S    
C3    C5    A    
C9    C18   A    
C18   H8    S    
C17   O8    A    
C13   N4    A    
C4    C6    A    
O7    Zn2   S    
C7    C9    A    
O2    Zn2   S    
C14   C15   D    
C6    C8    A    
C1    C14   S    
C10   C17   S    
N1    N3    A    
C2    C19   A    
O8    Zn1   S    
O1    Zn1   S    
O5    Zn1   S    
O3    Zn2   S    
C11   N2    A    
O6    Zn2   S    
C2    H11   S    
N5    Zn2   S    
C6    H2    S    
