data_mof_unit_55518.cif
_audit_creation_date              2012-12-11T14:04:12-0500
_audit_creation_method            fapswitch 2.2
_symmetry_space_group_name_H-M    P1
_symmetry_Int_Tables_number       1
_space_group_crystal_system       triclinic
_cell_length_a                    18.884411
_cell_length_b                    10.98763
_cell_length_c                    18.746046
_cell_angle_alpha                 89.908591
_cell_angle_beta                  89.881137
_cell_angle_gamma                 90.466291
_cell_volume                      3889.567094

loop_
_atom_site_label
_atom_site_type_symbol
_atom_type_description
_atom_site_fract_x
_atom_site_fract_y
_atom_site_fract_z
_atom_type_partial_charge
C1    C     C_R   0.227281 0.513194 0.637649 0.566909
C2    C     C_R   0.773143 0.513427 0.362222 0.570635
C3    C     C_R   0.727503 0.012128 0.637559 0.568028
C4    C     C_R   0.260759 0.968343 0.354111 0.565840
C5    C     C_2   0.295014 0.853677 0.539120 -0.168958
C6    C     C_2   0.697248 0.880278 0.455048 -0.169465
C7    C     C_2   0.806809 0.390598 0.547128 -0.168562
C8    C     C_2   0.198984 0.377345 0.455925 -0.163659
C9    C     C_R   0.004219 0.667391 0.426327 -0.041603
C10   C     C_R   0.991642 0.657399 0.576095 -0.034725
C11   C     C_R   0.501944 0.166951 0.427650 -0.037754
C12   C     C_R   0.489249 0.158114 0.577483 -0.038021
C13   C     C_R   0.992447 0.892966 0.433958 -0.071958
C14   C     C_R   0.961904 0.873096 0.579042 -0.076958
C15   C     C_R   0.489956 0.392941 0.435022 -0.068046
C16   C     C_R   0.460122 0.373621 0.580287 -0.075046
C17   C     C_R   0.970358 0.994591 0.472311 -0.125755
C18   C     C_R   0.953228 0.983738 0.544271 -0.128127
C19   C     C_R   0.467498 0.494470 0.473273 -0.126300
C20   C     C_R   0.450762 0.483849 0.545333 -0.127689
C21   C     C_R   0.983674 0.769350 0.541056 0.008116
C22   C     C_R   0.993984 0.776528 0.466250 0.008342
C23   C     C_R   0.481657 0.269837 0.542293 0.009654
C24   C     C_R   0.491716 0.276532 0.467389 0.010425
C25   C     C_R   0.993706 0.549344 0.535083 0.017532
C26   C     C_R   0.014070 0.556633 0.463368 0.009464
C27   C     C_R   0.489299 0.050055 0.536757 0.019103
C28   C     C_R   0.510210 0.056015 0.465164 0.015543
C29   C     C_R   0.979236 0.433173 0.564668 -0.086087
C30   C     C_R   0.036987 0.449438 0.428790 -0.074335
C31   C     C_R   0.473341 0.935020 0.566889 -0.078232
C32   C     C_R   0.532853 0.947762 0.431557 -0.074897
C33   C     C_R   0.995964 0.327677 0.527485 -0.152781
C34   C     C_R   0.026765 0.335788 0.460291 -0.140357
C35   C     C_R   0.490005 0.828592 0.530640 -0.146256
C36   C     C_R   0.521916 0.834933 0.463868 -0.143703
C37   C     C_2   0.247841 0.908766 0.925593 0.009098
C38   C     C_2   0.773058 0.867224 0.066655 0.014543
C39   C     C_2   0.747851 0.408780 0.925589 0.009383
C40   C     C_2   0.273047 0.367219 0.066654 0.015135
C41   C     C_2   0.284897 0.025288 0.066735 -0.129672
C42   C     C_2   0.756761 0.879575 0.906904 -0.116036
C43   C     C_2   0.784900 0.525307 0.066735 -0.131542
C44   C     C_2   0.256778 0.379575 0.906897 -0.115920
C45   C     C_R   0.227827 0.875563 0.648071 0.550536
C46   C     C_R   0.771396 0.878280 0.350208 0.565172
C47   C     C_R   0.728770 0.378621 0.649880 0.552841
C48   C     C_R   0.271388 0.378264 0.350169 0.569968
C49   C     C_2   0.231353 0.056023 0.024171 -0.162194
C50   C     C_2   0.816773 0.892927 0.943569 -0.150952
C51   C     C_2   0.731354 0.556028 0.024170 -0.162301
C52   C     C_2   0.316778 0.393005 0.943577 -0.151075
C53   C     C_2   0.230354 0.021119 0.948681 -0.132402
C54   C     C_2   0.822451 0.846060 0.016208 -0.145389
C55   C     C_2   0.730356 0.521128 0.948679 -0.132059
C56   C     C_2   0.322470 0.346160 0.016218 -0.145259
C57   C     C_2   0.043808 0.656515 0.932923 -0.099229
C58   C     C_2   0.016554 0.663422 0.086793 -0.113783
C59   C     C_2   0.543816 0.156518 0.932923 -0.099120
C60   C     C_2   0.516550 0.163416 0.086790 -0.112356
C61   C     C_2   0.036459 0.563118 0.051488 -0.164827
C62   C     C_2   0.059741 0.565288 0.977041 -0.176145
C63   C     C_2   0.536443 0.063107 0.051482 -0.164602
C64   C     C_2   0.559720 0.065269 0.977034 -0.176203
C65   C     C_R   0.026193 0.653910 0.646916 0.534577
C66   C     C_R   0.972796 0.656145 0.354025 0.527054
C67   C     C_R   0.525721 0.154044 0.647332 0.534391
C68   C     C_R   0.472334 0.156070 0.354459 0.537056
C69   C     C_R   0.240306 0.460302 0.848004 0.548999
C70   C     C_R   0.778281 0.527158 0.143941 0.568720
C71   C     C_R   0.740303 0.960306 0.848007 0.548618
C72   C     C_R   0.278280 0.027153 0.143940 0.565694
C73   C     C_R   0.227329 0.872163 0.853842 0.555972
C74   C     C_R   0.789790 0.830817 0.138636 0.549147
C75   C     C_R   0.727331 0.372165 0.853842 0.554749
C76   C     C_R   0.289785 0.330827 0.138636 0.547483
C77   C     C_R   0.062059 0.648112 0.858234 0.570557
C78   C     C_R   0.972860 0.652728 0.150458 0.532855
C79   C     C_R   0.562060 0.148112 0.858233 0.570476
C80   C     C_R   0.472859 0.152727 0.150456 0.533314
C81   C     C_2   0.250994 0.920678 0.579048 -0.108845
C82   C     C_2   0.744012 0.937773 0.412928 -0.109998
C83   C     C_2   0.756928 0.441352 0.587950 -0.110824
C84   C     C_2   0.243961 0.437218 0.412975 -0.112929
C85   C     C_2   0.248334 0.912243 0.423136 -0.118420
C86   C     C_2   0.738268 0.968771 0.565805 -0.111810
C87   C     C_2   0.763668 0.472215 0.434936 -0.112323
C88   C     C_2   0.238181 0.471482 0.565625 -0.111321
C89   C     C_2   0.303430 0.877147 0.463062 -0.162705
C90   C     C_2   0.685065 0.921309 0.527916 -0.163264
C91   C     C_2   0.818205 0.432376 0.473865 -0.164057
C92   C     C_2   0.186242 0.418520 0.528598 -0.160031
Cr1   Cr    Cr6+3 0.113970 0.508630 0.747920 1.010228
Cr2   Cr    Cr6+3 0.886030 0.508630 0.252080 1.013685
Cr3   Cr    Cr6+3 0.613970 0.008630 0.747920 1.010526
Cr4   Cr    Cr6+3 0.386030 0.008630 0.252080 1.013652
Cr5   Cr    Cr6+3 0.269200 0.666740 0.749850 1.002424
Cr6   Cr    Cr6+3 0.730800 0.666740 0.250150 1.002028
Cr7   Cr    Cr6+3 0.769200 0.166740 0.749850 1.003628
Cr8   Cr    Cr6+3 0.230800 0.166740 0.250150 1.005023
Cr9   Cr    Cr6+3 0.112300 0.820070 0.749800 1.015811
Cr10  Cr    Cr6+3 0.887700 0.820070 0.250200 1.005561
Cr11  Cr    Cr6+3 0.612300 0.320070 0.749800 1.015650
Cr12  Cr    Cr6+3 0.387700 0.320070 0.250200 1.010631
H1    H     H_    0.356248 0.869056 0.440601 0.172115
H2    H     H_    0.633660 0.905396 0.552140 0.177398
H3    H     H_    0.870324 0.422255 0.450226 0.175064
H4    H     H_    0.135899 0.397281 0.553637 0.177708
H5    H     H_    0.204650 0.083836 0.912295 0.130199
H6    H     H_    0.872339 0.804197 0.030949 0.112485
H7    H     H_    0.704642 0.583839 0.912296 0.130062
H8    H     H_    0.372398 0.304429 0.030976 0.112414
H9    H     H_    0.334294 0.993086 0.044357 0.116097
H10   H     H_    0.715686 0.817398 0.925446 0.102494
H11   H     H_    0.834302 0.493126 0.044357 0.115942
H12   H     H_    0.215721 0.317347 0.925425 0.102482
H13   H     H_    0.030054 0.473591 0.075437 0.157001
H14   H     H_    0.084469 0.483912 0.956022 0.138757
H15   H     H_    0.530029 0.973581 0.075429 0.156935
H16   H     H_    0.584417 0.983872 0.956009 0.138778
H17   H     H_    0.026142 0.753964 0.065587 0.103408
H18   H     H_    0.017193 0.737982 0.950994 0.104870
H19   H     H_    0.526144 0.253958 0.065586 0.103607
H20   H     H_    0.517231 0.238009 0.950999 0.104805
H21   H     H_    0.323954 0.777661 0.561569 0.145900
H22   H     H_    0.671094 0.796879 0.438069 0.148264
H23   H     H_    0.835697 0.311123 0.565010 0.145339
H24   H     H_    0.174649 0.291924 0.439690 0.152843
H25   H     H_    0.195266 0.916325 0.445564 0.109440
H26   H     H_    0.791117 0.978107 0.543260 0.116939
H27   H     H_    0.710509 0.476129 0.457109 0.113456
H28   H     H_    0.290396 0.485649 0.542426 0.115383
H29   H     H_    0.223843 0.998636 0.556536 0.114852
H30   H     H_    0.769079 0.022615 0.429257 0.111390
H31   H     H_    0.729967 0.523373 0.570865 0.112732
H32   H     H_    0.267524 0.523755 0.428457 0.106374
H33   H     H_    0.965553 0.081508 0.445768 0.109127
H34   H     H_    0.933283 0.060813 0.573611 0.108108
H35   H     H_    0.462110 0.581120 0.446574 0.106301
H36   H     H_    0.430468 0.560655 0.574617 0.107012
H37   H     H_    0.008538 0.907061 0.379188 0.134970
H38   H     H_    0.948188 0.867555 0.635085 0.131555
H39   H     H_    0.506095 0.407289 0.380311 0.137690
H40   H     H_    0.446842 0.368199 0.636448 0.131270
H41   H     H_    0.061185 0.453206 0.376374 0.136649
H42   H     H_    0.955091 0.423541 0.616844 0.140072
H43   H     H_    0.557977 0.950053 0.379567 0.136675
H44   H     H_    0.449330 0.927282 0.619248 0.137233
H45   H     H_    0.987352 0.240168 0.552036 0.109078
H46   H     H_    0.042643 0.254357 0.432371 0.106891
H47   H     H_    0.480845 0.741797 0.555790 0.107300
H48   H     H_    0.538142 0.752812 0.436891 0.105349
H49   H     H_    0.184576 0.099965 0.045535 0.151951
H50   H     H_    0.860182 0.948739 0.923471 0.155591
H51   H     H_    0.684571 0.599949 0.045536 0.151799
H52   H     H_    0.360170 0.448869 0.923487 0.155550
O1    O     O_R   0.043230 0.549300 0.667990 -0.526819
O2    O     O_R   0.956770 0.549300 0.332010 -0.524275
O3    O     O_R   0.543230 0.049300 0.667990 -0.526345
O4    O     O_R   0.456770 0.049300 0.332010 -0.515842
O5    O     O_R   0.262920 0.788600 0.824420 -0.498291
O6    O     O_R   0.737080 0.788600 0.175580 -0.516857
O7    O     O_R   0.762920 0.288600 0.824420 -0.499100
O8    O     O_R   0.237080 0.288600 0.175580 -0.518009
O9    O     O_R   0.167530 0.905110 0.830340 -0.523332
O10   O     O_R   0.832470 0.905110 0.169660 -0.497273
O11   O     O_R   0.667530 0.405110 0.830340 -0.524157
O12   O     O_R   0.332470 0.405110 0.169660 -0.500242
O13   O     O_R   0.054010 0.748440 0.822860 -0.498596
O14   O     O_R   0.945990 0.748440 0.177140 -0.516304
O15   O     O_R   0.554010 0.248440 0.822860 -0.498932
O16   O     O_R   0.445990 0.248440 0.177140 -0.517138
O17   O     O_3   0.165160 0.665150 0.749190 -0.279260
O18   O     O_3   0.834840 0.665150 0.250810 -0.303109
O19   O     O_3   0.665160 0.165150 0.749190 -0.278408
O20   O     O_3   0.334840 0.165150 0.250810 -0.285787
O21   O     O_R   0.178620 0.457600 0.674100 -0.489074
O22   O     O_R   0.821380 0.457600 0.325900 -0.479479
O23   O     O_R   0.678620 0.957600 0.674100 -0.489341
O24   O     O_R   0.321380 0.957600 0.325900 -0.486578
O25   O     O_R   0.284680 0.542100 0.669460 -0.525145
O26   O     O_R   0.715320 0.542100 0.330540 -0.513930
O27   O     O_R   0.784680 0.042100 0.669460 -0.523429
O28   O     O_R   0.215320 0.042100 0.330540 -0.516656
O29   O     O_R   0.262860 0.790390 0.676650 -0.513461
O30   O     O_R   0.737140 0.790390 0.323350 -0.510472
O31   O     O_R   0.762860 0.290390 0.676650 -0.511854
O32   O     O_R   0.237140 0.290390 0.323350 -0.496646
O33   O     O_R   0.167460 0.907030 0.670940 -0.504737
O34   O     O_R   0.832540 0.907030 0.329060 -0.504005
O35   O     O_R   0.667460 0.407030 0.670940 -0.506265
O36   O     O_R   0.332540 0.407030 0.329060 -0.506529
O37   O     O_R   0.053950 0.750220 0.675100 -0.493105
O38   O     O_R   0.946050 0.750220 0.324900 -0.503064
O39   O     O_R   0.553950 0.250220 0.675100 -0.491901
O40   O     O_R   0.446050 0.250220 0.324900 -0.501722
O41   O     O_R   0.043300 0.547370 0.827390 -0.504708
O42   O     O_R   0.956700 0.547370 0.172610 -0.522980
O43   O     O_R   0.543300 0.047370 0.827390 -0.505023
O44   O     O_R   0.456700 0.047370 0.172610 -0.523480
O45   O     O_R   0.178690 0.455820 0.821860 -0.515382
O46   O     O_R   0.821310 0.455820 0.178140 -0.484361
O47   O     O_R   0.678690 0.955820 0.821860 -0.515568
O48   O     O_R   0.321310 0.955820 0.178140 -0.492588
O49   O     O_R   0.284750 0.540170 0.828860 -0.512105
O50   O     O_R   0.715250 0.540170 0.171140 -0.504634
O51   O     O_R   0.784750 0.040170 0.828860 -0.512221
O52   O     O_R   0.215250 0.040170 0.171140 -0.511654
C93   C     C_3   0.274587 0.808026 0.974131 -0.379466
H53   H     H_    0.332004 0.819941 0.984446 0.130663
H54   H     H_    0.244130 0.804674 0.024820 0.145091
H55   H     H_    0.267662 0.716815 0.949526 0.144672
C94   C     C_3   0.706030 0.938648 0.054515 -0.367997
H56   H     H_    0.716684 0.020690 0.021426 0.133327
H57   H     H_    0.665660 0.879295 0.029176 0.104566
H58   H     H_    0.683518 0.970924 0.105841 0.157583
C95   C     C_3   0.774622 0.308052 0.974122 -0.378998
H59   H     H_    0.832038 0.319999 0.984431 0.130724
H60   H     H_    0.744170 0.304679 0.024814 0.145934
H61   H     H_    0.767713 0.216839 0.949517 0.144705
C96   C     C_3   0.205933 0.438438 0.054495 -0.368545
H62   H     H_    0.216498 0.520502 0.021385 0.133080
H63   H     H_    0.165615 0.378929 0.029174 0.104830
H64   H     H_    0.183387 0.470694 0.105812 0.156387

loop_
_geom_bond_atom_site_label_1
_geom_bond_atom_site_label_2
_ccdc_geom_bond_type
C70   O46   A    
C7    C83   D    
C14   H38   S    
Cr10  O14   S    
C6    C82   D    
C87   C91   D    
C14   C18   A    
Cr9   O17   S    
C35   C36   A    
C66   O2    A    
C43   C51   D    
Cr7   O31   S    
Cr8   O52   S    
C57   C62   D    
Cr12  O20   S    
C32   H43   S    
C94   H56   S    
C95   H61   S    
C15   C19   A    
C75   O11   A    
C12   C23   A    
C51   H51   S    
C59   C64   D    
C50   C54   S    
Cr11  O39   S    
C60   C63   D    
Cr3   O3    S    
C32   C36   A    
C14   C21   A    
C49   H49   S    
C16   H40   S    
C4    O24   A    
C48   O32   A    
C96   H64   S    
Cr9   O33   S    
C2    O26   A    
Cr6   O18   S    
C9    C22   A    
C10   C65   S    
Cr5   O29   S    
Cr3   O47   S    
C80   O44   A    
C29   C33   A    
C11   C24   A    
C78   O14   A    
C93   H55   S    
C63   H15   S    
C54   H6    S    
C37   C93   S    
C75   O7    A    
Cr2   O22   S    
C79   O15   A    
C18   H34   S    
C3    O23   A    
C9    C66   S    
Cr3   O19   S    
C43   H11   S    
C57   H18   S    
C46   C82   S    
C52   C56   S    
C1    O21   A    
C92   H4    S    
C39   C55   D    
C88   C92   D    
Cr9   O37   S    
C43   C70   S    
C40   C56   D    
C84   H32   S    
C17   C18   A    
Cr8   O20   S    
C73   O5    A    
C23   C24   A    
Cr9   O13   S    
C8    C92   S    
C39   C75   S    
Cr1   O45   S    
C95   H60   S    
Cr7   O27   S    
C72   O48   A    
C37   C53   D    
C44   C52   D    
C58   C61   D    
C71   O51   A    
Cr10  O10   S    
C21   C22   A    
C3    C86   S    
Cr11  O15   S    
Cr8   O32   S    
C61   C62   S    
C35   H47   S    
C46   O34   A    
C67   O39   A    
Cr10  O38   S    
C41   C49   D    
Cr6   O6    S    
C8    H24   S    
C9    C26   A    
Cr4   O48   S    
C65   O37   A    
C94   H57   S    
C10   C21   A    
C25   C29   A    
C69   O45   A    
C12   C67   S    
C45   C81   S    
C79   O43   A    
C30   C34   A    
C12   C27   A    
C61   H13   S    
C57   C77   S    
C28   C32   A    
Cr5   O17   S    
C6    H22   S    
C72   O52   A    
C15   H39   S    
C86   C90   D    
C59   C79   S    
C29   H42   S    
C74   O6    A    
Cr1   O21   S    
C86   H26   S    
C4    C85   S    
C51   C55   S    
C95   H59   S    
C6    C90   S    
C27   C31   A    
Cr4   O24   S    
C48   C84   S    
C48   O36   A    
Cr7   O51   S    
Cr2   O42   S    
C88   H28   S    
C81   H29   S    
C82   H30   S    
C60   H19   S    
C71   O47   A    
C42   H10   S    
Cr8   O8    S    
C96   H62   S    
C93   H54   S    
C85   H25   S    
Cr12  O12   S    
C5    C81   D    
C38   C54   D    
C16   C20   A    
C7    C91   S    
Cr11  O19   S    
C93   H53   S    
Cr12  O40   S    
C2    C87   S    
C68   O40   A    
C85   C89   D    
Cr11  O11   S    
C46   O30   A    
Cr1   O1    S    
C90   H2    S    
C87   H27   S    
C42   C50   D    
C41   C72   S    
Cr2   O46   S    
C31   H44   S    
C50   H50   S    
C10   C25   A    
C65   O1    A    
C15   C24   A    
Cr4   O4    S    
C73   O9    A    
Cr2   O18   S    
C26   C30   A    
C16   C23   A    
Cr5   O5    S    
Cr7   O7    S    
C76   O8    A    
Cr11  O35   S    
C80   O16   A    
C38   C94   S    
C47   O31   A    
C68   O4    A    
Cr12  O16   S    
C74   O10   A    
C11   C68   S    
C30   H41   S    
C38   C74   S    
C94   H58   S    
Cr3   O23   S    
C59   H20   S    
Cr4   O44   S    
C77   O13   A    
C37   C73   S    
C60   C80   S    
C58   H17   S    
C1    O25   A    
Cr4   O20   S    
C55   H7    S    
C8    C84   D    
C83   H31   S    
C13   H37   S    
C39   C95   S    
C36   H48   S    
C41   H9    S    
C47   C83   S    
Cr2   O2    S    
C67   O3    A    
Cr5   O25   S    
Cr10  O18   S    
Cr6   O26   S    
C70   O50   A    
C78   O42   A    
C69   O49   A    
C64   H16   S    
C13   C17   A    
C40   C96   S    
C96   H63   S    
Cr5   O49   S    
C89   H1    S    
C20   H36   S    
C19   C20   A    
C17   H33   S    
C25   C26   A    
Cr6   O30   S    
C33   H45   S    
Cr9   O9    S    
C45   O29   A    
C3    O27   A    
C11   C28   A    
C1    C88   S    
C49   C53   S    
Cr1   O41   S    
Cr1   O17   S    
C42   C71   S    
Cr10  O34   S    
C33   C34   A    
C13   C22   A    
C76   O12   A    
C31   C35   A    
C34   H46   S    
C47   O35   A    
C52   H52   S    
Cr8   O28   S    
C62   H14   S    
C58   C78   S    
C63   C64   S    
C40   C76   S    
Cr7   O19   S    
C44   H12   S    
Cr3   O43   S    
C5    H21   S    
C27   C28   A    
C45   O33   A    
C44   C69   S    
Cr6   O50   S    
C53   H5    S    
C2    O22   A    
C7    H23   S    
C66   O38   A    
C77   O41   A    
C56   H8    S    
C19   H35   S    
C5    C89   S    
C4    O28   A    
C91   H3    S    
Cr12  O36   S    
