data_mof_unit_8395.cif
_audit_creation_date              2012-12-11T15:17:51-0500
_audit_creation_method            fapswitch 2.2
_symmetry_space_group_name_H-M    P1
_symmetry_Int_Tables_number       1
_space_group_crystal_system       triclinic
_cell_length_a                    15.697182
_cell_length_b                    15.668452
_cell_length_c                    34.622812
_cell_angle_alpha                 90.026101
_cell_angle_beta                  89.993473
_cell_angle_gamma                 119.804952
_cell_volume                      7389.08957752

loop_
_atom_site_label
_atom_site_type_symbol
_atom_type_description
_atom_site_fract_x
_atom_site_fract_y
_atom_site_fract_z
_atom_type_partial_charge
C1    C     C_R   0.578233 0.441597 0.554962 0.579777
C2    C     C_R   0.558614 0.136664 0.554977 0.579474
C3    C     C_R   0.863381 0.421844 0.554975 0.591887
C4    C     C_R   0.441631 0.578016 0.054863 0.578477
C5    C     C_R   0.136935 0.558625 0.055155 0.579855
C6    C     C_R   0.422032 0.863578 0.054901 0.579312
C7    C     C_R   0.986967 0.493550 0.712022 0.353979
C8    C     C_R   0.506288 0.493849 0.711960 0.353922
C9    C     C_R   0.506379 0.012253 0.711932 0.353908
C10   C     C_R   0.508960 0.009250 0.209220 0.354801
C11   C     C_R   0.502154 0.498597 0.209801 0.354765
C12   C     C_R   0.923398 0.460153 0.198660 0.351512
C13   C     C_R   0.019131 0.433636 0.852383 -0.124465
C14   C     C_R   0.566231 0.585262 0.852351 -0.124415
C15   C     C_R   0.413493 0.979838 0.852167 -0.124461
C16   C     C_R   0.447660 0.047324 0.348261 -0.123747
C17   C     C_R   0.591418 0.561705 0.350491 -0.126765
C18   C     C_R   0.827373 0.335975 0.335637 -0.118742
C19   C     C_R   0.051117 0.448446 0.890358 -0.139124
C20   C     C_R   0.551433 0.602430 0.890343 -0.138834
C21   C     C_R   0.396415 0.948091 0.890171 -0.138922
C22   C     C_R   0.456907 0.071141 0.387005 -0.135908
C23   C     C_R   0.605615 0.549303 0.389114 -0.141827
C24   C     C_R   0.816776 0.329953 0.375580 -0.138075
C25   C     C_R   0.058349 0.608035 0.891084 -0.014553
C26   C     C_R   0.392648 0.450450 0.891088 -0.014547
C27   C     C_R   0.549270 0.942308 0.891230 -0.014519
C28   C     C_R   0.600992 0.050962 0.391886 -0.021151
C29   C     C_R   0.454267 0.389989 0.389738 -0.014135
C30   C     C_R   0.860188 0.502906 0.378732 -0.013119
C31   C     C_R   0.026610 0.591481 0.852329 -0.095375
C32   C     C_R   0.409126 0.435320 0.852300 -0.095356
C33   C     C_R   0.564293 0.973629 0.852420 -0.095424
C34   C     C_R   0.592231 0.030062 0.351877 -0.104546
C35   C     C_R   0.441893 0.404190 0.350400 -0.095625
C36   C     C_R   0.869730 0.506540 0.338168 -0.093075
C37   C     C_R   0.011968 0.507288 0.832410 0.020506
C38   C     C_R   0.492890 0.504702 0.832368 0.020530
C39   C     C_R   0.494526 0.987477 0.832332 0.020516
C40   C     C_R   0.518242 0.032291 0.329780 0.020192
C41   C     C_R   0.512402 0.487033 0.330315 0.021312
C42   C     C_R   0.854152 0.424335 0.316567 0.020022
C43   C     C_R   0.077292 0.537467 0.909391 0.023004
C44   C     C_R   0.462747 0.539807 0.909390 0.023109
C45   C     C_R   0.459620 0.922693 0.909385 0.023268
C46   C     C_R   0.537041 0.080703 0.408587 0.023820
C47   C     C_R   0.541983 0.461421 0.408521 0.024751
C48   C     C_R   0.833094 0.411788 0.397874 0.019144
C49   C     C_R   0.577763 0.442002 0.445296 0.532299
C50   C     C_R   0.557453 0.134917 0.445567 0.530957
C51   C     C_R   0.813139 0.394513 0.440116 0.547300
C52   C     C_R   0.442042 0.577466 0.945414 0.540160
C53   C     C_R   0.135386 0.557978 0.945415 0.540127
C54   C     C_R   0.422393 0.864607 0.945429 0.540440
C55   C     C_R   0.917689 0.454873 0.591786 0.025129
C56   C     C_R   0.545122 0.463170 0.591739 0.025350
C57   C     C_R   0.537427 0.082117 0.591749 0.025391
C58   C     C_R   0.458041 0.921654 0.090835 0.025194
C59   C     C_R   0.464483 0.543258 0.090938 0.025495
C60   C     C_R   0.071179 0.531994 0.089173 0.025192
C61   C     C_R   0.938924 0.389275 0.611547 -0.146421
C62   C     C_R   0.610566 0.549609 0.611562 -0.147532
C63   C     C_R   0.450696 0.060700 0.611442 -0.146721
C64   C     C_R   0.395565 0.947432 0.110307 -0.146298
C65   C     C_R   0.552410 0.607235 0.110170 -0.148226
C66   C     C_R   0.034955 0.437835 0.105400 -0.148396
C67   C     C_R   0.966903 0.404773 0.650109 -0.121309
C68   C     C_R   0.594978 0.562178 0.650114 -0.121796
C69   C     C_R   0.438101 0.032484 0.649975 -0.121529
C70   C     C_R   0.415588 0.982101 0.148039 -0.120316
C71   C     C_R   0.567525 0.589393 0.148129 -0.122151
C72   C     C_R   0.982567 0.412600 0.139924 -0.122668
C73   C     C_R   0.974903 0.486593 0.669782 -0.010179
C74   C     C_R   0.513234 0.488837 0.669716 -0.010152
C75   C     C_R   0.511712 0.024435 0.669696 -0.010166
C76   C     C_R   0.498584 0.991722 0.167249 -0.010255
C77   C     C_R   0.495200 0.506898 0.167723 -0.010009
C78   C     C_R   0.964749 0.480815 0.159200 -0.010432
C79   C     C_R   0.964022 0.557705 0.649202 -0.074333
C80   C     C_R   0.442243 0.407347 0.649065 -0.073987
C81   C     C_R   0.593658 0.035450 0.649174 -0.074067
C82   C     C_R   0.566321 0.975592 0.146771 -0.073842
C83   C     C_R   0.412090 0.437298 0.147456 -0.073459
C84   C     C_R   0.995213 0.572729 0.142003 -0.073018
C85   C     C_R   0.935952 0.542878 0.610414 0.222897
C86   C     C_R   0.457142 0.394040 0.610278 0.223495
C87   C     C_R   0.606998 0.063730 0.610404 0.222775
C88   C     C_R   0.547271 0.941352 0.108745 0.223508
C89   C     C_R   0.396236 0.454442 0.109260 0.223772
C90   C     C_R   0.048050 0.598937 0.107376 0.222259
C91   C     C_R   0.997811 0.500098 0.790225 0.346478
C92   C     C_R   0.499951 0.497856 0.790170 0.346528
C93   C     C_R   0.501641 0.001449 0.790138 0.346510
C94   C     C_R   0.515147 0.022612 0.287386 0.345476
C95   C     C_R   0.507032 0.492577 0.287994 0.346252
C96   C     C_R   0.871512 0.433440 0.274412 0.346825
Cr1   Cr    Cr6+3 0.522350 0.263930 0.500020 1.061631
Cr2   Cr    Cr6+3 0.736070 0.258420 0.500020 1.066853
Cr3   Cr    Cr6+3 0.741580 0.477650 0.500020 1.065828
Cr4   Cr    Cr6+3 0.263930 0.522350 0.000020 1.068474
Cr5   Cr    Cr6+3 0.258420 0.736070 0.000020 1.068441
Cr6   Cr    Cr6+3 0.477650 0.741580 0.000020 1.068776
H1    H     H_    0.927698 0.322111 0.598004 0.183936
H2    H     H_    0.677687 0.605125 0.598088 0.183402
H3    H     H_    0.394868 0.071959 0.597876 0.183276
H4    H     H_    0.327690 0.935241 0.097256 0.183199
H5    H     H_    0.607361 0.674856 0.096776 0.182277
H6    H     H_    0.050049 0.384149 0.092108 0.177621
H7    H     H_    0.061559 0.392043 0.903960 0.130403
H8    H     H_    0.607553 0.669117 0.903939 0.130814
H9    H     H_    0.329432 0.937195 0.903651 0.130348
H10   H     H_    0.403953 0.088577 0.399323 0.130148
H11   H     H_    0.670819 0.606607 0.403050 0.128786
H12   H     H_    0.794518 0.259931 0.389158 0.122663
H13   H     H_    0.977200 0.349743 0.664953 0.165710
H14   H     H_    0.649910 0.627138 0.665011 0.165566
H15   H     H_    0.372818 0.022068 0.664765 0.165572
H16   H     H_    0.362788 0.995902 0.162792 0.166148
H17   H     H_    0.633589 0.643329 0.162701 0.165419
H18   H     H_    0.959352 0.340779 0.152202 0.164055
H19   H     H_    0.973032 0.623052 0.663623 0.175248
H20   H     H_    0.376932 0.351438 0.663428 0.175350
H21   H     H_    0.649841 0.026380 0.663630 0.175328
H22   H     H_    0.632388 0.985614 0.160776 0.175152
H23   H     H_    0.356830 0.371457 0.161773 0.175770
H24   H     H_    0.981183 0.626181 0.156159 0.176031
H25   H     H_    0.005548 0.366543 0.838071 0.141350
H26   H     H_    0.633025 0.638616 0.838032 0.141454
H27   H     H_    0.359778 0.992818 0.837729 0.141428
H28   H     H_    0.387561 0.046057 0.332415 0.142976
H29   H     H_    0.645490 0.627922 0.336017 0.138060
H30   H     H_    0.814476 0.271103 0.319712 0.145653
H31   H     H_    0.017555 0.646001 0.836690 0.135637
H32   H     H_    0.354866 0.371915 0.836653 0.135662
H33   H     H_    0.628009 0.983055 0.836890 0.135588
H34   H     H_    0.643890 0.014306 0.337471 0.132295
H35   H     H_    0.379667 0.348905 0.334551 0.136062
H36   H     H_    0.891182 0.574117 0.322831 0.137783
N1    N     N_R   0.993874 0.423370 0.770517 -0.221235
N2    N     N_R   0.576327 0.570441 0.770492 -0.221222
N3    N     N_R   0.429122 0.005427 0.770346 -0.221269
N4    N     N_R   0.444571 0.028765 0.267023 -0.222614
N5    N     N_R   0.580486 0.567832 0.268168 -0.221059
N6    N     N_R   0.877926 0.362523 0.254237 -0.214398
N7    N     N_R   0.988102 0.419942 0.732212 -0.214533
N8    N     N_R   0.579655 0.568236 0.732184 -0.214612
N9    N     N_R   0.431679 0.011177 0.732043 -0.214549
N10   N     N_R   0.441270 0.021833 0.228795 -0.215297
N11   N     N_R   0.577860 0.571008 0.229860 -0.212737
N12   N     N_R   0.903510 0.375710 0.217119 -0.212381
N13   N     N_R   0.990617 0.570214 0.731703 -0.217981
N14   N     N_R   0.429963 0.421044 0.731609 -0.217891
N15   N     N_R   0.579114 0.008533 0.731694 -0.217945
N16   N     N_R   0.580389 0.004031 0.229484 -0.215018
N17   N     N_R   0.428904 0.423039 0.229602 -0.217967
N18   N     N_R   0.914307 0.529755 0.218591 -0.218904
N19   N     N_R   0.996478 0.573678 0.770041 -0.224598
N20   N     N_R   0.426598 0.423302 0.769953 -0.224456
N21   N     N_R   0.576503 0.002691 0.770035 -0.224466
N22   N     N_R   0.583740 0.011066 0.267853 -0.223753
N23   N     N_R   0.431571 0.419828 0.267931 -0.224780
N24   N     N_R   0.888843 0.516624 0.255652 -0.223116
O1    O     O_R   0.498680 0.159540 0.541860 -0.499352
O2    O     O_R   0.840460 0.339140 0.541860 -0.495879
O3    O     O_R   0.660860 0.501320 0.541860 -0.500870
O4    O     O_R   0.159540 0.498680 0.041860 -0.501454
O5    O     O_R   0.339140 0.840460 0.041860 -0.498870
O6    O     O_R   0.501320 0.660860 0.041860 -0.501260
O7    O     O_R   0.532760 0.358060 0.540030 -0.440420
O8    O     O_R   0.641940 0.174700 0.540030 -0.443491
O9    O     O_R   0.825300 0.467240 0.540030 -0.436664
O10   O     O_R   0.358060 0.532760 0.040030 -0.442805
O11   O     O_R   0.174700 0.641940 0.040030 -0.442132
O12   O     O_R   0.467240 0.825300 0.040030 -0.442820
O13   O     O_R   0.498590 0.161190 0.456930 -0.531084
O14   O     O_R   0.838810 0.337400 0.456930 -0.508890
O15   O     O_R   0.662600 0.501410 0.456930 -0.546359
O16   O     O_R   0.161190 0.498590 0.956930 -0.531326
O17   O     O_R   0.337400 0.838810 0.956930 -0.531701
O18   O     O_R   0.501410 0.662600 0.956930 -0.530730
O19   O     O_R   0.532680 0.359580 0.461300 -0.516435
O20   O     O_R   0.640420 0.173100 0.461300 -0.530222
O21   O     O_R   0.826900 0.467320 0.461300 -0.513099
O22   O     O_R   0.359580 0.532680 0.961300 -0.515809
O23   O     O_R   0.173100 0.640420 0.961300 -0.516385
O24   O     O_R   0.467320 0.826900 0.961300 -0.515037
O25   O     O_3   0.666667 0.333333 0.499990 -0.286068
O26   O     O_3   0.333333 0.666667 0.999990 -0.262297
Cl1   Cl    Cl    0.920981 0.635124 0.587538 -0.578865
Cl2   Cl    Cl    0.364967 0.287550 0.587283 -0.582212
Cl3   Cl    Cl    0.714045 0.078733 0.587581 -0.585492
Cl4   Cl    Cl    0.636282 0.921103 0.086027 -0.587215
Cl5   Cl    Cl    0.287838 0.363949 0.086817 -0.581722
Cl6   Cl    Cl    0.085807 0.717769 0.089384 -0.585945
C97   C     C_3   0.076662 0.701477 0.912057 -0.241296
C98   C     C_3   0.034464 0.760994 0.892780 -0.325927
C99   C     C_3   0.046942 0.845351 0.918701 -0.442239
H37   H     H_    0.006640 0.816310 0.946292 0.170343
H38   H     H_    0.125937 0.895722 0.924968 0.156967
H39   H     H_    0.017039 0.887704 0.903895 0.145473
H40   H     H_    0.073773 0.793327 0.865251 0.166752
H41   H     H_    0.954947 0.712355 0.886771 0.173709
H42   H     H_    0.043015 0.679924 0.941243 0.169591
H43   H     H_    0.157153 0.750729 0.915208 0.180207
C100  C     C_3   0.299770 0.375394 0.912104 -0.241058
C101  C     C_3   0.241208 0.273710 0.892899 -0.325943
C102  C     C_3   0.157610 0.201833 0.918902 -0.441927
H44   H     H_    0.187163 0.190943 0.946465 0.171415
H45   H     H_    0.106654 0.230056 0.925219 0.156947
H46   H     H_    0.115908 0.129607 0.904140 0.145214
H47   H     H_    0.208409 0.280278 0.865394 0.166714
H48   H     H_    0.290473 0.243251 0.886854 0.173957
H49   H     H_    0.321641 0.363627 0.941302 0.170970
H50   H     H_    0.249950 0.406315 0.915225 0.180217
C103  C     C_3   0.624824 0.925215 0.912442 -0.241058
C104  C     C_3   0.726667 0.969009 0.893449 -0.326031
C105  C     C_3   0.798941 0.958108 0.919652 -0.441569
H51   H     H_    0.808900 0.998429 0.947191 0.171643
H52   H     H_    0.771822 0.879215 0.925998 0.157398
H53   H     H_    0.871289 0.989089 0.905036 0.145277
H54   H     H_    0.721057 0.929821 0.865975 0.166558
H55   H     H_    0.756007 0.048467 0.887386 0.173939
H56   H     H_    0.635759 0.958691 0.941646 0.170939
H57   H     H_    0.594993 0.844719 0.915555 0.179824
C106  C     C_3   0.676332 0.041838 0.416725 -0.244397
C107  C     C_3   0.716571 0.978435 0.399424 -0.320318
C108  C     C_3   0.778423 0.960407 0.428821 -0.435072
H58   H     H_    0.841191 0.031433 0.438625 0.166618
H59   H     H_    0.733051 0.919653 0.454177 0.173362
H60   H     H_    0.807646 0.915869 0.415324 0.143491
H61   H     H_    0.654764 0.906199 0.390017 0.177088
H62   H     H_    0.763944 0.016563 0.374140 0.162260
H63   H     H_    0.738963 0.116064 0.422970 0.162023
H64   H     H_    0.640508 0.007783 0.444648 0.168811
C109  C     C_3   0.378033 0.298090 0.410946 -0.242424
C110  C     C_3   0.277980 0.238033 0.390838 -0.327223
C111  C     C_3   0.204753 0.155551 0.416929 -0.437783
H65   H     H_    0.232875 0.105262 0.424728 0.158247
H66   H     H_    0.191768 0.186506 0.443704 0.173431
H67   H     H_    0.133773 0.112594 0.401524 0.150498
H68   H     H_    0.247722 0.286741 0.383323 0.178927
H69   H     H_    0.286608 0.203796 0.364089 0.163993
H70   H     H_    0.408774 0.248575 0.415536 0.178105
H71   H     H_    0.364299 0.321520 0.439503 0.172853
C112  C     C_3   0.880388 0.595133 0.401218 -0.243924
C113  C     C_3   0.909361 0.688797 0.377556 -0.330065
C114  C     C_3   0.924882 0.773920 0.403685 -0.445839
H72   H     H_    0.856214 0.755128 0.419541 0.153478
H73   H     H_    0.984571 0.790930 0.424778 0.169567
H74   H     H_    0.945759 0.840403 0.385893 0.149416
H75   H     H_    0.978820 0.710906 0.361666 0.176242
H76   H     H_    0.850078 0.674986 0.356644 0.166623
H77   H     H_    0.812964 0.578721 0.417181 0.191340
H78   H     H_    0.940573 0.612366 0.422129 0.179497

loop_
_geom_bond_atom_site_label_1
_geom_bond_atom_site_label_2
_ccdc_geom_bond_type
C25   C31   A    
C24   H12   S    
Cr1   O13   S    
C30   C112  S    
C17   H29   S    
Cr6   O18   S    
C6    C58   S    
C18   H30   S    
C79   C85   A    
C30   C36   A    
C31   H31   S    
Cr4   O16   S    
C53   O16   A    
C25   C43   A    
Cr3   O25   S    
C2    C57   S    
C26   C44   A    
Cr6   O24   S    
C7    C73   S    
C113  H76   S    
C100  C101  S    
C27   C33   A    
C105  H53   S    
C26   C32   A    
C79   H19   S    
C28   C46   A    
C33   C39   A    
C29   C47   A    
C18   C24   A    
C106  H64   S    
N13   N19   A    
C91   N19   A    
C30   C48   A    
C8    N14   A    
C1    C56   S    
C83   H23   S    
Cr3   O15   S    
C51   O21   A    
C18   C42   A    
C64   C70   A    
C82   C88   A    
C97   H42   S    
C77   C83   A    
C68   C74   A    
C107  H61   S    
C38   C92   S    
C14   H26   S    
C54   O17   A    
Cr4   O4    S    
C59   C89   A    
C110  H69   S    
C93   N21   A    
C53   O23   A    
C104  H54   S    
C39   C93   S    
C92   N20   A    
C67   H13   S    
C11   C77   S    
C21   H9    S    
C6    O5    A    
C36   C42   A    
C101  H47   S    
C43   C53   S    
C48   C51   S    
C29   C109  S    
C63   C69   A    
Cr1   O1    S    
C12   C78   S    
C102  H46   S    
C94   N22   A    
C109  C110  S    
C60   C66   A    
C57   C87   A    
C88   Cl4   S    
C67   C73   A    
C32   C38   A    
C63   H3    S    
Cr5   O26   S    
C16   H28   S    
C109  H70   S    
C13   C37   A    
C25   C97   S    
C11   N17   A    
C66   H6    S    
C27   C45   A    
C19   H7    S    
C100  H49   S    
C74   C80   A    
C111  H65   S    
C103  H57   S    
C72   C78   A    
C27   C103  S    
Cr4   O26   S    
C95   N23   A    
C10   N16   A    
C50   O20   A    
C84   C90   A    
C78   C84   A    
C12   N18   A    
C21   C45   A    
Cr5   O23   S    
C82   H22   S    
C20   C44   A    
C19   C43   A    
C57   C63   A    
C49   O15   A    
C113  H75   S    
C114  H73   S    
C58   C64   A    
C83   C89   A    
C66   C72   A    
C86   Cl2   S    
C23   C47   A    
Cr5   O11   S    
C37   C91   S    
C102  H44   S    
C94   N4    A    
C14   C20   A    
C104  C105  S    
C47   C49   S    
C110  C111  S    
C76   C82   A    
C13   C19   A    
C101  C102  S    
C75   C81   A    
C103  H56   S    
C80   H20   S    
C97   H43   S    
C6    O12   A    
C105  H51   S    
C65   C71   A    
N6    N12   A    
C112  H77   S    
C9    N9    A    
C62   H2    S    
Cr6   O26   S    
C4    O6    A    
C16   C22   A    
C50   O13   A    
C24   C48   A    
C110  H68   S    
C55   C85   A    
C99   H39   S    
C103  C104  S    
C52   O18   A    
N16   N22   A    
Cr2   O25   S    
Cr5   O17   S    
C13   H25   S    
C12   N12   A    
C23   H11   S    
Cr2   O14   S    
C33   H33   S    
C56   C86   A    
C108  H58   S    
C15   H27   S    
C34   H34   S    
C97   C98   S    
C89   Cl5   S    
C72   H18   S    
C8    C74   S    
C106  C107  S    
C73   C79   A    
N17   N23   A    
C17   C23   A    
C5    O4    A    
C64   H4    S    
N4    N10   A    
C15   C39   A    
C81   C87   A    
C35   C41   A    
C61   C67   A    
C3    O2    A    
C16   C40   A    
N14   N20   A    
C91   N1    A    
C22   C46   A    
C68   H14   S    
C45   C54   S    
C22   H10   S    
C111  H66   S    
C70   C76   A    
C9    N15   A    
C20   H8    S    
C26   C100  S    
C105  H52   S    
C5    O11   A    
N2    N8    A    
C14   C38   A    
C92   N2    A    
C71   C77   A    
N5    N11   A    
C93   N3    A    
N15   N21   A    
C87   Cl3   S    
C114  H74   S    
C90   Cl6   S    
Cr1   O25   S    
C46   C50   S    
C113  C114  S    
N1    N7    A    
Cr6   O6    S    
C98   H41   S    
C4    O10   A    
C5    C60   S    
C61   H1    S    
C1    O3    A    
C10   C76   S    
C8    N8    A    
C95   N5    A    
C52   O22   A    
C40   C94   S    
C98   C99   S    
C99   H37   S    
C58   C88   A    
C2    O1    A    
C100  H50   S    
Cr2   O2    S    
C114  H72   S    
Cr1   O19   S    
C60   C90   A    
Cr2   O20   S    
Cr6   O12   S    
C28   C106  S    
Cr5   O5    S    
C112  H78   S    
C29   C35   A    
C3    C55   S    
C71   H17   S    
C42   C96   S    
C106  H63   S    
C84   H24   S    
C99   H38   S    
Cr1   O7    S    
C2    O8    A    
C108  H59   S    
C59   C65   A    
C32   H32   S    
C44   C52   S    
C41   C95   S    
C36   H36   S    
C70   H16   S    
C107  H62   S    
Cr4   O10   S    
C55   C61   A    
C4    C59   S    
C69   H15   S    
C96   N24   A    
C69   C75   A    
C56   C62   A    
C62   C68   A    
C28   C34   A    
C101  H48   S    
C51   O14   A    
Cr4   O22   S    
C17   C41   A    
C109  H71   S    
C81   H21   S    
C104  H55   S    
N3    N9    A    
N18   N24   A    
C96   N6    A    
Cr2   O8    S    
C31   C37   A    
C80   C86   A    
C15   C21   A    
C108  H60   S    
C7    N13   A    
C11   N11   A    
C107  C108  S    
C54   O24   A    
C111  H67   S    
C1    O7    A    
C102  H45   S    
C34   C40   A    
Cr3   O21   S    
C9    C75   S    
C7    N7    A    
C98   H40   S    
C112  C113  S    
C85   Cl1   S    
C65   H5    S    
C49   O19   A    
C35   H35   S    
C3    O9    A    
Cr3   O9    S    
C10   N10   A    
Cr3   O3    S    
