data_mof_unit_65384.cif
_audit_creation_date              2012-12-10T18:54:06-0500
_audit_creation_method            fapswitch 2.2
_symmetry_space_group_name_H-M    P1
_symmetry_Int_Tables_number       1
_space_group_crystal_system       triclinic
_cell_length_a                    19.472693
_cell_length_b                    19.464182
_cell_length_c                    19.432232
_cell_angle_alpha                 85.056805
_cell_angle_beta                  95.372494
_cell_angle_gamma                 90.152798
_cell_volume                      7305.46824342

loop_
_atom_site_label
_atom_site_type_symbol
_atom_type_description
_atom_site_fract_x
_atom_site_fract_y
_atom_site_fract_z
_atom_type_partial_charge
Br1   Br    Br    0.248553 0.481110 0.640967 -0.505750
Br2   Br    Br    0.336062 0.504232 0.234810 -0.512088
C1    C     C_R   0.312038 0.492818 0.492668 0.538783
C2    C     C_2   0.465458 0.979949 0.501504 -0.133094
C3    C     C_2   0.521818 0.018600 0.512134 -0.133815
C4    C     C_R   0.687964 0.508116 0.507278 0.498323
C5    C     C_R   0.512262 0.236862 0.511762 0.040101
C6    C     C_R   0.762664 0.513685 0.507344 0.041011
C7    C     C_R   0.794265 0.495599 0.449606 -0.123462
C8    C     C_R   0.865305 0.499609 0.449018 -0.105102
C9    C     C_R   0.906153 0.520185 0.507148 0.044012
C10   C     C_R   0.874229 0.540326 0.564033 -0.114803
C11   C     C_R   0.802774 0.537353 0.564102 -0.122243
C12   C     C_R   0.471280 0.905101 0.499956 0.040527
C13   C     C_R   0.130333 0.481093 0.542853 -0.074596
C14   C     C_R   0.202036 0.483097 0.549099 0.156554
C15   C     C_R   0.200012 0.493088 0.423114 -0.141876
C16   C     C_R   0.508882 0.492021 0.688824 0.509068
C17   C     C_R   0.128431 0.490132 0.417369 -0.120827
C18   C     C_R   0.093380 0.485497 0.477093 0.004516
C19   C     C_2   0.981952 0.520538 0.510876 -0.127322
C20   C     C_2   0.018002 0.485377 0.469837 -0.131059
C21   C     C_R   0.237153 0.489584 0.488717 0.050554
C22   C     C_R   0.486751 0.509548 0.236006 0.056414
C23   C     C_R   0.425862 0.870885 0.454466 -0.112368
C24   C     C_R   0.548375 0.510576 0.204320 -0.152746
C25   C     C_R   0.547118 0.509789 0.132931 -0.114803
C26   C     C_R   0.483887 0.506131 0.092175 0.010641
C27   C     C_R   0.422107 0.507039 0.123668 -0.079422
C28   C     C_R   0.490883 0.507164 0.311345 0.530026
C29   C     C_R   0.422980 0.508669 0.195319 0.161304
C30   C     C_R   0.467852 0.454763 0.873143 -0.106785
C31   C     C_R   0.462005 0.458094 0.801079 -0.112101
C32   C     C_R   0.575527 0.510024 0.800693 -0.121904
C33   C     C_R   0.581846 0.505508 0.872776 -0.113835
C34   C     C_R   0.432815 0.800081 0.450710 -0.118805
C35   C     C_R   0.527462 0.479448 0.909103 0.037286
C36   C     C_2   0.480096 0.501388 0.016789 -0.125560
C37   C     C_2   0.533168 0.480438 0.984504 -0.129271
C38   C     C_R   0.515348 0.486828 0.764489 0.039183
C39   C     C_R   0.508459 0.311983 0.508523 0.501791
C40   C     C_R   0.491265 0.688223 0.492141 0.504966
C41   C     C_R   0.484817 0.762979 0.493172 0.037753
C42   C     C_R   0.529207 0.797360 0.539674 -0.122371
C43   C     C_R   0.522256 0.867710 0.543346 -0.110594
C44   C     C_R   0.462788 0.125139 0.540152 -0.107982
C45   C     C_R   0.460140 0.196548 0.539647 -0.121285
C46   C     C_R   0.567947 0.204929 0.486080 -0.118797
C47   C     C_R   0.571007 0.133544 0.487434 -0.114773
C48   C     C_R   0.517861 0.093478 0.513111 0.040161
H1    H     H_    0.569096 0.769900 0.573786 0.138808
H2    H     H_    0.887235 0.486860 0.402679 0.103504
H3    H     H_    0.416950 0.220178 0.560111 0.140553
H4    H     H_    0.100313 0.492995 0.366369 0.128129
H5    H     H_    0.597700 0.512345 0.234982 0.123331
H6    H     H_    0.415415 0.439443 0.773996 0.162268
H7    H     H_    0.617723 0.531409 0.773308 0.130614
H8    H     H_    0.582815 0.467208 0.012382 0.118597
H9    H     H_    0.373040 0.504743 0.092666 0.141178
H10   H     H_    0.425940 0.433075 0.900743 0.120871
H11   H     H_    0.431364 0.514876 0.986684 0.127752
H12   H     H_    0.614184 0.109607 0.467192 0.109502
H13   H     H_    0.595840 0.512470 0.110467 0.111832
H14   H     H_    0.609170 0.235070 0.465041 0.136312
H15   H     H_    0.628251 0.524246 0.900152 0.109031
H16   H     H_    0.572812 0.995238 0.515804 0.121144
H17   H     H_    0.385891 0.899132 0.421154 0.113310
H18   H     H_    0.422211 0.094830 0.562140 0.113915
H19   H     H_    0.397438 0.774455 0.415016 0.142567
H20   H     H_    0.414917 0.003927 0.489705 0.123667
H21   H     H_    0.556465 0.892650 0.580616 0.111304
H22   H     H_    0.763946 0.478938 0.404471 0.130123
H23   H     H_    0.226523 0.497551 0.376332 0.168134
H24   H     H_    0.992971 0.456903 0.429128 0.121770
H25   H     H_    0.904716 0.557138 0.608996 0.109562
H26   H     H_    0.103539 0.476008 0.589406 0.142713
H27   H     H_    0.779094 0.552056 0.608959 0.129219
H28   H     H_    0.009316 0.549183 0.550462 0.125765
O1    O     O_3   0.500000 0.500000 0.500000 -0.455948
O2    O     O_R   0.467830 0.341070 0.546160 -0.545900
O3    O     O_R   0.450560 0.655630 0.450550 -0.543482
O4    O     O_R   0.545840 0.347670 0.467560 -0.545608
O5    O     O_R   0.535760 0.655640 0.535740 -0.548846
O6    O     O_R   0.545870 0.536170 0.656040 -0.550138
O7    O     O_R   0.450550 0.545430 0.340370 -0.499719
O8    O     O_R   0.347960 0.451240 0.536460 -0.497581
O9    O     O_R   0.655630 0.467150 0.467130 -0.550873
O10   O     O_R   0.340780 0.536140 0.450970 -0.532090
O11   O     O_R   0.655640 0.545460 0.545430 -0.550528
O12   O     O_R   0.467850 0.451260 0.656340 -0.527424
O13   O     O_R   0.535740 0.467130 0.347260 -0.550398
Zn1   Zn    Zn3+2 0.558310 0.558310 0.558290 0.932903
Zn2   Zn    Zn3+2 0.446830 0.436990 0.558720 0.979596
Zn3   Zn    Zn3+2 0.558290 0.446420 0.446420 0.935018
Zn4   Zn    Zn3+2 0.436570 0.558290 0.436570 0.982002

loop_
_geom_bond_atom_site_label_1
_geom_bond_atom_site_label_2
_ccdc_geom_bond_type
C6    C11   A    
O4    Zn3   S    
C43   H21   S    
C1    C21   S    
C17   C18   A    
C23   H17   S    
C7    H22   S    
C8    H2    S    
C24   H5    S    
C39   O2    A    
C2    H20   S    
C34   H19   S    
C44   H18   S    
O5    Zn1   S    
C24   C25   A    
C15   C21   A    
C32   C38   A    
C26   C27   A    
C33   C35   A    
C22   C24   A    
O1    Zn2   S    
C36   C37   D    
O3    Zn4   S    
C46   H14   S    
C33   H15   S    
C13   C14   A    
O9    Zn3   S    
C32   C33   A    
C16   C38   S    
C27   H9    S    
C6    C7    A    
C19   H28   S    
C32   H7    S    
C16   O6    A    
C7    C8    A    
C45   H3    S    
C36   H11   S    
C31   H6    S    
C13   H26   S    
O10   Zn4   S    
C19   C20   D    
C1    O8    A    
C15   H23   S    
C40   O3    A    
C12   C43   A    
C13   C18   A    
C11   H27   S    
C31   C38   A    
C16   O12   A    
O1    Zn3   S    
C28   O13   A    
C4    C6    S    
C37   H8    S    
C9    C19   S    
C4    O9    A    
C30   C31   A    
Br2   C29   S    
C28   O7    A    
C5    C45   A    
C41   C42   A    
O1    Zn4   S    
O8    Zn2   S    
C26   C36   S    
Br1   C14   S    
C30   C35   A    
O11   Zn1   S    
O1    Zn1   S    
C25   H13   S    
C17   H4    S    
C46   C47   A    
C18   C20   S    
C14   C21   A    
C3    C48   S    
C40   C41   S    
C20   H24   S    
C42   C43   A    
C42   H1    S    
O12   Zn2   S    
C44   C45   A    
C47   H12   S    
C1    O10   A    
C40   O5    A    
C2    C3    D    
C9    C10   A    
C4    O11   A    
C44   C48   A    
C5    C46   A    
C22   C29   A    
C35   C37   S    
C3    H16   S    
O13   Zn3   S    
O7    Zn4   S    
C39   O4    A    
C15   C17   A    
C5    C39   S    
C12   C23   A    
C2    C12   S    
C22   C28   S    
C8    C9    A    
C23   C34   A    
C10   C11   A    
C27   C29   A    
C47   C48   A    
C10   H25   S    
C25   C26   A    
C30   H10   S    
C34   C41   A    
O6    Zn1   S    
O2    Zn2   S    
