data_mof_unit_68101.cif
_audit_creation_date              2013-03-05T15:58:24-0500
_audit_creation_method            fapswitch 2.2
_symmetry_space_group_name_H-M    P1
_symmetry_Int_Tables_number       1
_space_group_crystal_system       triclinic
_cell_length_a                    7.180201
_cell_length_b                    15.358977
_cell_length_c                    15.357291
_cell_angle_alpha                 90.000674
_cell_angle_beta                  90.000698
_cell_angle_gamma                 89.75416
_cell_volume                      1693.59478523

loop_
_atom_site_label
_atom_site_type_symbol
_atom_site_description
_atom_site_fract_x
_atom_site_fract_y
_atom_site_fract_z
_atom_type_partial_charge
O1    O     O_R   0.388780 0.834790 0.412340 -0.557231
O2    O     O_R   0.111220 0.165210 0.912340 -0.557219
O3    O     O_R   0.888780 0.665210 0.587660 -0.561454
O4    O     O_R   0.611220 0.334790 0.087660 -0.561448
O5    O     O_R   0.059040 0.845930 0.587040 -0.572599
O6    O     O_R   0.440960 0.154070 0.087040 -0.572654
O7    O     O_R   0.559040 0.654070 0.412960 -0.543555
O8    O     O_R   0.940960 0.345930 0.912960 -0.543547
C1    C     C_R   0.228572 0.868401 0.615423 0.946517
C2    C     C_R   0.271430 0.131609 0.115433 0.946528
C3    C     C_R   0.727913 0.631922 0.384435 0.965587
C4    C     C_R   0.772087 0.368074 0.884432 0.965573
O9    O     O_R   0.059070 0.845930 0.412970 -0.595063
O10   O     O_R   0.440930 0.154070 0.912970 -0.595052
O11   O     O_R   0.559070 0.654070 0.587030 -0.604966
O12   O     O_R   0.940930 0.345930 0.087030 -0.604944
O13   O     O_R   0.888760 0.665210 0.412340 -0.602117
O14   O     O_R   0.611240 0.334790 0.912340 -0.602117
O15   O     O_R   0.388760 0.834790 0.587660 -0.603266
O16   O     O_R   0.111240 0.165210 0.087660 -0.603258
C5    C     C_R   0.226896 0.862483 0.380131 0.934059
C6    C     C_R   0.273105 0.137523 0.880126 0.934127
C7    C     C_R   0.727631 0.633018 0.616067 0.924417
C8    C     C_R   0.772368 0.366982 0.116067 0.924471
O17   O     O_3   0.222280 0.690700 0.500000 -0.275961
O18   O     O_3   0.277720 0.309300 0.000000 -0.275937
O19   O     O_3   0.722280 0.809300 0.500000 -0.277724
O20   O     O_3   0.777720 0.190700 0.000000 -0.277726
V1    V     V_3+5 0.947430 0.761000 0.500000 1.255095
V2    V     V_3+5 0.552570 0.239000 0.000000 1.255102
V3    V     V_3+5 0.447430 0.739000 0.500000 1.262046
V4    V     V_3+5 0.052570 0.261000 0.000000 1.262085
C9    C     C_3   0.919331 0.572080 0.745112 0.194348
C10   C     C_3   0.580621 0.427941 0.245087 0.194383
C11   C     C_3   0.434083 0.933213 0.261249 0.199629
C12   C     C_3   0.065925 0.066797 0.761231 0.199615
H1    H     H_    0.034320 0.542574 0.705953 0.111139
H2    H     H_    0.465676 0.457475 0.205921 0.111161
H3    H     H_    0.527105 0.962722 0.310972 0.133452
H4    H     H_    0.972911 0.037258 0.810939 0.133449
C13   C     C_3   0.905958 0.515863 0.829852 -0.279067
C14   C     C_3   0.594002 0.484142 0.329837 -0.279089
C15   C     C_3   0.434665 0.996740 0.180976 -0.248150
C16   C     C_3   0.065381 0.003302 0.680933 -0.248118
H5    H     H_    0.046494 0.488653 0.842739 0.167047
H6    H     H_    0.453475 0.511363 0.342722 0.167066
H7    H     H_    0.562757 0.036429 0.185123 0.165883
H8    H     H_    0.937241 0.963640 0.685023 0.165903
H9    H     H_    0.841961 0.472485 0.592108 0.208886
H10   H     H_    0.658103 0.527522 0.092107 0.208873
H11   H     H_    0.280455 0.028588 0.404916 0.194662
H12   H     H_    0.219554 0.971423 0.904903 0.194660
C17   C     C_3   0.744835 0.471543 0.648142 -0.607857
C18   C     C_3   0.755220 0.528456 0.148146 -0.607883
C19   C     C_3   0.196098 0.019963 0.345763 -0.552033
C20   C     C_3   0.303895 0.980045 0.845749 -0.552103
C21   C     C_3   0.555462 0.562628 0.746684 -0.212199
C22   C     C_3   0.944500 0.437347 0.246710 -0.212220
C23   C     C_3   0.077946 0.918298 0.235772 -0.212004
C24   C     C_3   0.422069 0.081708 0.735765 -0.211988
C25   C     C_3   0.736515 0.563974 0.688626 -0.134658
C26   C     C_3   0.763477 0.436024 0.188627 -0.134673
C27   C     C_3   0.235450 0.929268 0.305667 -0.161896
C28   C     C_3   0.264554 0.070741 0.805656 -0.161919
H13   H     H_    0.432505 0.554316 0.703305 0.158815
H14   H     H_    0.067490 0.445632 0.203348 0.158880
H15   H     H_    0.942161 0.920435 0.270474 0.170317
H16   H     H_    0.557848 0.079581 0.770473 0.170362
C29   C     C_3   0.761422 0.440260 0.813989 -0.224765
C30   C     C_3   0.738576 0.559736 0.313992 -0.224706
C31   C     C_3   0.258076 0.057170 0.183701 -0.226537
C32   C     C_3   0.241933 0.942845 0.683684 -0.226458
C33   C     C_3   0.801956 0.401894 0.718943 0.288232
C34   C     C_3   0.698108 0.598110 0.218944 0.288195
C35   C     C_3   0.233317 0.094436 0.279461 0.259499
C36   C     C_3   0.266645 0.905577 0.779445 0.259487
C37   C     C_3   0.558712 0.481573 0.809250 -0.215343
C38   C     C_3   0.941272 0.518407 0.309268 -0.215400
C39   C     C_3   0.077471 0.998541 0.171196 -0.187324
C40   C     C_3   0.422570 0.001456 0.671196 -0.187398
H17   H     H_    0.466943 0.431420 0.779495 0.173375
H18   H     H_    0.033068 0.568549 0.279514 0.173351
H19   H     H_    0.956362 0.039754 0.190739 0.138943
H20   H     H_    0.543657 0.960239 0.690762 0.139015
H21   H     H_    0.606583 0.454104 0.620608 0.192833
H22   H     H_    0.893492 0.545878 0.120624 0.192845
H23   H     H_    0.048735 0.024004 0.367990 0.191430
H24   H     H_    0.451262 0.975997 0.867971 0.191471
H25   H     H_    0.714281 0.343285 0.708895 0.097758
H26   H     H_    0.785824 0.656707 0.208909 0.097736
H27   H     H_    0.106952 0.136546 0.278386 0.088041
H28   H     H_    0.392989 0.863451 0.778380 0.088046
N1    N     N_R   0.977460 0.661711 0.760587 0.244553
O21   O     O_R   0.863798 0.717549 0.795123 -0.357841
O22   O     O_R   0.133348 0.688932 0.727336 -0.426936
N2    N     N_R   0.522395 0.338318 0.260536 0.244583
O23   O     O_R   0.636082 0.282419 0.294955 -0.357978
O24   O     O_R   0.366445 0.311154 0.227297 -0.426969
N3    N     N_R   0.516793 0.847538 0.242256 0.228786
O25   O     O_R   0.458637 0.800492 0.177827 -0.352495
O26   O     O_R   0.662005 0.821127 0.285664 -0.447035
N4    N     N_R   0.983180 0.152472 0.742271 0.228768
O27   O     O_R   0.041337 0.199554 0.677871 -0.352538
O28   O     O_R   0.837965 0.178857 0.785690 -0.447056
C41   C     C_1   0.863602 0.569136 0.907351 0.194883
N5    N     N_1   0.831773 0.612800 0.966903 -0.032266
C42   C     C_1   0.636328 0.430848 0.407325 0.194803
N6    N     N_1   0.668136 0.387173 0.466871 -0.032305
C43   C     C_1   0.454237 0.953385 0.095630 0.205555
N7    N     N_1   0.471651 0.918966 0.029121 -0.037745
C44   C     C_1   0.045947 0.046698 0.595602 0.205455
N8    N     N_1   0.028639 0.081155 0.529106 -0.037715
N9    N     N_R   0.998260 0.375803 0.703961 0.256791
O29   O     O_R   0.057611 0.362948 0.624828 -0.360986
O30   O     O_R   0.109327 0.354976 0.767488 -0.410372
N10   N     N_R   0.501830 0.624230 0.203942 0.256802
O31   O     O_R   0.442526 0.637099 0.124804 -0.360925
O32   O     O_R   0.390730 0.645046 0.267460 -0.410368
N11   N     N_R   0.385970 0.147737 0.313150 0.281085
O33   O     O_R   0.344187 0.203504 0.374039 -0.328709
O34   O     O_R   0.556337 0.118825 0.311280 -0.401377
N12   N     N_R   0.113961 0.852293 0.813123 0.281094
O35   O     O_R   0.155643 0.796623 0.874120 -0.328686
O36   O     O_R   0.943547 0.881147 0.811083 -0.401337
C45   C     C_1   0.520545 0.645554 0.792361 0.300929
N13   N     N_1   0.491540 0.709662 0.829514 0.011613
C46   C     C_1   0.979307 0.354422 0.292404 0.301082
N14   N     N_1   0.008214 0.290314 0.329572 0.011602
C47   C     C_1   0.079007 0.832045 0.193209 0.297125
N15   N     N_1   0.076451 0.764523 0.159757 -0.000034
C48   C     C_1   0.420991 0.167954 0.693189 0.297061
N16   N     N_1   0.423536 0.235470 0.659728 -0.000031
C49   C     C_1   0.471101 0.499661 0.895068 0.135626
N17   N     N_1   0.401233 0.513587 0.961559 -0.040567
C50   C     C_1   0.028866 0.500324 0.395091 0.135583
N18   N     N_1   0.098727 0.486401 0.461585 -0.040547
C51   C     C_1   0.027585 0.974938 0.081138 0.107495
N19   N     N_1   0.980061 0.955747 0.011887 -0.034334
C52   C     C_1   0.472509 0.025042 0.581140 0.107445
N20   N     N_1   0.520059 0.044214 0.511889 -0.034333

loop_
_geom_bond_atom_site_label_1
_geom_bond_atom_site_label_2
_geom_bond_distance
_ccdc_geom_bond_type
O17   V3    1.781596 S    
C31   C35   1.587770 S    
C4    C29   1.550714 S    
O1    C5    1.331318 A    
N1    O21   1.294928 A    
C20   C36   1.555350 S    
O19   V1    1.775809 S    
O13   V1    2.039503 S    
C41   N5    1.156324 T    
C29   C37   1.586971 S    
C44   N8    1.156636 T    
C10   C14   1.564931 S    
C1    C32   1.554471 S    
O1    V3    2.036886 S    
C32   C36   1.587774 S    
O15   V3    2.036898 S    
C31   C39   1.593551 S    
C3    C30   1.550702 S    
C50   N18   1.157242 T    
O7    C3    1.332041 A    
H10   C18   1.107784 S    
C13   C41   1.475234 S    
O2    V4    2.036871 S    
O9    V1    2.034579 S    
C10   N2    1.459729 S    
C47   N15   1.157546 T    
C21   C45   1.474575 S    
O4    C8    1.333608 A    
C20   H24   1.113275 S    
C30   C38   1.586958 S    
C14   C30   1.579614 S    
C33   N9    1.481681 S    
N10   O31   1.302584 A    
C12   N4    1.470579 S    
C14   H6    1.108354 S    
O3    V1    2.039502 S    
C30   C34   1.600312 S    
C23   H15   1.111474 S    
C18   C34   1.578303 S    
O3    C7    1.333626 A    
C22   H14   1.113764 S    
C24   C40   1.581930 S    
C2    O16   1.328953 A    
N2    O24   1.300948 A    
O2    C6    1.331330 A    
C15   C31   1.568687 S    
C42   N6    1.156327 T    
C20   C28   1.547897 S    
C29   C33   1.600320 S    
O14   V2    2.039532 S    
C11   C15   1.572198 S    
C38   C50   1.486041 S    
C35   H27   1.112106 S    
C19   C35   1.555371 S    
C2    C31   1.554504 S    
O11   C7    1.328485 A    
C22   C46   1.474571 S    
O12   C8    1.328492 A    
C37   C49   1.486048 S    
O10   V2    2.034547 S    
O16   V4    2.036916 S    
C11   N3    1.470582 S    
C24   C48   1.477230 S    
C1    O15   1.328945 A    
O5    V1    2.034560 S    
N11   O34   1.299894 A    
C52   N20   1.155515 T    
O7    V3    2.030161 S    
C40   H20   1.114546 S    
O8    V4    2.030167 S    
C21   C37   1.572683 S    
C12   H4    1.112306 S    
C35   N11   1.465237 S    
C23   C39   1.581912 S    
C18   H22   1.112758 S    
O18   V4    1.781595 S    
C18   C26   1.550712 S    
C6    C28   1.537624 S    
O11   V3    2.030151 S    
C9    H1    1.116016 S    
C19   C27   1.547904 S    
C11   H3    1.112293 S    
O5    C1    1.339574 A    
C38   H18   1.113867 S    
C9    N1    1.459711 S    
N3    O25   1.295402 A    
C37   H17   1.113865 S    
O8    C4    1.332041 A    
C34   N10   1.481671 S    
N2    O23   1.294923 A    
O9    C5    1.331804 A    
N4    O28   1.300923 A    
C22   C26   1.576614 S    
C36   H28   1.112131 S    
C9    C25   1.578740 S    
O6    V2    2.034594 S    
C49   N17   1.157245 T    
C12   C16   1.572187 S    
C17   C25   1.550729 S    
C48   N16   1.157547 T    
C10   C26   1.578755 S    
C13   C29   1.579572 S    
N9    O29   1.302588 A    
C14   C42   1.475248 S    
C23   C47   1.477230 S    
C8    C26   1.539367 S    
N3    O26   1.300928 A    
C10   H2    1.116014 S    
C17   C33   1.578299 S    
C21   H13   1.113768 S    
C3    O13   1.335633 A    
O6    C2    1.339581 A    
C17   H21   1.112757 S    
N11   O33   1.302249 A    
C21   C25   1.576604 S    
O12   V4    2.030143 S    
C40   C52   1.474342 S    
C51   N19   1.155511 T    
C23   C27   1.568793 S    
C24   C28   1.568827 S    
C36   N12   1.465215 S    
C34   H26   1.111430 S    
O20   V2    1.775810 S    
C9    C13   1.564951 S    
C32   C40   1.593551 S    
C16   H8    1.107415 S    
C43   N7    1.156620 T    
C39   H19   1.114541 S    
O10   C6    1.331800 A    
C45   N13   1.156137 T    
C15   H7    1.107414 S    
H9    C17   1.107779 S    
N10   O32   1.299199 A    
C16   C32   1.568735 S    
H11   C19   1.100141 S    
C19   H23   1.113277 S    
N4    O27   1.295402 A    
C5    C27   1.537615 S    
C22   C38   1.572673 S    
C33   H25   1.111438 S    
C16   C44   1.476557 S    
H12   C20   1.100117 S    
C7    C25   1.539390 S    
C24   H16   1.111464 S    
N1    O22   1.300943 A    
C4    O14   1.335638 A    
C13   H5    1.108351 S    
C11   C27   1.582370 S    
C15   C43   1.476562 S    
N12   O35   1.302301 A    
C12   C28   1.582371 S    
N12   O36   1.299979 A    
C39   C51   1.474324 S    
O4    V2    2.039471 S    
C46   N14   1.156134 T    
N9    O30   1.299198 A    
