data_mof_unit_47827.cif
_audit_creation_date              2012-10-26T19:21:04-0400
_audit_creation_method            fapswitch 2.2
_symmetry_space_group_name_H-M    P1
_symmetry_Int_Tables_number       1
_space_group_crystal_system       triclinic
_cell_length_a                    9.880326
_cell_length_b                    10.825034
_cell_length_c                    13.364605
_cell_angle_alpha                 95.020977
_cell_angle_beta                  81.77945
_cell_angle_gamma                 110.002752
_cell_volume                      1328.23478284

loop_
_atom_site_label
_atom_site_type_symbol
_atom_type_description
_atom_site_fract_x
_atom_site_fract_y
_atom_site_fract_z
_atom_type_partial_charge
C1    C     C_R   0.556504 0.746556 0.502845 0.591769
C2    C     C_R   0.373519 0.429697 0.795226 0.003502
C3    C     C_2   0.585251 0.889124 0.496426 0.025588
C4    C     C_R   0.421131 0.471475 0.688749 0.572023
C5    C     C_2   0.524979 0.933137 0.426735 0.025362
C6    C     C_2   0.419311 0.110986 0.484683 0.085366
C7    C     C_2   0.524346 0.069437 0.432208 -0.097108
C8    C     C_2   0.923875 0.489294 0.490171 0.104494
C9    C     C_2   0.070390 0.501083 0.515185 0.161807
C10   C     C_R   0.445158 0.253396 0.491825 0.586615
C11   C     C_R   0.576824 0.510248 0.309498 0.636555
C12   C     C_R   0.434029 0.427562 0.966779 -0.018966
C13   C     C_R   0.798197 0.570006 0.051016 -0.114292
C14   C     C_R   0.620055 0.509063 0.199360 0.025344
C15   C     C_R   0.227595 0.402951 0.834846 -0.115921
C16   C     C_R   0.184038 0.392777 0.939161 0.051347
C17   C     C_R   0.289400 0.414977 0.004609 -0.128199
C18   C     C_2   0.871788 0.678314 0.214909 0.644234
C19   C     C_2   0.466164 0.852418 0.336595 0.627753
C20   C     C_2   0.280831 0.021487 0.535557 0.605725
C21   C     C_2   0.672748 0.979323 0.572184 0.581339
C22   C     C_2   0.109594 0.564349 0.614397 0.607714
C23   C     C_R   0.473811 0.424573 0.860680 0.051789
C24   C     C_2   0.866795 0.398852 0.406005 0.288166
C25   C     C_2   0.402253 0.305260 0.169687 0.243458
C26   C     C_2   0.029073 0.362506 0.980337 0.582783
C27   C     C_2   0.645951 0.336676 0.739263 0.307698
C28   C     C_R   0.544209 0.454448 0.031420 -0.001916
C29   C     C_R   0.690467 0.505527 0.989024 0.013856
C30   C     C_R   0.726388 0.483569 0.885956 -0.115713
C31   C     C_R   0.615880 0.422768 0.825645 0.031476
C32   C     C_R   0.516669 0.431022 0.135516 -0.026552
C33   C     C_R   0.761264 0.584167 0.155518 0.040406
Cu1   Cu    Cu3+1 0.362000 0.479240 0.482530 1.118155
Cu2   Cu    Cu3+1 0.638000 0.520760 0.517470 1.055143
H1    H     H_    0.123431 0.404595 0.387839 0.238392
H2    H     H_    0.105498 0.003519 0.638776 0.354710
H3    H     H_    0.807585 0.160333 0.607804 0.352366
H4    H     H_    0.228892 0.721290 0.693327 0.338082
H5    H     H_    0.806557 0.297423 0.420599 0.129658
H6    H     H_    0.321746 0.248571 0.121195 0.133854
H7    H     H_    0.880312 0.344478 0.103497 0.362923
H8    H     H_    0.756600 0.351602 0.705485 0.133538
H9    H     H_    0.888208 0.618289 0.600493 0.233520
H10   H     H_    0.838663 0.501365 0.855271 0.176955
H11   H     H_    0.908995 0.616087 0.017112 0.162610
H12   H     H_    0.147892 0.392931 0.784623 0.212240
H13   H     H_    0.258022 0.423644 0.085128 0.167809
H14   H     H_    0.614224 0.138236 0.387935 0.131679
H15   H     H_    0.915970 0.819023 0.326672 0.358725
H16   H     H_    0.328442 0.818514 0.231490 0.366732
N1    N     N_2   0.845330 0.551960 0.543750 -0.368484
N2    N     N_2   0.154690 0.448120 0.456210 -0.365130
O1    O     O_R   0.426290 0.668220 0.490680 -0.438245
O2    O     O_R   0.830750 0.758671 0.292341 -0.653641
O3    O     O_2   0.516118 0.768485 0.297440 -0.502935
O4    O     O_R   0.358531 0.878215 0.293038 -0.626493
O5    O     O_2   0.237124 0.904328 0.511387 -0.455743
O6    O     O_R   0.198026 0.073037 0.610149 -0.664757
O7    O     O_2   0.681380 0.936743 0.651996 -0.474415
O8    O     O_R   0.748998 0.111137 0.551547 -0.715729
O9    O     O_2   0.039271 0.512056 0.691414 -0.606330
O10   O     O_R   0.215637 0.688016 0.620852 -0.621394
O11   O     O_2   0.898767 0.434754 0.319157 -0.476066
O12   O     O_R   0.659360 0.703290 0.520190 -0.463516
O13   O     O_2   0.403811 0.256457 0.248286 -0.487991
O14   O     O_2   0.935370 0.328424 0.923219 -0.520843
O15   O     O_R   0.989190 0.369726 0.084850 -0.655934
O16   O     O_2   0.547686 0.244499 0.708211 -0.473739
O17   O     O_R   0.326580 0.473880 0.629020 -0.485112
O18   O     O_R   0.559660 0.508940 0.658530 -0.503748
O19   O     O_R   0.340640 0.296710 0.479810 -0.450931
O20   O     O_R   0.573710 0.331780 0.509320 -0.514485
O21   O     O_R   0.440340 0.491060 0.341470 -0.457214
O22   O     O_R   0.673420 0.526120 0.370980 -0.455148
O23   O     O_2   0.999888 0.689448 0.193439 -0.466572

loop_
_geom_bond_atom_site_label_1
_geom_bond_atom_site_label_2
_ccdc_geom_bond_type
C19   O3    D    
C6    C10   S    
C2    C4    S    
C1    O1    A    
C13   C33   A    
C29   C30   A    
H16   O4    S    
C27   H8    S    
C22   O9    D    
H4    O10   S    
C8    N1    D    
C30   H10   S    
C1    O12   A    
H15   O2    S    
C27   O16   D    
C17   H13   S    
C15   H12   S    
C3    C5    D    
H3    O8    S    
C26   O15   S    
H9    N1    S    
C14   C33   A    
C4    O17   A    
Cu2   O18   S    
C24   O11   D    
C11   O22   A    
C19   O4    S    
C20   O6    S    
H7    O15   S    
C2    C15   A    
Cu2   N1    S    
C12   C23   A    
Cu2   O22   S    
C21   O7    D    
H2    O6    S    
C18   O2    S    
C25   C32   S    
C5    C19   S    
C26   O14   D    
C13   C29   A    
C28   C29   A    
C24   H5    S    
C12   C28   A    
Cu1   O1    S    
C6    C7    D    
C2    C23   A    
C16   C26   S    
C30   C31   A    
C10   O20   A    
C9    C22   S    
C3    C21   S    
C10   O19   A    
C9    N2    D    
C18   C33   S    
Cu2   O12   S    
C27   C31   S    
C15   C16   A    
Cu1   O19   S    
C12   C17   A    
C28   C32   A    
C20   O5    D    
C6    C20   S    
C7    H14   S    
Cu1   N2    S    
C5    C7    S    
Cu1   Cu2   S    
C25   H6    S    
C11   C14   S    
Cu1   O21   S    
Cu1   O17   S    
C13   H11   S    
Cu2   O20   S    
C18   O23   D    
H1    N2    S    
C8    C24   S    
C22   O10   S    
C21   O8    S    
C4    O18   A    
C25   O13   D    
C16   C17   A    
C14   C32   A    
C8    C9    S    
C1    C3    S    
C11   O21   A    
C23   C31   A    
