data_mof_unit_34571.cif
_audit_creation_date              2012-12-11T14:49:23-0500
_audit_creation_method            fapswitch 2.2
_symmetry_space_group_name_H-M    P1
_symmetry_Int_Tables_number       1
_space_group_crystal_system       triclinic
_cell_length_a                    16.908734
_cell_length_b                    16.738019
_cell_length_c                    19.479457
_cell_angle_alpha                 117.863505
_cell_angle_beta                  62.246901
_cell_angle_gamma                 100.838439
_cell_volume                      4310.11996151

loop_
_atom_site_label
_atom_site_type_symbol
_atom_type_description
_atom_site_fract_x
_atom_site_fract_y
_atom_site_fract_z
_atom_type_partial_charge
C1    C     C_R   0.038731 0.759906 0.012859 -0.125033
C2    C     C_R   0.251555 0.519260 0.827766 -0.086385
C3    C     C_R   0.183171 0.489921 0.087702 -0.111121
C4    C     C_R   0.764590 0.418108 0.162880 0.659117
C5    C     C_R   0.985030 0.342890 0.760828 -0.143667
C6    C     C_R   0.257329 0.540308 0.065044 0.063301
C7    C     C_R   0.932615 0.269412 0.762251 0.033987
C8    C     C_R   0.257763 0.453980 0.747330 0.126526
C9    C     C_R   0.013519 0.225252 0.020643 0.032972
C10   C     C_R   0.844456 0.137936 0.710927 -0.235656
C11   C     C_R   0.892950 0.213308 0.702393 0.113359
C12   C     C_R   0.764838 0.438499 0.240205 -0.093147
C13   C     C_R   0.913260 0.227303 0.630251 -0.242220
C14   C     C_R   0.900185 0.158926 0.560339 0.139893
C15   C     C_R   0.864029 0.077326 0.564375 0.033855
C16   C     C_R   0.804558 0.559469 0.960540 -0.120916
C17   C     C_R   0.831208 0.068959 0.641715 0.131484
C18   C     C_R   0.932044 0.166706 0.483214 -0.199824
C19   C     C_R   0.937624 0.090807 0.407994 -0.180187
C20   C     C_R   0.912074 0.006760 0.409559 0.108880
C21   C     C_R   0.870544 0.000974 0.488756 0.036034
C22   C     C_R   0.844646 0.916849 0.491043 0.131437
C23   C     C_R   0.723303 0.548224 0.021619 0.039446
C24   C     C_R   0.802377 0.911583 0.569987 -0.198804
C25   C     C_R   0.795528 0.987615 0.645286 -0.181352
C26   C     C_R   0.935619 0.927440 0.332958 -0.214390
C27   C     C_R   0.922682 0.843087 0.335140 0.141338
C28   C     C_R   0.954886 0.673097 0.249284 -0.242580
C29   C     C_R   0.870137 0.838410 0.414054 -0.245514
C30   C     C_R   0.424454 0.410156 0.666493 0.386000
C31   C     C_R   0.339245 0.406592 0.667831 -0.003108
C32   C     C_R   0.332842 0.366383 0.589288 -0.301875
C33   C     C_R   0.408326 0.349287 0.512398 0.145728
C34   C     C_R   0.967156 0.760450 0.256611 -0.083214
C35   C     C_R   0.492644 0.370376 0.512999 -0.018779
C36   C     C_R   0.501994 0.396710 0.589078 0.000253
C37   C     C_R   0.399130 0.321051 0.436605 -0.176657
C38   C     C_R   0.471677 0.322833 0.363742 -0.196146
C39   C     C_R   0.553905 0.352077 0.366129 0.095457
C40   C     C_R   0.738453 0.483639 0.040100 -0.118299
C41   C     C_R   0.566141 0.371324 0.438999 0.070930
C42   C     C_R   0.649515 0.399286 0.440505 0.142560
C43   C     C_R   0.660825 0.417200 0.513139 -0.238866
C44   C     C_R   0.587896 0.415370 0.586667 -0.108570
C45   C     C_R   0.250227 0.569022 0.011990 -0.059738
C46   C     C_R   0.621268 0.369807 0.299756 -0.223658
C47   C     C_R   0.702057 0.404992 0.303579 0.146978
C48   C     C_R   0.717793 0.414898 0.371945 -0.270886
C49   C     C_R   0.636826 0.592198 0.056931 0.132919
C50   C     C_R   0.324116 0.568033 0.099212 0.123956
C51   C     C_R   0.402994 0.537794 0.161642 -0.208712
C52   C     C_R   0.028878 0.753182 0.175358 0.683843
C53   C     C_R   0.327446 0.529365 0.148216 -0.164070
C54   C     C_R   0.391515 0.625499 0.074342 -0.237233
C55   C     C_R   0.469543 0.629248 0.082433 0.177117
C56   C     C_R   0.915234 0.266164 0.837505 -0.030930
C57   C     C_R   0.476688 0.581501 0.122925 0.184572
C58   C     C_R   0.560054 0.567460 0.113619 -0.267443
C59   C     C_R   0.628282 0.649872 0.026434 -0.161632
C60   C     C_R   0.544301 0.669725 0.040579 -0.201192
C61   C     C_R   0.823587 0.188059 0.180553 0.151929
C62   C     C_R   0.952091 0.865981 0.007358 0.133195
C63   C     C_R   0.852764 0.954291 0.007080 -0.155290
C64   C     C_R   0.840571 0.488187 0.240744 -0.254520
C65   C     C_R   0.897188 0.872594 0.973581 -0.177310
C66   C     C_R   0.964730 0.944541 0.073121 -0.268350
C67   C     C_R   0.171596 0.446955 0.753013 -0.142229
C68   C     C_R   0.919945 0.026664 0.107421 0.178307
C69   C     C_R   0.862112 0.031105 0.075185 0.158499
C70   C     C_R   0.813518 0.111926 0.112802 -0.191106
C71   C     C_R   0.881769 0.184245 0.211528 -0.190800
C72   C     C_R   0.929696 0.103866 0.175436 -0.215174
C73   C     C_R   0.960078 0.691478 0.937520 -0.125765
C74   C     C_R   0.985870 0.776083 0.983100 0.034176
C75   C     C_R   0.042944 0.309776 0.061146 -0.228947
C76   C     C_R   0.963822 0.239966 0.986949 0.476075
Cl1   Cl    Cl    0.899274 0.157344 0.942237 -0.709624
Cl2   Cl    Cl    0.434818 0.426334 0.758432 -0.704477
F1    F     F_    0.723326 0.347637 0.122160 -0.726831
F2    F     F_    0.079227 0.820601 0.158715 -0.757547
H1    H     H_    0.081154 0.807970 0.038479 0.186516
H2    H     H_    0.958389 0.229618 0.479719 0.127079
H3    H     H_    0.968021 0.096443 0.347729 0.128487
H4    H     H_    0.969445 0.932257 0.272422 0.182642
H5    H     H_    0.854876 0.774152 0.417068 0.122790
H6    H     H_    0.780572 0.847483 0.572604 0.133404
H7    H     H_    0.768652 0.980967 0.704817 0.142259
H8    H     H_    0.268896 0.356339 0.587251 0.137647
H9    H     H_    0.334587 0.303452 0.435392 0.128075
H10   H     H_    0.462170 0.306284 0.307292 0.138486
H11   H     H_    0.606305 0.363094 0.249224 0.191213
H12   H     H_    0.861553 0.230441 0.867786 0.165107
H13   H     H_    0.815416 0.599951 0.927753 0.089593
H14   H     H_    0.780631 0.439705 0.374730 0.123005
H15   H     H_    0.724981 0.437075 0.514722 0.132732
H16   H     H_    0.598580 0.434335 0.642865 0.186432
H17   H     H_    0.564807 0.527677 0.142195 0.120567
H18   H     H_    0.686095 0.674476 0.986604 0.115871
H19   H     H_    0.407197 0.502205 0.194253 0.131209
H20   H     H_    0.539251 0.708532 0.011077 0.134075
H21   H     H_    0.275154 0.487244 0.170971 0.116793
H22   H     H_    0.388740 0.659285 0.039870 0.124220
H23   H     H_    0.149763 0.401903 0.704322 0.104510
H24   H     H_    0.767660 0.116338 0.090141 0.179587
H25   H     H_    0.912510 0.651335 0.298685 0.141987
H26   H     H_    0.889126 0.243617 0.264007 0.127471
H27   H     H_    0.809365 0.956798 0.981082 0.147756
H28   H     H_    0.973638 0.101822 0.201085 0.129793
H29   H     H_    0.885995 0.814085 0.922960 0.116517
H30   H     H_    0.005888 0.941454 0.100930 0.140084
H31   H     H_    0.691041 0.456570 0.083710 0.146817
H32   H     H_    0.869089 0.504108 0.284903 0.131985
H33   H     H_    0.928998 0.677073 0.895884 0.086115
H34   H     H_    0.079387 0.325424 0.098821 0.135394
H35   H     H_    0.288572 0.619670 0.991623 0.094811
H36   H     H_    0.304654 0.545639 0.847227 0.159909
H37   H     H_    0.159978 0.467900 0.137787 0.084419
H38   H     H_    0.999817 0.374780 0.719310 0.093024
H39   H     H_    0.825233 0.127414 0.767274 0.141116
H40   H     H_    0.947011 0.286978 0.624289 0.116110
N1    N     N_R   0.036080 0.671900 0.995420 -0.051513
N2    N     N_R   0.867430 0.509300 0.948100 -0.046970
N3    N     N_R   0.003360 0.617250 0.167070 -0.068713
N4    N     N_R   0.825450 0.461270 0.995400 -0.040718
N5    N     N_R   0.045340 0.665280 0.119770 -0.102696
N6    N     N_R   0.883740 0.497640 0.167070 -0.065313
N7    N     N_R   0.987050 0.628910 0.948110 -0.044243
N8    N     N_R   0.174550 0.538730 0.004600 -0.048185
N9    N     N_R   0.954660 0.334720 0.880230 -0.045160
N10   N     N_R   0.116260 0.502360 0.832930 -0.046822
N11   N     N_R   0.012950 0.371090 0.051890 -0.063657
N12   N     N_R   0.963920 0.328100 0.004580 -0.085279
N13   N     N_R   0.165290 0.545350 0.880240 -0.055456
N14   N     N_R   0.132570 0.490700 0.051900 -0.036523
N15   N     N_R   0.996640 0.382750 0.832930 -0.047054
N16   N     N_R   0.834710 0.454650 0.119760 -0.100698
Ni1   Ni    Ni4+2 0.104370 0.604370 0.000010 0.240951
Ni2   Ni    Ni4+2 0.895630 0.395630 0.999990 0.294632
Ni3   Ni    Ni4+2 0.991920 0.505780 0.891500 0.206314
Ni4   Ni    Ni4+2 0.008080 0.494220 0.108500 0.197149

loop_
_geom_bond_atom_site_label_1
_geom_bond_atom_site_label_2
_ccdc_geom_bond_type
C61   C70   A    
C66   C68   A    
C63   C65   A    
N13   Ni1   S    
C6    C45   A    
C27   C29   A    
C76   N12   A    
C41   C42   A    
C14   C18   A    
C35   C36   A    
N8    Ni1   S    
C3    C6    A    
C28   N3    A    
C67   H23   S    
C39   C41   A    
N15   Ni3   S    
N6    Ni4   S    
C16   H13   S    
C50   C54   A    
C48   H14   S    
C1    C74   A    
N4    Ni2   S    
C22   C29   A    
N2    Ni3   S    
N1    N7    A    
N14   Ni4   S    
C30   C31   A    
C12   C64   A    
C70   H24   S    
C23   C49   S    
C10   C17   A    
C1    H1    S    
C23   C40   A    
C32   H8    S    
C25   H7    S    
C73   H33   S    
C5    N15   A    
C18   C19   A    
C73   C74   A    
N1    Ni1   S    
C16   N2    A    
C10   H39   S    
C3    H37   S    
C33   C35   A    
N9    N15   A    
C2    H36   S    
N9    Ni2   S    
C72   H28   S    
C53   H21   S    
C68   C69   A    
C43   H15   S    
C51   C57   A    
C9    C76   A    
C4    C12   A    
C29   H5    S    
C56   N9    A    
C4    N16   A    
C55   C60   A    
C61   C71   A    
C28   C34   A    
C59   C60   A    
C13   C14   A    
C58   H17   S    
N7    Ni3   S    
C7    C56   A    
C12   C47   S    
C19   H3    S    
N10   Ni3   S    
C75   N11   A    
C40   H31   S    
C27   C34   S    
C51   H19   S    
C40   N4    A    
C2    N13   A    
C62   C66   A    
C50   C53   A    
C63   C69   A    
C24   C25   A    
C4    F1    S    
N16   Ni2   S    
C5    C7    A    
C46   H11   S    
N5    Ni1   S    
C73   N7    A    
N3    Ni4   S    
C33   C37   A    
C49   C58   A    
C24   H6    S    
C51   C53   A    
C7    C11   S    
C43   C44   A    
C37   C38   A    
C44   H16   S    
N8    N14   A    
C45   H35   S    
C47   C48   A    
C15   C21   A    
C28   H25   S    
C68   C72   A    
C26   C27   A    
C75   H34   S    
C42   C48   A    
C76   Cl1   S    
C65   H29   S    
C39   C46   A    
C16   C23   A    
C64   N6    A    
C55   C57   A    
C22   C24   A    
C36   C44   A    
C67   N10   A    
C42   C43   A    
C63   H27   S    
N11   N12   A    
C13   H40   S    
N12   Ni2   S    
C15   C17   A    
C54   C55   A    
C26   H4    S    
C6    C50   S    
C62   C65   A    
N11   Ni4   S    
C8    C31   S    
C54   H22   S    
C31   C32   A    
C2    C8    A    
C60   H20   S    
N10   N13   A    
C52   N5    A    
C30   C36   A    
C9    C75   A    
C38   H10   S    
C34   C52   A    
C49   C59   A    
C37   H9    S    
C5    H38   S    
C3    N14   A    
C17   C25   A    
C32   C33   A    
C19   C20   A    
C71   C72   A    
C52   F2    S    
C11   C13   A    
C57   C58   A    
C38   C39   A    
C20   C26   A    
C18   H2    S    
C69   C70   A    
C35   C41   A    
C1    N1    A    
C46   C47   A    
N3    N5    A    
C10   C11   A    
N6    N16   A    
C30   Cl2   S    
C56   H12   S    
C20   C21   A    
C66   H30   S    
C8    C67   A    
C71   H26   S    
C59   H18   S    
C14   C15   A    
C62   C74   S    
C45   N8    A    
C21   C22   A    
N2    N4    A    
C64   H32   S    
