data_mof_unit_24306.cif
_audit_creation_date              2012-12-10T17:28:34-0500
_audit_creation_method            fapswitch 2.2
_symmetry_space_group_name_H-M    P1
_symmetry_Int_Tables_number       1
_space_group_crystal_system       triclinic
_cell_length_a                    10.77316
_cell_length_b                    12.023048
_cell_length_c                    12.958035
_cell_angle_alpha                 94.116524
_cell_angle_beta                  90.543599
_cell_angle_gamma                 84.660739
_cell_volume                      1666.80501735

loop_
_atom_site_label
_atom_site_type_symbol
_atom_type_description
_atom_site_fract_x
_atom_site_fract_y
_atom_site_fract_z
_atom_type_partial_charge
C1    C     C_R   0.498985 0.523284 0.701232 0.995046
C2    C     C_R   0.508133 0.476639 0.299581 0.923575
C3    C     C_R   0.524028 0.460091 0.188194 -0.185651
C4    C     C_R   0.504276 0.538918 0.814140 -0.214264
C5    C     C_R   0.524305 0.649682 0.976948 0.512388
C6    C     C_R   0.526956 0.346517 0.025723 0.493454
C7    C     C_R   0.507254 0.645213 0.869296 0.099969
C8    C     C_R   0.533294 0.353164 0.134101 0.126008
C9    C     C_R   0.510720 0.441641 0.867447 -0.316369
C10   C     C_R   0.526776 0.556370 0.134996 -0.289388
C11   C     C_R   0.520772 0.445907 0.973674 -0.037199
C12   C     C_R   0.525587 0.550745 0.028547 -0.051079
C13   C     C_R   0.466106 0.944004 0.367272 -0.325288
C14   C     C_R   0.526156 0.056367 0.632761 -0.367947
C15   C     C_R   0.456955 0.831092 0.384655 0.035409
C16   C     C_R   0.531096 0.169749 0.616446 0.061978
C17   C     C_R   0.501475 0.864832 0.562459 -0.076030
C18   C     C_R   0.501677 0.134762 0.436567 -0.103754
C19   C     C_R   0.508341 0.979803 0.549059 0.111427
C20   C     C_R   0.493617 0.019506 0.449704 0.070187
C21   C     C_R   0.740532 0.499377 0.512597 0.933180
C22   C     C_R   0.260942 0.502761 0.516248 0.927426
C23   C     C_R   0.905130 0.289201 0.569364 0.226200
C24   C     C_R   0.099989 0.706689 0.609512 0.196343
C25   C     C_R   0.986527 0.192185 0.553695 -0.357569
C26   C     C_R   0.017981 0.803368 0.629337 -0.292620
C27   C     C_R   0.112255 0.198444 0.571584 0.144954
C28   C     C_R   0.891685 0.793223 0.647150 0.161953
C29   C     C_R   0.155115 0.303416 0.594226 0.537091
C30   C     C_R   0.849005 0.686497 0.630300 0.503749
C31   C     C_R   0.080218 0.401379 0.566846 -0.140531
C32   C     C_R   0.922757 0.599236 0.575121 -0.114139
C33   C     C_R   0.950283 0.395641 0.558503 -0.026824
C34   C     C_R   0.052522 0.605300 0.572005 -0.025667
C35   C     C_R   0.130241 0.504444 0.551720 -0.139396
C36   C     C_R   0.872739 0.497046 0.547044 -0.120225
H1    H     H_    0.451777 0.971783 0.289983 0.156459
H2    H     H_    0.533340 0.029352 0.710749 0.153189
H3    H     H_    0.951468 0.110870 0.547068 0.179983
H4    H     H_    0.057541 0.879181 0.656494 0.183233
H5    H     H_    0.526064 0.637554 0.177009 0.224277
H6    H     H_    0.508077 0.360858 0.825817 0.219746
H7    H     H_    0.484894 0.166723 0.361484 0.161041
H8    H     H_    0.517408 0.833148 0.637432 0.146283
H9    H     H_    0.541267 0.226863 0.683009 0.154166
H10   H     H_    0.436263 0.774508 0.319751 0.149016
N1    N     N_R   0.523130 0.207800 0.519340 -0.093794
N2    N     N_R   0.476870 0.792200 0.480660 -0.108076
O1    O     O_R   0.506170 0.421700 0.658830 -0.621572
O2    O     O_R   0.493830 0.578300 0.341170 -0.650360
O3    O     O_R   0.491330 0.609310 0.646410 -0.585237
O4    O     O_R   0.508670 0.390690 0.353590 -0.599789
O5    O     O_R   0.690650 0.406190 0.506220 -0.613676
O6    O     O_R   0.309350 0.593810 0.493780 -0.618783
O7    O     O_R   0.675800 0.593810 0.493800 -0.601946
O8    O     O_R   0.324200 0.406190 0.506200 -0.581347
Zn1   Zn    Zn3+2 0.509910 0.374730 0.508290 0.981823
Zn2   Zn    Zn3+2 0.490090 0.625270 0.491710 0.968290
N3    N     N_2   0.816121 0.879767 0.704796 -0.295664
H11   H     H_    0.725216 0.863448 0.715315 0.241064
C37   C     C_3   0.825045 0.993742 0.680288 -0.846994
H12   H     H_    0.800580 0.002676 0.597680 0.249706
H13   H     H_    0.918829 0.019759 0.698360 0.249617
H14   H     H_    0.759387 0.050419 0.729504 0.233691
N4    N     N_2   0.192227 0.098616 0.577162 -0.285299
H15   H     H_    0.275178 0.101627 0.539494 0.255530
C38   C     C_3   0.209987 0.059655 0.679681 -0.767317
H16   H     H_    0.275853 0.109706 0.724976 0.271976
H17   H     H_    0.249865 0.971304 0.672442 0.216103
H18   H     H_    0.120368 0.064846 0.721904 0.227731
N5    N     N_2   0.795548 0.279393 0.626431 -0.242651
H19   H     H_    0.759403 0.204142 0.609768 0.224556
C39   C     C_3   0.808246 0.304762 0.736545 -0.818478
H20   H     H_    0.717276 0.301585 0.774263 0.233858
H21   H     H_    0.837919 0.389947 0.752741 0.250980
H22   H     H_    0.877491 0.242758 0.769895 0.227039
N6    N     N_2   0.212728 0.700852 0.666968 -0.265542
H23   H     H_    0.266406 0.765875 0.657038 0.241397
C40   C     C_3   0.191374 0.684928 0.775118 -0.815292
H24   H     H_    0.277397 0.649288 0.810763 0.256709
H25   H     H_    0.120121 0.625168 0.784119 0.227922
H26   H     H_    0.159006 0.766072 0.817195 0.237313
O9    O     O_3   0.261605 0.308809 0.654347 -0.584668
C41   C     C_3   0.227011 0.350382 0.755676 -0.339179
H27   H     H_    0.300488 0.320247 0.809927 0.208153
H28   H     H_    0.138435 0.320268 0.782005 0.149518
H29   H     H_    0.220003 0.443051 0.761302 0.177806
O10   O     O_3   0.755075 0.657683 0.692278 -0.624605
C42   C     C_3   0.810008 0.628366 0.787740 -0.423250
H30   H     H_    0.898058 0.572272 0.778123 0.165694
H31   H     H_    0.745780 0.581812 0.830091 0.194603
H32   H     H_    0.828861 0.704655 0.836587 0.177376
N7    N     N_2   0.549750 0.253266 0.187534 -0.288753
H33   H     H_    0.509335 0.185954 0.152155 0.251590
C43   C     C_3   0.677072 0.224040 0.220071 -0.782750
H34   H     H_    0.682131 0.146126 0.261588 0.227670
H35   H     H_    0.710542 0.291700 0.273049 0.258305
H36   H     H_    0.740133 0.209833 0.152249 0.222096
N8    N     N_2   0.500588 0.745461 0.816216 -0.280143
H37   H     H_    0.585992 0.766353 0.793986 0.252159
C44   C     C_3   0.419556 0.841480 0.856653 -0.728167
H38   H     H_    0.372191 0.882378 0.791508 0.210394
H39   H     H_    0.475177 0.903501 0.899020 0.256512
H40   H     H_    0.347366 0.817072 0.909069 0.262333
O11   O     O_3   0.531177 0.751561 0.032901 -0.614489
C45   C     C_3   0.657059 0.774541 0.039927 -0.380205
H41   H     H_    0.691293 0.795926 0.963979 0.170139
H42   H     H_    0.718021 0.703859 0.069754 0.162750
H43   H     H_    0.663785 0.848666 0.095123 0.199366
O12   O     O_3   0.514541 0.244562 0.971313 -0.631076
C46   C     C_3   0.633258 0.188672 0.948226 -0.391442
H44   H     H_    0.711005 0.244059 0.951331 0.156980
H45   H     H_    0.630322 0.148196 0.868773 0.182305
H46   H     H_    0.653968 0.121014 0.001403 0.195695

loop_
_geom_bond_atom_site_label_1
_geom_bond_atom_site_label_2
_ccdc_geom_bond_type
C21   O5    A    
N7    H33   S    
C27   C29   A    
C6    O12   S    
C39   H20   S    
C43   H34   S    
C41   H29   S    
C18   N1    A    
C43   H36   S    
C22   O6    A    
C21   C36   S    
C5    O11   S    
N6    H23   S    
C22   C35   S    
C9    H6    S    
C44   H38   S    
C7    N8    S    
O9    C41   S    
C32   C36   A    
C24   C26   A    
C29   O9    S    
N1    Zn1   S    
C45   H41   S    
C33   C36   A    
O1    Zn1   S    
O8    Zn1   S    
C18   C20   A    
C34   C35   A    
C37   H13   S    
O12   C46   S    
C2    O2    A    
C19   C20   A    
N4    C38   S    
C17   N2    A    
C42   H31   S    
C13   H1    S    
C13   C20   A    
N3    H11   S    
C44   H39   S    
C10   H5    S    
C39   H21   S    
C15   N2    A    
C4    C7    A    
C10   C12   A    
C16   N1    A    
N6    C40   S    
N3    C37   S    
C38   H16   S    
O2    Zn2   S    
C23   N5    S    
C41   H27   S    
C5    C12   A    
C3    C8    A    
C6    C11   A    
C5    C7    A    
O5    Zn1   S    
C6    C8    A    
C23   C33   A    
C24   C34   A    
C38   H17   S    
C32   C34   A    
C37   H14   S    
C27   N4    S    
C14   H2    S    
C9    C11   A    
N8    H37   S    
C31   C33   A    
C46   H45   S    
O3    Zn2   S    
C42   H32   S    
C1    O3    A    
C2    O4    A    
N8    C44   S    
C44   H40   S    
C13   C15   A    
C39   H22   S    
C14   C16   A    
C30   O10   S    
C21   O7    A    
O6    Zn2   S    
C28   N3    S    
C46   H44   S    
C14   C19   A    
C8    N7    S    
C41   H28   S    
C16   H9    S    
C40   H26   S    
C22   O8    A    
C11   C12   A    
C43   H35   S    
N2    Zn2   S    
C25   C27   A    
O11   C45   S    
C26   C28   A    
C1    C4    S    
C38   H18   S    
C28   C30   A    
C2    C3    S    
C4    C9    A    
C17   H8    S    
N5    H19   S    
C29   C31   A    
C3    C10   A    
C18   H7    S    
C25   H3    S    
C30   C32   A    
C26   H4    S    
C45   H42   S    
C17   C19   A    
C46   H46   S    
C31   C35   A    
C23   C25   A    
C40   H25   S    
C37   H12   S    
O4    Zn1   S    
C40   H24   S    
C24   N6    S    
O10   C42   S    
N7    C43   S    
N4    H15   S    
O7    Zn2   S    
N5    C39   S    
C15   H10   S    
C42   H30   S    
C1    O1    A    
C45   H43   S    
