data_mof_unit_6845.cif
_audit_creation_date              2012-12-10T17:42:12-0500
_audit_creation_method            fapswitch 2.2
_symmetry_space_group_name_H-M    P1
_symmetry_Int_Tables_number       1
_space_group_crystal_system       triclinic
_cell_length_a                    15.048527
_cell_length_b                    13.692316
_cell_length_c                    10.767909
_cell_angle_alpha                 89.930501
_cell_angle_beta                  89.487456
_cell_angle_gamma                 90.013663
_cell_volume                      2218.62842007

loop_
_atom_site_label
_atom_site_type_symbol
_atom_type_description
_atom_site_fract_x
_atom_site_fract_y
_atom_site_fract_z
_atom_type_partial_charge
C1    C     C_R   0.328737 0.499818 0.503024 0.799089
C2    C     C_3   0.592334 0.483063 0.923125 -0.362789
C3    C     C_R   0.814501 0.560598 0.426754 -0.190557
C4    C     C_R   0.768042 0.498037 0.505947 -0.168238
C5    C     C_R   0.813698 0.432642 0.583602 -0.032747
C6    C     C_R   0.906487 0.420747 0.567606 0.045650
C7    C     C_R   0.953571 0.488722 0.492157 -0.031630
C8    C     C_R   0.907249 0.558679 0.420931 0.122267
C9    C     C_R   0.952992 0.339264 0.616870 0.159189
C10   C     C_R   0.046557 0.338523 0.614705 0.006100
C11   C     C_R   0.093201 0.419894 0.564807 -0.006726
C12   C     C_R   0.498910 0.500263 0.259821 0.813703
C13   C     C_R   0.046936 0.487782 0.489767 0.012771
C14   C     C_R   0.094087 0.555867 0.414726 0.081949
C15   C     C_R   0.047294 0.620703 0.335862 -0.055422
C16   C     C_R   0.953659 0.623591 0.342080 0.067562
C17   C     C_R   0.185194 0.433988 0.583837 -0.045097
C18   C     C_R   0.232000 0.497818 0.504433 -0.123381
C19   C     C_R   0.186983 0.557993 0.421810 -0.164743
C20   C     C_R   0.443078 0.793193 0.577215 0.022683
C21   C     C_R   0.443086 0.206577 0.577170 0.036686
C22   C     C_R   0.556669 0.793385 0.422556 0.032760
C23   C     C_R   0.556849 0.206747 0.422869 0.031005
C24   C     C_R   0.557972 0.896452 0.420627 -0.008890
C25   C     C_R   0.558069 0.103689 0.420795 -0.005699
C26   C     C_R   0.671244 0.499821 0.503418 0.821781
C27   C     C_R   0.499785 0.948156 0.499769 0.093434
C28   C     C_R   0.499804 0.051801 0.499796 0.089868
C29   C     C_R   0.441637 0.896270 0.578967 -0.008756
C30   C     C_R   0.441637 0.103515 0.578931 -0.008082
C31   C     C_R   0.615857 0.948828 0.341876 -0.176502
C32   C     C_R   0.615923 0.051510 0.341985 -0.175987
C33   C     C_R   0.383707 0.051164 0.657640 -0.178494
C34   C     C_R   0.383737 0.948479 0.657698 -0.172279
C35   C     C_R   0.496898 0.500044 0.740063 0.766496
C36   C     C_3   0.470488 0.605027 0.069229 -0.189522
C37   C     C_3   0.431904 0.421321 0.072060 -0.180904
C38   C     C_3   0.462442 0.600119 0.926981 -0.383452
C39   C     C_3   0.434513 0.419157 0.928513 -0.421973
C40   C     C_3   0.595453 0.475922 0.068337 0.008875
C41   C     C_3   0.498489 0.501308 0.121442 -0.072685
C42   C     C_3   0.496518 0.500416 0.877496 0.046483
Cu1   Cu    Cu3+1 0.499990 0.597420 0.500010 0.969296
Cu2   Cu    Cu3+1 0.499990 0.402580 0.500010 0.957163
H1    H     H_    0.524077 0.658127 0.089619 0.214800
H2    H     H_    0.454177 0.348291 0.104825 0.217893
H3    H     H_    0.225801 0.608576 0.366538 0.179867
H4    H     H_    0.398899 0.752164 0.637651 0.133456
H5    H     H_    0.398999 0.247327 0.637705 0.113269
H6    H     H_    0.600956 0.752537 0.362292 0.170877
H7    H     H_    0.601371 0.247657 0.362999 0.125890
H8    H     H_    0.661116 0.910400 0.280269 0.156891
H9    H     H_    0.661212 0.090095 0.280436 0.159624
H10   H     H_    0.338395 0.089615 0.719159 0.158088
H11   H     H_    0.338484 0.909922 0.719319 0.161008
H12   H     H_    0.392313 0.610286 0.897118 0.190651
H13   H     H_    0.366990 0.428720 0.889241 0.165992
H14   H     H_    0.501624 0.661482 0.886194 0.191343
H15   H     H_    0.458666 0.346309 0.897123 0.211460
H16   H     H_    0.634383 0.544418 0.888009 0.148963
H17   H     H_    0.620124 0.416920 0.877598 0.219212
H18   H     H_    0.777359 0.611294 0.370069 0.221659
N1    N     N_R   0.499930 0.743810 0.499950 -0.192470
N2    N     N_R   0.499930 0.256190 0.499950 -0.186611
O1    O     O_R   0.370250 0.582280 0.500040 -0.595872
O2    O     O_R   0.370250 0.417720 0.500040 -0.567830
O3    O     O_R   0.499970 0.582270 0.317700 -0.563929
O4    O     O_R   0.499970 0.417730 0.317700 -0.578722
O5    O     O_R   0.629730 0.582260 0.499980 -0.557122
O6    O     O_R   0.629730 0.417740 0.499980 -0.614269
O7    O     O_R   0.500000 0.582270 0.682320 -0.591702
O8    O     O_R   0.500000 0.417730 0.682320 -0.602081
C43   C     C_2   0.095364 0.247647 0.649045 0.511224
H19   H     H_    0.158786 0.231234 0.605028 0.027065
O9    O     O_2   0.066600 0.191474 0.727866 -0.492136
C44   C     C_2   0.229566 0.397019 0.698067 0.281539
H20   H     H_    0.299770 0.380451 0.698376 0.070038
O10   O     O_2   0.188249 0.389275 0.795740 -0.506652
C45   C     C_2   0.093840 0.685027 0.244769 0.358092
H21   H     H_    0.072944 0.760227 0.232890 0.083933
O11   O     O_2   0.152648 0.653060 0.177372 -0.522348
N3    N     N_3   0.904588 0.690750 0.266179 -0.595665
H22   H     H_    0.922366 0.762032 0.290117 0.216879
H23   H     H_    0.920993 0.678559 0.172921 0.241823
C46   C     C_2   0.387744 0.650029 0.126968 0.404969
H24   H     H_    0.352604 0.614699 0.202934 0.085475
O12   O     O_2   0.361423 0.729609 0.091586 -0.507920
C47   C     C_2   0.337453 0.432481 0.119401 0.351597
H25   H     H_    0.293339 0.485955 0.078315 0.127410
O13   O     O_2   0.309178 0.380009 0.202574 -0.510267
C48   C     C_2   0.669420 0.543784 0.111967 0.229205
H26   H     H_    0.735528 0.535580 0.071951 0.135218
O14   O     O_2   0.657993 0.605940 0.191546 -0.580675
C49   C     C_2   0.624728 0.374457 0.110745 0.325728
H27   H     H_    0.650294 0.365012 0.203975 0.077063
O15   O     O_2   0.619439 0.302689 0.043876 -0.544921
C50   C     C_2   0.766524 0.390914 0.693253 0.284940
H28   H     H_    0.703311 0.353973 0.683734 0.109245
O16   O     O_2   0.797244 0.401063 0.797029 -0.534536
N4    N     N_3   0.907261 0.250455 0.649729 -0.531101
H29   H     H_    0.883985 0.254488 0.741115 0.291055
H30   H     H_    0.855093 0.237338 0.588447 0.203131

loop_
_geom_bond_atom_site_label_1
_geom_bond_atom_site_label_2
_ccdc_geom_bond_type
C27   C29   A    
C43   H19   S    
C37   C47   S    
Cu2   O2    S    
C24   C27   A    
C31   H8    S    
C6    C9    A    
C21   H5    S    
C50   H28   S    
Cu1   N1    S    
C7    C8    A    
C46   H24   S    
Cu2   N2    S    
C25   C28   A    
C12   O4    A    
C1    C18   S    
C44   O10   D    
C38   C42   S    
C5    C6    A    
C10   C43   S    
C2    H16   S    
C15   C16   A    
C39   H13   S    
C18   C19   A    
C35   C42   S    
C21   N2    A    
C22   N1    A    
C38   H14   S    
C11   C17   A    
C17   C44   S    
C1    O1    A    
Cu2   O6    S    
C9    C10   A    
C2    H17   S    
C22   H6    S    
C25   C32   A    
C35   O7    A    
C34   H11   S    
C8    C16   A    
C13   C14   A    
C43   O9    D    
C36   C41   S    
N4    H30   S    
C50   O16   D    
C17   C18   A    
C39   C42   S    
C20   C29   A    
C46   O12   D    
C12   O3    A    
C15   C45   S    
C44   H20   S    
C3    C8    A    
C48   H26   S    
C45   O11   D    
C29   C34   A    
C1    O2    A    
Cu1   Cu2   S    
C12   C41   S    
C48   O14   D    
C23   H7    S    
C31   C32   A    
Cu1   O1    S    
C39   H15   S    
C16   N3    S    
C33   C34   A    
C36   H1    S    
C49   O15   D    
C20   H4    S    
C40   C41   S    
C47   O13   D    
C35   O8    A    
C9    N4    S    
N3    H23   S    
C26   O6    A    
C22   C24   A    
Cu2   O4    S    
C3    C4    A    
C32   H9    S    
C3    H18   S    
C33   H10   S    
C23   N2    A    
Cu1   O7    S    
C30   C33   A    
C14   C19   A    
C40   C49   S    
C4    C5    A    
C4    C26   S    
C6    C7    A    
C36   C46   S    
C21   C30   A    
C20   N1    A    
C36   C38   S    
C24   C31   A    
C37   C39   S    
C11   C13   A    
C2    C42   S    
C28   C30   A    
N4    H29   S    
Cu2   O8    S    
C19   H3    S    
C23   C25   A    
C40   C48   S    
C37   C41   S    
C49   H27   S    
C10   C11   A    
C45   H21   S    
C2    C40   S    
C5    C50   S    
C7    C13   A    
C38   H12   S    
C47   H25   S    
Cu1   O3    S    
N3    H22   S    
C27   C28   A    
C26   O5    A    
C14   C15   A    
C37   H2    S    
Cu1   O5    S    
