data_mof_unit_22328.cif
_audit_creation_date              2012-12-10T17:10:16-0500
_audit_creation_method            fapswitch 2.2
_symmetry_space_group_name_H-M    P1
_symmetry_Int_Tables_number       1
_space_group_crystal_system       triclinic
_cell_length_a                    15.719614
_cell_length_b                    10.640324
_cell_length_c                    10.068356
_cell_angle_alpha                 88.484773
_cell_angle_beta                  89.93035
_cell_angle_gamma                 90.674984
_cell_volume                      1683.34356781

loop_
_atom_site_label
_atom_site_type_symbol
_atom_type_description
_atom_site_fract_x
_atom_site_fract_y
_atom_site_fract_z
_atom_type_partial_charge
C1    C     C_R   0.507728 0.263215 0.501686 0.913315
C2    C     C_2   0.500339 0.870754 0.492987 -0.339504
C3    C     C_2   0.559234 0.068913 0.406243 0.029383
C4    C     C_R   0.338078 0.499291 0.500081 0.899000
C5    C     C_2   0.527207 0.132316 0.508523 -0.390433
C6    C     C_2   0.568011 0.510547 0.924301 -0.263565
C7    C     C_2   0.563340 0.539058 0.069510 -0.036972
C8    C     C_R   0.499696 0.737641 0.498247 0.941206
C9    C     C_R   0.661900 0.500397 0.499857 0.895127
C10   C     C_3   0.969264 0.408197 0.583085 -0.248843
C11   C     C_3   0.026689 0.385662 0.460586 -0.202875
C12   C     C_3   0.083045 0.496728 0.502177 0.149291
C13   C     C_1   0.249181 0.497626 0.500483 -0.165408
C14   C     C_1   0.750728 0.500452 0.499091 -0.161002
C15   C     C_3   0.027391 0.519038 0.624254 -0.001514
C16   C     C_2   0.633406 0.618939 0.118017 0.483754
C17   C     C_2   0.449936 0.396944 0.107385 0.553644
C18   C     C_R   0.941018 0.462841 0.237641 0.107929
C19   C     C_R   0.953822 0.350240 0.170985 -0.152064
C20   C     C_R   0.925188 0.337646 0.040439 -0.123938
C21   C     C_R   0.884001 0.437262 0.975432 -0.112357
C22   C     C_R   0.871113 0.549508 0.041040 -0.146326
C23   C     C_3   0.973967 0.611572 0.539442 0.004575
C24   C     C_R   0.898974 0.562152 0.171936 -0.163884
C25   C     C_2   0.944864 0.740307 0.573966 0.343381
C26   C     C_R   0.062116 0.526739 0.763794 0.114650
C27   C     C_R   0.048271 0.631506 0.842870 -0.149570
C28   C     C_R   0.080387 0.634337 0.972333 -0.119157
C29   C     C_R   0.126250 0.532776 0.024226 -0.075871
C30   C     C_R   0.140332 0.428229 0.946554 -0.120600
C31   C     C_R   0.108434 0.425082 0.817078 -0.150148
C32   C     C_R   0.600743 0.130780 0.288295 0.160455
C33   C     C_R   0.667393 0.218300 0.304708 -0.101954
C34   C     C_3   0.916872 0.501575 0.498072 0.141022
C35   C     C_R   0.706290 0.276634 0.194025 -0.130750
C36   C     C_R   0.680132 0.246430 0.066099 -0.136666
C37   C     C_R   0.615138 0.157614 0.048715 -0.157453
C38   C     C_R   0.575652 0.099613 0.159270 -0.145770
C39   C     C_3   0.031103 0.590210 0.417020 -0.297325
C40   C     C_3   0.973128 0.479341 0.377018 0.054440
C41   C     C_1   0.173905 0.496549 0.501230 -0.064558
C42   C     C_1   0.825970 0.500722 0.498115 -0.009682
C43   C     C_2   0.556377 0.932004 0.414180 -0.167349
H1    H     H_    0.051087 0.293130 0.430682 0.134489
H2    H     H_    0.471490 0.333175 0.032281 0.023456
H3    H     H_    0.985979 0.272237 0.219191 0.121197
H4    H     H_    0.935410 0.250880 0.989348 0.128174
H5    H     H_    0.862556 0.427797 0.874022 0.127702
H6    H     H_    0.840305 0.627197 0.989911 0.140366
H7    H     H_    0.888764 0.649802 0.221544 0.147411
H8    H     H_    0.991559 0.814433 0.588826 0.052207
H9    H     H_    0.012239 0.710720 0.806570 0.119908
H10   H     H_    0.068984 0.714941 0.032976 0.123364
H11   H     H_    0.150420 0.534807 0.124802 0.139618
H12   H     H_    0.514304 0.086299 0.603992 0.153282
H13   H     H_    0.175660 0.349334 0.986860 0.145797
H14   H     H_    0.119555 0.343029 0.758357 0.130230
H15   H     H_    0.689038 0.241313 0.403266 0.101094
H16   H     H_    0.756671 0.345228 0.207585 0.152999
H17   H     H_    0.710239 0.291744 0.980473 0.131261
H18   H     H_    0.595013 0.134213 0.949522 0.144184
H19   H     H_    0.525018 0.031547 0.144384 0.146119
H20   H     H_    0.629833 0.507772 0.876522 0.175105
H21   H     H_    0.443932 0.524262 0.895281 0.176971
H22   H     H_    0.942003 0.334235 0.650987 0.141895
H23   H     H_    0.058284 0.663911 0.348686 0.137892
H24   H     H_    0.599970 0.880697 0.352535 0.214632
H25   H     H_    0.453945 0.916421 0.554427 0.137195
H26   H     H_    0.694042 0.620166 0.066798 0.012580
N1    N     N_2   0.500900 0.501330 0.852150 -0.192840
N2    N     N_2   0.500930 0.501360 0.147810 -0.135440
O1    O     O_R   0.499990 0.319060 0.613040 -0.618819
O2    O     O_2   0.381257 0.375422 0.160003 -0.574654
O3    O     O_2   0.869291 0.762886 0.584611 -0.564209
O4    O     O_R   0.500010 0.319100 0.386900 -0.589011
O5    O     O_R   0.376760 0.499970 0.613050 -0.621005
O6    O     O_R   0.376790 0.500010 0.386910 -0.561160
O7    O     O_R   0.499990 0.680900 0.613100 -0.608106
O8    O     O_R   0.500010 0.680940 0.386960 -0.558467
O9    O     O_R   0.623210 0.499990 0.613090 -0.619114
O10   O     O_R   0.623240 0.500030 0.386950 -0.593158
O11   O     O_2   0.623308 0.689752 0.209431 -0.563167
Zn1   Zn    Zn3+2 0.499980 0.499970 0.650990 0.949711
Zn2   Zn    Zn3+2 0.500020 0.500030 0.349010 1.034678

loop_
_geom_bond_atom_site_label_1
_geom_bond_atom_site_label_2
_ccdc_geom_bond_type
C17   O2    D    
C33   H15   S    
C35   C36   A    
C34   C42   S    
C13   C41   T    
C19   H3    S    
C3    C43   S    
C26   C27   A    
C37   C38   A    
C1    C5    S    
C36   C37   A    
C17   H2    S    
C18   C19   A    
C2    H25   S    
C10   C15   S    
C7    N2    D    
O8    Zn2   S    
O4    Zn2   S    
C29   H11   S    
C35   H16   S    
C25   O3    D    
C4    C13   S    
C18   C40   S    
O7    Zn1   S    
C19   C20   A    
C8    O8    A    
C18   C24   A    
H21   N1    S    
C14   C42   T    
C21   H5    S    
C15   C23   S    
C26   C31   A    
C21   C22   A    
C8    O7    A    
C3    C32   S    
O9    Zn1   S    
O5    Zn1   S    
C24   H7    S    
C1    O1    A    
C1    O4    A    
C39   C40   S    
C15   C26   S    
O6    Zn2   S    
C36   H17   S    
C30   H13   S    
C9    O9    A    
C6    H20   S    
C9    C14   S    
C25   H8    S    
C29   C30   A    
C12   C15   S    
C2    C43   D    
C11   C12   S    
C23   C34   S    
C16   O11   D    
C11   H1    S    
C10   C34   S    
N1    Zn1   S    
C22   H6    S    
C7    C16   S    
C17   N2    S    
C32   C38   A    
C39   H23   S    
C34   C40   S    
O10   Zn2   S    
C27   H9    S    
C12   C41   S    
N2    Zn2   S    
C10   H22   S    
C6    N1    D    
C28   C29   A    
C5    H12   S    
C2    C8    S    
C16   H26   S    
C3    C5    D    
C37   H18   S    
C28   H10   S    
C6    C7    S    
C32   C33   A    
C31   H14   S    
C12   C39   S    
C4    O6    A    
C30   C31   A    
C23   C39   S    
C33   C35   A    
C22   C24   A    
C23   C25   S    
C11   C40   S    
C4    O5    A    
O1    Zn1   S    
C10   C11   S    
C20   C21   A    
C43   H24   S    
C27   C28   A    
C20   H4    S    
C9    O10   A    
C38   H19   S    
