data_mof_unit_62370.cif
_audit_creation_date              2012-12-10T17:01:42-0500
_audit_creation_method            fapswitch 2.2
_symmetry_space_group_name_H-M    P1
_symmetry_Int_Tables_number       1
_space_group_crystal_system       monoclinic
_cell_length_a                    21.787876
_cell_length_b                    21.787875
_cell_length_c                    23.686287
_cell_angle_alpha                 90.000017
_cell_angle_beta                  90.0
_cell_angle_gamma                 90.0
_cell_volume                      11244.1532766

loop_
_atom_site_label
_atom_site_type_symbol
_atom_type_description
_atom_site_fract_x
_atom_site_fract_y
_atom_site_fract_z
_atom_type_partial_charge
C1    C     C_R   0.381208 0.000000 0.500000 0.783951
C2    C     C_R   0.000000 0.381208 0.500000 0.783951
C3    C     C_R   0.618792 0.000000 0.500000 0.783951
C4    C     C_R   0.000000 0.618792 0.500000 0.783951
C5    C     C_R   0.881208 0.500000 1.000000 0.783951
C6    C     C_R   0.500000 0.881208 0.000000 0.783951
C7    C     C_R   0.118792 0.500000 1.000000 0.783951
C8    C     C_R   0.500000 0.118792 1.000000 0.783951
C9    C     C_R   0.281666 0.958393 0.464674 0.065053
C10   C     C_R   0.041607 0.281667 0.464674 0.065052
C11   C     C_R   0.718333 0.041607 0.464674 0.065053
C12   C     C_R   0.958393 0.718333 0.464674 0.065053
C13   C     C_R   0.281666 0.041607 0.535326 0.065053
C14   C     C_R   0.041607 0.718333 0.535325 0.065053
C15   C     C_R   0.718333 0.958393 0.535325 0.065053
C16   C     C_R   0.958393 0.281666 0.535326 0.065053
C17   C     C_R   0.781667 0.458393 0.964674 0.065053
C18   C     C_R   0.541607 0.781667 0.964674 0.065053
C19   C     C_R   0.218333 0.541607 0.964674 0.065053
C20   C     C_R   0.458393 0.218333 0.964674 0.065053
C21   C     C_R   0.781667 0.541607 0.035326 0.065053
C22   C     C_R   0.541607 0.218333 0.035325 0.065053
C23   C     C_R   0.218333 0.458393 0.035326 0.065053
C24   C     C_R   0.458393 0.781667 0.035326 0.065053
C25   C     C_R   0.185423 0.000000 0.500000 -0.148160
C26   C     C_R   1.000000 0.185423 0.500000 -0.148161
C27   C     C_R   0.814577 0.000000 0.500000 -0.148161
C28   C     C_R   1.000000 0.814577 0.500000 -0.148161
C29   C     C_R   0.685423 0.500000 0.000000 -0.148161
C30   C     C_R   0.500000 0.685423 0.000000 -0.148161
C31   C     C_R   0.314577 0.500000 1.000000 -0.148161
C32   C     C_R   0.500000 0.314577 1.000000 -0.148161
C33   C     C_R   0.314014 0.000000 0.500000 -0.155226
C34   C     C_R   1.000000 0.314014 0.500000 -0.155226
C35   C     C_R   0.685986 0.000000 0.500000 -0.155226
C36   C     C_R   0.000000 0.685986 0.500000 -0.155226
C37   C     C_R   0.814014 0.500000 0.000000 -0.155226
C38   C     C_R   0.500000 0.814014 0.000000 -0.155226
C39   C     C_R   0.185986 0.500000 1.000000 -0.155226
C40   C     C_R   0.500000 0.185986 1.000000 -0.155226
C41   C     C_R   0.000000 0.118765 0.500000 0.771831
C42   C     C_R   0.881235 0.000000 0.500000 0.771830
C43   C     C_R   0.000000 0.881235 0.500000 0.771830
C44   C     C_R   0.118765 0.000000 0.500000 0.771831
C45   C     C_R   0.500000 0.618765 0.000000 0.771831
C46   C     C_R   0.381235 0.500000 1.000000 0.771830
C47   C     C_R   0.500000 0.381235 1.000000 0.771830
C48   C     C_R   0.618765 0.500000 0.000000 0.771831
C49   C     C_R   0.500000 1.000000 0.391953 0.801589
C50   C     C_R   0.000000 0.500000 0.391953 0.801589
C51   C     C_R   0.500000 1.000000 0.608047 0.801589
C52   C     C_R   0.000000 0.500000 0.608047 0.801589
C53   C     C_R   0.000000 0.500000 0.891953 0.801589
C54   C     C_R   0.500000 1.000000 0.891953 0.801589
C55   C     C_R   0.000000 0.500000 0.108047 0.801589
C56   C     C_R   0.500000 0.000000 0.108047 0.801589
C57   C     C_1   0.500000 1.000000 0.331051 -0.169796
C58   C     C_1   0.000000 0.500000 0.331051 -0.169796
C59   C     C_1   0.500000 0.000000 0.668949 -0.169796
C60   C     C_1   0.000000 0.500000 0.668949 -0.169796
C61   C     C_1   0.000000 0.500000 0.831051 -0.169796
C62   C     C_1   0.500000 0.000000 0.831051 -0.169796
C63   C     C_1   1.000000 0.500000 0.168949 -0.169796
C64   C     C_1   0.500000 0.000000 0.168949 -0.169796
C65   C     C_1   0.500000 1.000000 0.279961 0.013553
C66   C     C_1   0.000000 0.500000 0.279961 0.013553
C67   C     C_1   0.500000 1.000000 0.720039 0.013553
C68   C     C_1   1.000000 0.500000 0.720039 0.013553
C69   C     C_1   0.000000 0.500000 0.779961 0.013553
C70   C     C_1   0.500000 1.000000 0.779961 0.013553
C71   C     C_1   0.000000 0.500000 0.220039 0.013553
C72   C     C_1   0.500000 1.000000 0.220039 0.013553
C73   C     C_R   0.311692 0.920324 0.424819 -0.239095
C74   C     C_R   0.079676 0.311692 0.424819 -0.239094
C75   C     C_R   0.688308 0.079676 0.424819 -0.239095
C76   C     C_R   0.920324 0.688308 0.424819 -0.239095
C77   C     C_R   0.311692 0.079676 0.575181 -0.239095
C78   C     C_R   0.079676 0.688308 0.575181 -0.239094
C79   C     C_R   0.688308 0.920324 0.575181 -0.239095
C80   C     C_R   0.920324 0.311692 0.575181 -0.239095
C81   C     C_R   0.811692 0.420324 0.924819 -0.239095
C82   C     C_R   0.579676 0.811692 0.924819 -0.239094
C83   C     C_R   0.188308 0.579676 0.924819 -0.239095
C84   C     C_R   0.420324 0.188308 0.924819 -0.239095
C85   C     C_R   0.811692 0.579676 0.075181 -0.239095
C86   C     C_R   0.579676 0.188308 0.075181 -0.239094
C87   C     C_R   0.188308 0.420324 0.075181 -0.239095
C88   C     C_R   0.420324 0.811692 0.075181 -0.239095
C89   C     C_R   0.280055 0.874308 0.396205 -0.183765
C90   C     C_R   0.125692 0.280055 0.396205 -0.183766
C91   C     C_R   0.719945 0.125692 0.396205 -0.183766
C92   C     C_R   0.874308 0.719945 0.396205 -0.183765
C93   C     C_R   0.280055 0.125692 0.603795 -0.183765
C94   C     C_R   0.125692 0.719945 0.603795 -0.183765
C95   C     C_R   0.719945 0.874308 0.603795 -0.183766
C96   C     C_R   0.874308 0.280055 0.603795 -0.183765
C97   C     C_R   0.780055 0.374308 0.896205 -0.183765
C98   C     C_R   0.625692 0.780055 0.896205 -0.183765
C99   C     C_R   0.219945 0.625692 0.896205 -0.183765
C100  C     C_R   0.374308 0.219945 0.896205 -0.183765
C101  C     C_R   0.780055 0.625692 0.103795 -0.183764
C102  C     C_R   0.625692 0.219945 0.103795 -0.183765
C103  C     C_R   0.219945 0.374308 0.103795 -0.183765
C104  C     C_R   0.374308 0.780055 0.103795 -0.183765
C105  C     C_R   0.217962 0.864346 0.406359 0.553636
C106  C     C_R   0.135654 0.217962 0.406359 0.553636
C107  C     C_R   0.782038 0.135654 0.406360 0.553636
C108  C     C_R   0.864346 0.782038 0.406359 0.553635
C109  C     C_R   0.217962 0.135654 0.593640 0.553636
C110  C     C_R   0.135654 0.782038 0.593640 0.553636
C111  C     C_R   0.782038 0.864346 0.593640 0.553635
C112  C     C_R   0.864346 0.217962 0.593640 0.553636
C113  C     C_R   0.717962 0.364346 0.906359 0.553635
C114  C     C_R   0.635653 0.717962 0.906359 0.553635
C115  C     C_R   0.282038 0.635653 0.906360 0.553635
C116  C     C_R   0.364346 0.282038 0.906359 0.553636
C117  C     C_R   0.717962 0.635654 0.093640 0.553636
C118  C     C_R   0.635654 0.282038 0.093640 0.553636
C119  C     C_R   0.282038 0.364347 0.093640 0.553636
C120  C     C_R   0.364346 0.717962 0.093640 0.553636
C121  C     C_R   0.186287 0.905947 0.441266 -0.282909
C122  C     C_R   0.094053 0.186287 0.441266 -0.282908
C123  C     C_R   0.813712 0.094053 0.441266 -0.282908
C124  C     C_R   0.905947 0.813712 0.441266 -0.282908
C125  C     C_R   0.186287 0.094053 0.558734 -0.282909
C126  C     C_R   0.094053 0.813713 0.558734 -0.282909
C127  C     C_R   0.813712 0.905947 0.558734 -0.282908
C128  C     C_R   0.905947 0.186287 0.558734 -0.282908
C129  C     C_R   0.686287 0.405947 0.941266 -0.282908
C130  C     C_R   0.594053 0.686287 0.941266 -0.282909
C131  C     C_R   0.313712 0.594053 0.941266 -0.282908
C132  C     C_R   0.405947 0.313713 0.941266 -0.282908
C133  C     C_R   0.686287 0.594053 0.058734 -0.282909
C134  C     C_R   0.594053 0.313713 0.058734 -0.282909
C135  C     C_R   0.313713 0.405947 0.058734 -0.282908
C136  C     C_R   0.405947 0.686288 0.058734 -0.282908
C137  C     C_R   0.217311 0.954774 0.468793 -0.001650
C138  C     C_R   0.045226 0.217311 0.468793 -0.001650
C139  C     C_R   0.782688 0.045226 0.468793 -0.001650
C140  C     C_R   0.954774 0.782688 0.468793 -0.001650
C141  C     C_R   0.217312 0.045226 0.531206 -0.001651
C142  C     C_R   0.045226 0.782688 0.531206 -0.001650
C143  C     C_R   0.782688 0.954774 0.531206 -0.001651
C144  C     C_R   0.954774 0.217311 0.531206 -0.001651
C145  C     C_R   0.717311 0.454774 0.968793 -0.001650
C146  C     C_R   0.545226 0.717311 0.968793 -0.001650
C147  C     C_R   0.282688 0.545226 0.968793 -0.001650
C148  C     C_R   0.454774 0.282688 0.968793 -0.001651
C149  C     C_R   0.717311 0.545226 0.031207 -0.001650
C150  C     C_R   0.545226 0.282688 0.031206 -0.001650
C151  C     C_R   0.282688 0.454774 0.031206 -0.001651
C152  C     C_R   0.454774 0.717311 0.031207 -0.001651
Cu1   Cu    Cu3+1 0.500000 0.061820 0.500000 0.962985
Cu2   Cu    Cu3+1 0.938180 0.500000 0.500000 0.962985
Cu3   Cu    Cu3+1 0.500000 0.938180 0.500000 0.962985
Cu4   Cu    Cu3+1 0.061820 0.500000 0.500000 0.962985
Cu5   Cu    Cu3+1 0.000000 0.561820 0.000000 0.962985
Cu6   Cu    Cu3+1 0.438180 0.000000 0.000000 0.962985
Cu7   Cu    Cu3+1 0.000000 0.438180 0.000000 0.962985
Cu8   Cu    Cu3+1 0.561820 0.000000 0.000000 0.962985
Cu9   Cu    Cu3+1 0.000000 1.000000 0.555810 0.977252
Cu10  Cu    Cu3+1 0.000000 1.000000 0.444190 0.977252
Cu11  Cu    Cu3+1 0.500000 0.500000 0.055810 0.977252
Cu12  Cu    Cu3+1 0.500000 0.500000 0.944190 0.977252
H1    H     H_    0.304443 0.154750 0.633340 0.165930
H2    H     H_    0.845250 0.304443 0.633340 0.165931
H3    H     H_    0.695557 0.845250 0.633339 0.165931
H4    H     H_    0.154750 0.695557 0.633339 0.165931
H5    H     H_    0.304443 0.845250 0.366660 0.165931
H6    H     H_    0.845250 0.695557 0.366661 0.165931
H7    H     H_    0.695557 0.154750 0.366661 0.165931
H8    H     H_    0.154750 0.304443 0.366660 0.165930
H9    H     H_    0.804443 0.654750 0.133339 0.165931
H10   H     H_    0.345250 0.804443 0.133339 0.165931
H11   H     H_    0.195557 0.345250 0.133339 0.165931
H12   H     H_    0.654750 0.195557 0.133339 0.165931
H13   H     H_    0.804442 0.345250 0.866660 0.165931
H14   H     H_    0.345249 0.195557 0.866660 0.165930
H15   H     H_    0.195557 0.654750 0.866660 0.165931
H16   H     H_    0.654750 0.804442 0.866660 0.165931
H17   H     H_    0.359641 0.925825 0.414485 0.175734
H18   H     H_    0.074174 0.359641 0.414485 0.175733
H19   H     H_    0.640359 0.074175 0.414485 0.175734
H20   H     H_    0.925825 0.640359 0.414485 0.175734
H21   H     H_    0.359641 0.074175 0.585515 0.175734
H22   H     H_    0.074175 0.640359 0.585515 0.175733
H23   H     H_    0.640359 0.925825 0.585515 0.175734
H24   H     H_    0.925826 0.359641 0.585515 0.175733
H25   H     H_    0.859641 0.425825 0.914485 0.175734
H26   H     H_    0.574174 0.859641 0.914485 0.175733
H27   H     H_    0.140359 0.574175 0.914485 0.175734
H28   H     H_    0.425825 0.140359 0.914485 0.175734
H29   H     H_    0.859641 0.574175 0.085515 0.175734
H30   H     H_    0.574175 0.140359 0.085515 0.175733
H31   H     H_    0.140359 0.425825 0.085515 0.175733
H32   H     H_    0.425826 0.859641 0.085515 0.175733
H33   H     H_    0.137544 0.899691 0.446612 0.153002
H34   H     H_    0.100309 0.137544 0.446612 0.153002
H35   H     H_    0.862456 0.100309 0.446612 0.153002
H36   H     H_    0.899691 0.862456 0.446612 0.153002
H37   H     H_    0.137544 0.100309 0.553388 0.153002
H38   H     H_    0.100309 0.862456 0.553388 0.153002
H39   H     H_    0.862456 0.899691 0.553387 0.153002
H40   H     H_    0.899691 0.137544 0.553388 0.153002
H41   H     H_    0.637544 0.399691 0.946612 0.153002
H42   H     H_    0.600309 0.637544 0.946612 0.153002
H43   H     H_    0.362456 0.600309 0.946612 0.153002
H44   H     H_    0.399691 0.362456 0.946612 0.153002
H45   H     H_    0.637544 0.600309 0.053388 0.153002
H46   H     H_    0.600309 0.362456 0.053388 0.153002
H47   H     H_    0.362456 0.399691 0.053388 0.153002
H48   H     H_    0.399691 0.637544 0.053388 0.153002
O1    O     O_R   0.409810 0.052200 0.500010 -0.585234
O2    O     O_R   0.947800 0.409810 0.500010 -0.585234
O3    O     O_R   0.590190 0.947800 0.500010 -0.585234
O4    O     O_R   0.052200 0.590190 0.500010 -0.585234
O5    O     O_R   0.409810 0.947800 0.499990 -0.585234
O6    O     O_R   0.947800 0.590190 0.499990 -0.585234
O7    O     O_R   0.590190 0.052200 0.499990 -0.585234
O8    O     O_R   0.052200 0.409810 0.499990 -0.585234
O9    O     O_R   0.909810 0.552200 0.000010 -0.585234
O10   O     O_R   0.447800 0.909810 0.000010 -0.585234
O11   O     O_R   0.090190 0.447800 0.000010 -0.585234
O12   O     O_R   0.552200 0.090190 0.000010 -0.585234
O13   O     O_R   0.909810 0.447800 0.999990 -0.585234
O14   O     O_R   0.447800 0.090190 0.999990 -0.585234
O15   O     O_R   0.090190 0.552200 0.999990 -0.585234
O16   O     O_R   0.552200 0.909810 0.999990 -0.585234
O17   O     O_R   0.499980 0.052200 0.418610 -0.578645
O18   O     O_R   0.947800 0.499980 0.418610 -0.578645
O19   O     O_R   0.500020 0.947800 0.418610 -0.578645
O20   O     O_R   0.052200 0.500020 0.418610 -0.578645
O21   O     O_R   0.499980 0.947800 0.581390 -0.578645
O22   O     O_R   0.947800 0.500020 0.581390 -0.578645
O23   O     O_R   0.500020 0.052200 0.581390 -0.578645
O24   O     O_R   0.052200 0.499980 0.581390 -0.578645
O25   O     O_R   0.999980 0.552200 0.918610 -0.578645
O26   O     O_R   0.447800 0.999980 0.918610 -0.578645
O27   O     O_R   0.000020 0.447800 0.918610 -0.578645
O28   O     O_R   0.552200 0.000020 0.918610 -0.578645
O29   O     O_R   0.999980 0.447800 0.081390 -0.578645
O30   O     O_R   0.447800 0.000020 0.081390 -0.578645
O31   O     O_R   0.000020 0.552200 0.081390 -0.578645
O32   O     O_R   0.552200 0.999980 0.081390 -0.578645
O33   O     O_R   0.999980 0.090160 0.547150 -0.582726
O34   O     O_R   0.909840 0.999980 0.547150 -0.582725
O35   O     O_R   0.000020 0.909840 0.547150 -0.582725
O36   O     O_R   0.090160 0.000020 0.547150 -0.582726
O37   O     O_R   0.999980 0.909840 0.452850 -0.582725
O38   O     O_R   0.909840 0.000020 0.452850 -0.582725
O39   O     O_R   0.000020 0.090160 0.452850 -0.582725
O40   O     O_R   0.090160 0.999980 0.452850 -0.582725
O41   O     O_R   0.499980 0.590160 0.047150 -0.582726
O42   O     O_R   0.409840 0.499980 0.047150 -0.582725
O43   O     O_R   0.500020 0.409840 0.047150 -0.582725
O44   O     O_R   0.590160 0.500020 0.047150 -0.582726
O45   O     O_R   0.499980 0.409840 0.952850 -0.582725
O46   O     O_R   0.409840 0.500020 0.952850 -0.582725
O47   O     O_R   0.500020 0.590160 0.952850 -0.582725
O48   O     O_R   0.590160 0.499980 0.952850 -0.582725
O49   O     O_3   0.189073 0.817245 0.377034 -0.570699
C153  C     C_3   0.148155 0.784387 0.412059 -0.287282
H49   H     H_    0.103003 0.807906 0.414094 0.176022
H50   H     H_    0.167020 0.776594 0.455205 0.145122
H51   H     H_    0.140116 0.738578 0.393018 0.202829
O50   O     O_3   0.182755 0.189073 0.377034 -0.570699
C154  C     C_3   0.215613 0.148155 0.412059 -0.287283
H52   H     H_    0.192094 0.103003 0.414094 0.176022
H53   H     H_    0.223405 0.167020 0.455205 0.145123
H54   H     H_    0.261422 0.140116 0.393018 0.202829
O51   O     O_3   0.810926 0.182755 0.377034 -0.570699
C155  C     C_3   0.851845 0.215613 0.412059 -0.287282
H55   H     H_    0.896997 0.192094 0.414095 0.176022
H56   H     H_    0.832980 0.223406 0.455205 0.145122
H57   H     H_    0.859884 0.261422 0.393018 0.202830
O52   O     O_3   0.817245 0.810927 0.377034 -0.570698
C156  C     C_3   0.784387 0.851844 0.412059 -0.287283
H58   H     H_    0.807905 0.896996 0.414095 0.176022
H59   H     H_    0.776594 0.832979 0.455205 0.145122
H60   H     H_    0.738578 0.859883 0.393018 0.202829
O53   O     O_3   0.189073 0.182755 0.622966 -0.570699
C157  C     C_3   0.148155 0.215613 0.587941 -0.287282
H61   H     H_    0.103003 0.192094 0.585906 0.176022
H62   H     H_    0.167020 0.223405 0.544795 0.145122
H63   H     H_    0.140116 0.261422 0.606982 0.202829
O54   O     O_3   0.182755 0.810927 0.622966 -0.570699
C158  C     C_3   0.215613 0.851845 0.587941 -0.287282
H64   H     H_    0.192094 0.896997 0.585905 0.176022
H65   H     H_    0.223406 0.832980 0.544795 0.145123
H66   H     H_    0.261422 0.859884 0.606982 0.202829
O55   O     O_3   0.810927 0.817245 0.622966 -0.570698
C159  C     C_3   0.851845 0.784387 0.587941 -0.287284
H67   H     H_    0.896997 0.807906 0.585905 0.176023
H68   H     H_    0.832980 0.776594 0.544795 0.145123
H69   H     H_    0.859884 0.738578 0.606982 0.202830
O56   O     O_3   0.817245 0.189074 0.622966 -0.570699
C160  C     C_3   0.784387 0.148155 0.587941 -0.287282
H70   H     H_    0.807906 0.103003 0.585906 0.176022
H71   H     H_    0.776594 0.167020 0.544795 0.145123
H72   H     H_    0.738578 0.140116 0.606982 0.202829
O57   O     O_3   0.689073 0.317245 0.877034 -0.570699
C161  C     C_3   0.648155 0.284387 0.912059 -0.287282
H73   H     H_    0.603003 0.307906 0.914094 0.176022
H74   H     H_    0.667020 0.276595 0.955205 0.145123
H75   H     H_    0.640116 0.238578 0.893018 0.202829
O58   O     O_3   0.682755 0.689073 0.877034 -0.570699
C162  C     C_3   0.715613 0.648155 0.912059 -0.287280
H76   H     H_    0.692094 0.603003 0.914094 0.176022
H77   H     H_    0.723405 0.667020 0.955205 0.145122
H78   H     H_    0.761421 0.640116 0.893018 0.202829
O59   O     O_3   0.310926 0.682755 0.877034 -0.570699
C163  C     C_3   0.351845 0.715613 0.912059 -0.287280
H79   H     H_    0.396997 0.692094 0.914094 0.176022
H80   H     H_    0.332980 0.723405 0.955205 0.145122
H81   H     H_    0.359884 0.761422 0.893018 0.202829
O60   O     O_3   0.317245 0.310926 0.877034 -0.570699
C164  C     C_3   0.284387 0.351845 0.912059 -0.287283
H82   H     H_    0.307906 0.396997 0.914094 0.176022
H83   H     H_    0.276595 0.332980 0.955205 0.145123
H84   H     H_    0.238578 0.359884 0.893018 0.202829
O61   O     O_3   0.689074 0.682755 0.122966 -0.570699
C165  C     C_3   0.648154 0.715612 0.087942 -0.287283
H85   H     H_    0.603003 0.692093 0.085907 0.176023
H86   H     H_    0.667018 0.723405 0.044795 0.145123
H87   H     H_    0.640115 0.761421 0.106982 0.202829
O62   O     O_3   0.682755 0.310926 0.122966 -0.570699
C166  C     C_3   0.715613 0.351845 0.087941 -0.287283
H88   H     H_    0.692094 0.396997 0.085906 0.176022
H89   H     H_    0.723405 0.332980 0.044795 0.145123
H90   H     H_    0.761422 0.359884 0.106982 0.202829
O63   O     O_3   0.310927 0.317245 0.122966 -0.570699
C167  C     C_3   0.351845 0.284387 0.087941 -0.287282
H91   H     H_    0.396997 0.307906 0.085905 0.176022
H92   H     H_    0.332980 0.276594 0.044795 0.145123
H93   H     H_    0.359884 0.238578 0.106982 0.202829
O64   O     O_3   0.317245 0.689074 0.122966 -0.570699
C168  C     C_3   0.284387 0.648155 0.087941 -0.287282
H94   H     H_    0.307906 0.603003 0.085906 0.176022
H95   H     H_    0.276595 0.667019 0.044795 0.145122
H96   H     H_    0.238578 0.640116 0.106982 0.202829

loop_
_geom_bond_atom_site_label_1
_geom_bond_atom_site_label_2
_ccdc_geom_bond_type
C165  H86   S    
C4    C36   S    
C134  H46   S    
C5    C37   S    
C130  C146  A    
C88   H32   S    
C30   C45   S    
O55   C159  S    
C117  C133  A    
Cu1   O1    S    
C168  H94   S    
C52   O22   A    
O57   C161  S    
C126  H38   S    
C157  H61   S    
C16   C144  A    
C12   C36   A    
C20   C40   A    
C98   C114  A    
C165  H87   S    
Cu3   O21   S    
C3    O3    A    
O51   C155  S    
C111  O55   S    
C62   C70   T    
C51   O23   A    
C92   H6    S    
C155  H55   S    
Cu4   O4    S    
C27   C143  A    
C158  H65   S    
C45   O47   A    
O62   C166  S    
C78   H22   S    
C73   H17   S    
Cu6   O14   S    
C129  C145  A    
C31   C147  A    
C2    C34   S    
C2    O8    A    
C114  C130  A    
C108  C124  A    
C136  C152  A    
C84   C100  A    
C91   C107  A    
C54   O26   A    
Cu9   O36   S    
C8    O14   A    
C104  H10   S    
C89   H5    S    
C26   C138  A    
O60   C164  S    
C16   C80   A    
C164  H84   S    
C115  O59   S    
C13   C33   A    
C7    O11   A    
C110  O54   S    
Cu2   O22   S    
O58   C162  S    
Cu4   O8    S    
C127  C143  A    
C128  C144  A    
C81   H25   S    
Cu6   O26   S    
C87   C103  A    
O56   C160  S    
Cu8   O12   S    
C63   C71   T    
C2    O2    A    
C32   C47   S    
C53   O25   A    
C168  H96   S    
C52   O24   A    
C56   O30   A    
C48   O48   A    
O64   C168  S    
C91   H7    S    
C51   O21   A    
C74   C90   A    
C11   C35   A    
C18   C38   A    
C87   H31   S    
C99   C115  A    
C116  O60   S    
C56   C64   S    
C7    O15   A    
C78   C94   A    
C155  H57   S    
C159  H68   S    
C18   C82   A    
C5    O13   A    
C29   C149  A    
C32   C150  A    
O61   C165  S    
C7    C39   S    
C10   C138  A    
C6    O10   A    
C46   O46   A    
C14   C142  A    
C4    O4    A    
C156  H58   S    
C133  H45   S    
C101  H9    S    
C131  H43   S    
C123  H35   S    
C14   C36   A    
O49   C153  S    
C154  H54   S    
C120  O64   S    
C123  C139  A    
C14   C78   A    
C49   C57   S    
C163  H79   S    
Cu11  O41   S    
Cu6   O30   S    
C121  C137  A    
C43   O37   A    
C52   C60   S    
C59   C67   T    
C136  H48   S    
C53   C61   S    
C92   C108  A    
C15   C79   A    
C125  C141  A    
C31   C46   S    
C55   C63   S    
C20   C148  A    
C131  C147  A    
C21   C149  A    
C118  C134  A    
C75   C91   A    
C56   O32   A    
Cu12  O45   S    
Cu5   O9    S    
C160  H71   S    
Cu1   O17   S    
C19   C83   A    
C88   C104  A    
C51   C59   S    
C161  H74   S    
C167  H91   S    
C94   H4    S    
C166  H89   S    
Cu5   O15   S    
Cu8   O32   S    
C27   C139  A    
C25   C137  A    
Cu9   O33   S    
Cu10  O39   S    
C130  H42   S    
C31   C151  A    
Cu4   O20   S    
C30   C152  A    
C116  C132  A    
C3    C35   S    
C106  C122  A    
C80   H24   S    
C122  H34   S    
Cu11  O43   S    
C60   C68   T    
C110  C126  A    
C15   C143  A    
C113  O57   S    
C76   C92   A    
C4    O6    A    
C20   C84   A    
C86   C102  A    
C42   O34   A    
C95   H3    S    
C154  H52   S    
C153  H49   S    
C74   H18   S    
C65   C72   S    
C8    C40   S    
C157  H62   S    
C163  H81   S    
C162  H78   S    
Cu12  O48   S    
C94   C110  A    
C11   C75   A    
C86   H30   S    
C27   C42   S    
Cu4   O24   S    
C46   O42   A    
C50   O18   A    
Cu1   O7    S    
C28   C142  A    
O52   C156  S    
C157  H63   S    
C155  H56   S    
C156  H60   S    
C89   C105  A    
C93   C109  A    
C135  H47   S    
C82   C98   A    
C100  C116  A    
C167  H93   S    
C107  C123  A    
Cu2   O2    S    
C53   O27   A    
C153  H51   S    
Cu9   Cu10  S    
C125  H37   S    
C55   O31   A    
C83   H27   S    
Cu9   O35   S    
Cu10  O37   S    
C29   C145  A    
C128  H40   S    
C164  H83   S    
C11   C139  A    
C24   C152  A    
C9    C137  A    
C68   C69   S    
C6    O16   A    
C12   C140  A    
C13   C141  A    
Cu1   Cu3   S    
Cu2   Cu4   S    
C8    O12   A    
C165  H85   S    
C100  H14   S    
Cu5   Cu7   S    
C83   C99   A    
Cu6   Cu8   S    
C168  H95   S    
C21   C85   A    
C106  O50   S    
C107  O51   S    
C162  H76   S    
C50   C58   S    
C122  C138  A    
C54   C62   S    
C126  C142  A    
C19   C147  A    
Cu8   O16   S    
C120  C136  A    
C112  O56   S    
C79   C95   A    
C17   C145  A    
O63   C167  S    
C99   H15   S    
C129  H41   S    
C97   H13   S    
C66   C71   S    
C103  H11   S    
C158  H66   S    
Cu3   O3    S    
C24   C88   A    
C90   C106  A    
C113  C129  A    
Cu5   O25   S    
C12   C76   A    
C1    O1    A    
C55   O29   A    
C41   O33   A    
C124  C140  A    
C25   C141  A    
C57   C65   T    
C108  O52   S    
C32   C148  A    
C124  H36   S    
C28   C43   S    
C101  C117  A    
C67   C70   S    
C73   C89   A    
C166  H88   S    
C154  H53   S    
C47   O45   A    
C135  C151  A    
C77   C93   A    
C163  H80   S    
Cu3   O5    S    
C17   C81   A    
C22   C86   A    
C49   O17   A    
C119  C135  A    
C112  C128  A    
C1    C33   S    
C21   C37   A    
C22   C150  A    
C42   O38   A    
C3    O7    A    
C90   H8    S    
Cu7   O27   S    
C1    O5    A    
C114  O58   S    
C127  H39   S    
Cu7   O29   S    
C104  C120  A    
C5    O9    A    
O59   C163  S    
Cu12  O46   S    
Cu11  O42   S    
C77   H21   S    
C160  H70   S    
Cu11  Cu12  S    
C28   C140  A    
C75   H19   S    
C119  O63   S    
C115  C131  A    
C47   O43   A    
C96   C112  A    
C161  H75   S    
C79   H23   S    
C159  H67   S    
C167  H92   S    
O54   C158  S    
Cu7   O11   S    
C117  O61   S    
C102  H12   S    
C134  C150  A    
C109  O53   S    
Cu1   O23   S    
Cu10  O40   S    
C58   C66   T    
C158  H64   S    
C24   C38   A    
C48   O44   A    
C102  C118  A    
C16   C34   A    
C64   C72   T    
C93   H1    S    
Cu6   O10   S    
C23   C87   A    
C82   H26   S    
C41   O39   A    
Cu11  O44   S    
C9    C73   A    
C26   C144  A    
C25   C44   S    
C15   C35   A    
C44   O40   A    
C30   C146  A    
Cu2   O6    S    
C13   C77   A    
C29   C48   S    
C132  C148  A    
C133  C149  A    
C43   O35   A    
C153  H50   S    
O53   C157  S    
C44   O36   A    
C162  H77   S    
C49   O19   A    
C22   C40   A    
C6    C38   S    
C105  C121  A    
C10   C34   A    
C17   C37   A    
C50   O20   A    
C121  H33   S    
C19   C39   A    
C9    C33   A    
C109  C125  A    
C132  H44   S    
C156  H59   S    
C111  C127  A    
C160  H72   S    
C96   H2    S    
Cu12  O47   S    
C80   C96   A    
C97   C113  A    
C85   C101  A    
C61   C69   T    
C23   C151  A    
C161  H73   S    
Cu8   O28   S    
C159  H69   S    
C103  C119  A    
C18   C146  A    
C166  H90   S    
Cu5   O31   S    
C54   O28   A    
Cu9   O34   S    
Cu10  O38   S    
C95   C111  A    
C10   C74   A    
C85   H29   S    
C81   C97   A    
C23   C39   A    
Cu3   O19   S    
C84   H28   S    
Cu7   O13   S    
C164  H82   S    
O50   C154  S    
C118  O62   S    
C105  O49   S    
C76   H20   S    
C98   H16   S    
Cu2   O18   S    
C26   C41   S    
C45   O41   A    
