data_mof_unit_11095.cif
_audit_creation_date              2012-12-10T17:07:50-0500
_audit_creation_method            fapswitch 2.2
_symmetry_space_group_name_H-M    P1
_symmetry_Int_Tables_number       1
_space_group_crystal_system       triclinic
_cell_length_a                    10.847171
_cell_length_b                    10.766143
_cell_length_c                    10.012899
_cell_angle_alpha                 90.505477
_cell_angle_beta                  89.783549
_cell_angle_gamma                 91.173273
_cell_volume                      1169.03009514

loop_
_atom_site_label
_atom_site_type_symbol
_atom_type_description
_atom_site_fract_x
_atom_site_fract_y
_atom_site_fract_z
_atom_type_partial_charge
C1    C     C_R   0.507784 0.263074 0.498624 0.946259
C2    C     C_2   0.524991 0.597444 0.075167 -0.060766
C3    C     C_R   0.257362 0.494780 0.500132 0.894800
C4    C     C_R   0.506036 0.737117 0.500399 0.920017
C5    C     C_R   0.742248 0.494922 0.499155 0.930042
C6    C     C_3   0.070302 0.441566 0.634370 -0.641396
C7    C     C_3   0.928253 0.440758 0.632316 -0.075698
C8    C     C_3   0.071904 0.628818 0.491180 0.346052
C9    C     C_3   0.068973 0.399736 0.389288 0.334838
C10   C     C_3   0.120454 0.492615 0.499666 -0.093268
C11   C     C_3   0.215269 0.790977 0.448259 0.090772
C12   C     C_3   0.878766 0.492631 0.495828 -0.184079
C13   C     C_3   0.148632 0.904595 0.505949 -0.424830
C14   C     C_3   0.235507 0.001903 0.566354 -0.948664
C15   C     C_3   0.893436 0.801286 0.327807 0.179451
C16   C     C_3   0.840439 0.883715 0.439212 -0.483672
C17   C     C_3   0.835100 0.019192 0.395811 -0.874948
C18   C     C_3   0.526574 0.063572 0.143532 0.092247
C19   C     C_3   0.639066 0.020466 0.063942 -0.349356
C20   C     C_3   0.602496 0.974496 0.924607 -0.910621
C21   C     C_3   0.130403 0.300774 0.190793 0.121861
C22   C     C_3   0.235927 0.216979 0.233191 -0.365426
C23   C     C_3   0.929002 0.628216 0.476224 0.320507
C24   C     C_3   0.212646 0.083803 0.183843 -0.980072
C25   C     C_3   0.926868 0.408586 0.378291 0.055310
C26   C     C_2   0.540461 0.930334 0.390332 -0.300703
C27   C     C_2   0.507483 0.868904 0.500914 -0.427527
C28   C     C_2   0.538184 0.066204 0.381110 0.524396
C29   C     C_2   0.527166 0.132368 0.495738 -0.418352
C30   C     C_2   0.498466 0.598950 0.928305 -0.065444
H1    H     H_    0.103240 0.499449 0.720348 0.222079
H2    H     H_    0.087941 0.670346 0.592536 0.000349
H3    H     H_    0.888815 0.683204 0.559443 -0.000941
H4    H     H_    0.086370 0.305090 0.428849 0.042801
H5    H     H_    0.886700 0.313692 0.392030 0.102475
H6    H     H_    0.279153 0.822817 0.368237 0.181847
H7    H     H_    0.271250 0.749862 0.528346 0.136150
H8    H     H_    0.098207 0.950542 0.425687 0.237602
H9    H     H_    0.085121 0.875518 0.586874 0.220583
H10   H     H_    0.284373 0.963430 0.653357 0.264601
H11   H     H_    0.181747 0.082716 0.601419 0.274122
H12   H     H_    0.572425 0.878197 0.304244 0.180375
H13   H     H_    0.301273 0.034813 0.489445 0.267184
H14   H     H_    0.836625 0.816480 0.237628 0.148170
H15   H     H_    0.986568 0.831755 0.296405 0.183078
H16   H     H_    0.748234 0.847380 0.465982 0.243903
H17   H     H_    0.895225 0.881817 0.531358 0.218719
H18   H     H_    0.928712 0.061546 0.387180 0.246859
H19   H     H_    0.782818 0.072589 0.471029 0.301381
H20   H     H_    0.788893 0.027341 0.298244 0.270788
H21   H     H_    0.475891 0.130015 0.081204 0.188762
H22   H     H_    0.461637 0.984171 0.159756 0.110461
H23   H     H_    0.478912 0.911296 0.593400 0.165943
H24   H     H_    0.707163 0.098464 0.054503 0.269904
H25   H     H_    0.683638 0.943324 0.116681 0.186403
H26   H     H_    0.533242 0.897635 0.932044 0.239614
H27   H     H_    0.685017 0.939962 0.871071 0.275468
H28   H     H_    0.562868 0.050908 0.865847 0.282751
H29   H     H_    0.142537 0.322616 0.083255 0.176336
H30   H     H_    0.040609 0.249295 0.199144 0.140706
H31   H     H_    0.324134 0.253669 0.191605 0.233115
H32   H     H_    0.245907 0.215408 0.343225 0.214311
H33   H     H_    0.116675 0.052026 0.205765 0.260250
H34   H     H_    0.531495 0.092202 0.593885 0.141240
H35   H     H_    0.274375 0.020280 0.236554 0.261362
H36   H     H_    0.229357 0.077270 0.074511 0.268676
H37   H     H_    0.477729 0.687271 0.883562 0.121523
H38   H     H_    0.558666 0.682365 0.122751 0.144157
H39   H     H_    0.106204 0.347088 0.652110 0.234125
H40   H     H_    0.446237 0.433255 0.104988 0.191735
H41   H     H_    0.896482 0.501217 0.715867 0.199191
I1    I     I_    0.865452 0.448451 0.173296 -0.209981
I2    I     I_    0.599040 0.345161 0.909543 -0.261101
I3    I     I_    0.861519 0.255550 0.679169 -0.420262
N1    N     N_2   0.501360 0.501330 0.852150 -0.029506
N2    N     N_2   0.501390 0.501360 0.147810 -0.162255
O1    O     O_R   0.499980 0.319060 0.613040 -0.592543
O2    O     O_3   0.887599 0.671316 0.350294 -0.571195
O3    O     O_3   0.563724 0.128342 0.261276 -0.609097
O4    O     O_3   0.129249 0.414812 0.263737 -0.563825
O5    O     O_R   0.500020 0.319100 0.386900 -0.579083
O6    O     O_R   0.314770 0.499960 0.613070 -0.646957
O7    O     O_R   0.314820 0.500000 0.386930 -0.546028
O8    O     O_R   0.499980 0.680900 0.613100 -0.636354
O9    O     O_R   0.500020 0.680940 0.386960 -0.624832
O10   O     O_R   0.685180 0.500000 0.613070 -0.604302
O11   O     O_R   0.685230 0.500040 0.386930 -0.555454
O12   O     O_3   0.132854 0.700464 0.391108 -0.595040
Zn1   Zn    Zn3+2 0.499970 0.499970 0.650990 0.990935
Zn2   Zn    Zn3+2 0.500030 0.500030 0.349010 1.016992

loop_
_geom_bond_atom_site_label_1
_geom_bond_atom_site_label_2
_ccdc_geom_bond_type
C21   H30   S    
C6    H39   S    
C1    O1    A    
C19   C20   S    
C17   H18   S    
C20   H26   S    
C18   H22   S    
C12   C23   S    
O1    Zn1   S    
C26   C27   D    
O6    Zn1   S    
C28   C29   D    
C15   H14   S    
C21   H29   S    
C2    H38   S    
C7    H41   S    
C15   O2    S    
C1    O5    A    
C15   C16   S    
C8    C23   S    
C18   C19   S    
C11   H7    S    
C28   O3    S    
C17   H19   S    
C16   C17   S    
C23   H3    S    
C9    C10   S    
C30   H37   S    
C24   H36   S    
C6    H1    S    
C29   H34   S    
C13   C14   S    
I2    N1    S    
C16   H17   S    
C18   H21   S    
C7    I3    S    
C7    C12   S    
C9    C25   S    
C8    H2    S    
C5    C12   S    
C16   H16   S    
C18   O3    S    
C4    O9    A    
C8    O12   S    
C9    O4    S    
C22   H32   S    
C4    O8    A    
C11   O12   S    
C3    O6    A    
C1    C29   S    
C25   I1    S    
C13   H8    S    
C24   H35   S    
C25   H5    S    
C14   H11   S    
O5    Zn2   S    
C19   H24   S    
C24   H33   S    
H40   N2    S    
C9    H4    S    
C22   C24   S    
O8    Zn1   S    
C5    O10   A    
C20   H28   S    
C4    C27   S    
C2    N2    D    
C26   H12   S    
C19   H25   S    
O7    Zn2   S    
C11   H6    S    
O10   Zn1   S    
C17   H20   S    
C6    C10   S    
O9    Zn2   S    
C27   H23   S    
C6    C7    S    
C26   C28   S    
C12   C25   S    
C2    C30   S    
C3    C10   S    
C22   H31   S    
C3    O7    A    
C30   N1    D    
C11   C13   S    
C21   O4    S    
C23   O2    S    
C13   H9    S    
N1    Zn1   S    
C14   H10   S    
C5    O11   A    
C8    C10   S    
O11   Zn2   S    
C15   H15   S    
C20   H27   S    
C21   C22   S    
N2    Zn2   S    
C14   H13   S    
