data_mof_unit_11443.cif
_audit_creation_date              2012-10-26T18:56:25-0400
_audit_creation_method            fapswitch 2.2
_symmetry_space_group_name_H-M    P1
_symmetry_Int_Tables_number       1
_space_group_crystal_system       triclinic
_cell_length_a                    10.621317
_cell_length_b                    10.636721
_cell_length_c                    9.422077
_cell_angle_alpha                 90.408514
_cell_angle_beta                  89.665041
_cell_angle_gamma                 89.272436
_cell_volume                      1064.33679995

loop_
_atom_site_label
_atom_site_type_symbol
_atom_type_description
_atom_site_fract_x
_atom_site_fract_y
_atom_site_fract_z
_atom_type_partial_charge
Br1   Br    Br    0.483420 0.910894 0.831167 -0.508266
Br2   Br    Br    0.512160 0.088293 0.169453 -0.538713
C1    C     C_R   0.500531 0.259527 0.499342 0.563118
C2    C     C_3   0.412959 0.427976 0.050551 0.003939
C3    C     C_R   0.259607 0.498876 0.500333 0.577605
C4    C     C_R   0.740462 0.500973 0.499497 0.572024
C5    C     C_3   0.039825 0.460296 0.627795 -0.124150
C6    C     C_3   0.959729 0.538889 0.369956 -0.178557
C7    C     C_3   0.959055 0.385087 0.522828 0.276503
C8    C     C_3   0.041277 0.614266 0.474712 0.278773
C9    C     C_3   0.877269 0.501694 0.498075 0.017580
C10   C     C_3   0.122938 0.497903 0.500809 0.022190
C11   C     C_3   0.957335 0.579142 0.601762 -0.129784
C12   C     C_R   0.498507 0.740509 0.500785 0.573221
C13   C     C_3   0.043770 0.420634 0.395846 -0.182492
C14   C     C_3   0.600404 0.041266 0.571601 -0.140016
C15   C     C_3   0.397743 0.958979 0.429563 -0.121883
C16   C     C_3   0.604803 0.954431 0.438594 -0.146956
C17   C     C_3   0.393295 0.045741 0.562434 -0.124669
C18   C     C_3   0.497827 0.877304 0.502801 0.026538
C19   C     C_3   0.500251 0.122810 0.498019 0.008207
C20   C     C_3   0.932693 0.174974 0.455373 -0.003584
C21   C     C_3   0.848674 0.188704 0.323952 -0.260830
C22   C     C_3   0.881327 0.089210 0.211831 -0.467575
C23   C     C_3   0.493402 0.962312 0.634742 0.187625
C24   C     C_3   0.069027 0.790632 0.331430 -0.000464
C25   C     C_3   0.157661 0.740374 0.213983 -0.274840
C26   C     C_3   0.147143 0.819451 0.080000 -0.469279
C27   C     C_3   0.504642 0.037753 0.366263 0.167407
C28   C     C_3   0.479996 0.612062 0.051406 0.007345
C29   C     C_3   0.519970 0.387932 0.948610 0.020697
C30   C     C_3   0.393076 0.539979 0.950439 -0.014650
C31   C     C_3   0.606914 0.459985 0.049587 -0.003646
C32   C     C_3   0.587031 0.572023 0.949483 0.011337
Cu1   Cu    Cu3+1 0.500030 0.499990 0.643150 0.978689
Cu2   Cu    Cu3+1 0.499970 0.500010 0.356850 0.943318
H1    H     H_    0.075021 0.426416 0.731632 0.122758
H2    H     H_    0.696849 0.425808 0.095837 0.111447
H3    H     H_    0.462971 0.706661 0.098709 0.157497
H4    H     H_    0.537124 0.293366 0.901252 0.166662
H5    H     H_    0.660195 0.632726 0.902108 0.130473
H6    H     H_    0.339712 0.367409 0.097994 0.131694
H7    H     H_    0.913275 0.082319 0.504015 0.153036
H8    H     H_    0.034582 0.172515 0.426845 0.123492
H9    H     H_    0.748647 0.179532 0.356009 0.202079
H10   H     H_    0.859451 0.282768 0.275679 0.165514
H11   H     H_    0.980732 0.098680 0.176599 0.139105
H12   H     H_    0.921917 0.568241 0.265536 0.103195
H13   H     H_    0.819136 0.101479 0.118511 0.200369
H14   H     H_    0.867620 0.993601 0.254980 0.137744
H15   H     H_    0.084509 0.893151 0.344410 0.141837
H16   H     H_    0.968375 0.781208 0.301385 0.117354
H17   H     H_    0.256479 0.741640 0.251567 0.196399
H18   H     H_    0.134706 0.641541 0.187225 0.155793
H19   H     H_    0.049121 0.818409 0.039564 0.149131
H20   H     H_    0.211142 0.780444 0.996712 0.177262
H21   H     H_    0.174551 0.918016 0.102560 0.178057
H22   H     H_    0.919398 0.645230 0.683616 0.122228
H23   H     H_    0.084571 0.358929 0.311409 0.104415
H24   H     H_    0.690735 0.913736 0.387909 0.122771
H25   H     H_    0.306909 0.085368 0.613481 0.136607
H26   H     H_    0.682988 0.077391 0.630142 0.158252
H27   H     H_    0.314628 0.925383 0.370922 0.135891
H28   H     H_    0.302960 0.573460 0.904128 0.115200
N1    N     N_3   0.500090 0.499970 0.858290 -0.240706
N2    N     N_3   0.499910 0.500030 0.141710 -0.242126
O1    O     O_R   0.500060 0.316850 0.620870 -0.505179
O2    O     O_3   0.096178 0.734323 0.463146 -0.565276
O3    O     O_R   0.499940 0.683150 0.379130 -0.518969
O4    O     O_R   0.500000 0.316860 0.379090 -0.468122
O5    O     O_R   0.500000 0.683140 0.620910 -0.459789
O6    O     O_R   0.316880 0.499960 0.620870 -0.506689
O7    O     O_R   0.683120 0.500040 0.379130 -0.519508
O8    O     O_R   0.316830 0.499970 0.379090 -0.515118
O9    O     O_R   0.683170 0.500030 0.620910 -0.495206
O10   O     O_3   0.904254 0.268586 0.558245 -0.565336

loop_
_geom_bond_atom_site_label_1
_geom_bond_atom_site_label_2
_ccdc_geom_bond_type
C28   C30   S    
C14   C19   S    
C21   H9    S    
C15   C27   S    
C12   O5    A    
Cu1   Cu2   S    
C20   O10   S    
C26   H20   S    
C25   H18   S    
C4    O9    A    
C26   H21   S    
Cu1   O9    S    
C24   C25   S    
Br2   C27   S    
C17   C19   S    
C3    O6    A    
Cu2   N2    S    
C18   C23   S    
Cu1   N1    S    
C14   C23   S    
C15   C18   S    
C29   H4    S    
C29   N1    S    
C3    O8    A    
C20   H8    S    
C21   C22   S    
C29   C31   S    
C7    O10   S    
Cu1   O5    S    
C21   H10   S    
Br1   C23   S    
C32   H5    S    
C14   H26   S    
C32   N1    S    
C26   H19   S    
Cu2   O4    S    
C31   N2    S    
C22   H14   S    
C5    C10   S    
C28   C32   S    
C12   C18   S    
C1    O4    A    
C30   H28   S    
C3    C10   S    
C4    C9    S    
C11   H22   S    
C19   C27   S    
C6    H12   S    
C24   H16   S    
C20   H7    S    
C10   C13   S    
Cu1   O1    S    
C31   C32   S    
C5    H1    S    
C16   C27   S    
C28   N2    S    
C7    C9    S    
C2    C30   S    
C8    C10   S    
C16   H24   S    
Cu1   O6    S    
C6    C13   S    
C12   O3    A    
C1    C19   S    
Cu2   O3    S    
C4    O7    A    
C22   H13   S    
C5    C7    S    
Cu2   O8    S    
C22   H11   S    
C13   H23   S    
C14   C16   S    
C1    O1    A    
C8    C11   S    
C25   H17   S    
C8    O2    S    
C31   H2    S    
C24   O2    S    
C7    C13   S    
C24   H15   S    
C15   H27   S    
C2    N2    S    
C9    C11   S    
C2    H6    S    
C17   H25   S    
C6    C9    S    
C15   C17   S    
C28   H3    S    
C16   C18   S    
C17   C23   S    
C2    C29   S    
Cu2   O7    S    
C5    C11   S    
C6    C8    S    
C25   C26   S    
C20   C21   S    
C30   N1    S    
