data_mof_unit_51532.cif
_audit_creation_date              2012-12-10T20:32:48-0500
_audit_creation_method            fapswitch 2.2
_symmetry_space_group_name_H-M    P1
_symmetry_Int_Tables_number       1
_space_group_crystal_system       triclinic
_cell_length_a                    11.521828
_cell_length_b                    10.713379
_cell_length_c                    9.899641
_cell_angle_alpha                 89.859843
_cell_angle_beta                  91.017663
_cell_angle_gamma                 90.265689
_cell_volume                      1221.77971792

loop_
_atom_site_label
_atom_site_type_symbol
_atom_type_description
_atom_site_fract_x
_atom_site_fract_y
_atom_site_fract_z
_atom_type_partial_charge
C1    C     C_R   0.502102 0.259503 0.499463 0.940851
C2    C     C_R   0.597332 0.470980 0.075032 -0.151655
C3    C     C_R   0.598450 0.471894 0.931534 0.229169
C4    C     C_R   0.282027 0.501428 0.499205 0.886906
C5    C     C_R   0.403801 0.534077 0.927039 -0.026720
C6    C     C_3   0.285699 0.475841 0.918605 -0.053391
C7    C     C_3   0.284212 0.480035 0.073547 0.310155
C8    C     C_R   0.488586 0.739352 0.498502 0.902693
C9    C     C_R   0.718014 0.500420 0.500990 0.907946
C10   C     C_1   0.161610 0.504520 0.498523 -0.224632
C11   C     C_1   0.059395 0.505526 0.500008 -0.042443
C12   C     C_R   0.488650 0.126794 0.493807 -0.278709
C13   C     C_1   0.940762 0.504475 0.502104 -0.017860
C14   C     C_1   0.838524 0.502593 0.502708 -0.186304
C15   C     C_R   0.446699 0.063083 0.605143 -0.028142
C16   C     C_3   0.468143 0.135498 0.151296 -0.138545
C17   C     C_3   0.184629 0.297660 0.807695 -0.722639
C18   C     C_3   0.169813 0.328106 0.170403 -0.306357
C19   C     C_3   0.370386 0.844066 0.194670 -0.283033
C20   C     C_3   0.278423 0.798285 0.778688 -0.329613
C21   C     C_3   0.688565 0.038078 0.711294 -0.760896
C22   C     C_3   0.792109 0.533883 0.874573 -0.747252
C23   C     C_R   0.496748 0.063236 0.369009 0.401315
C24   C     C_R   0.473971 0.934946 0.365293 0.441351
C25   C     C_R   0.460613 0.870026 0.489674 -0.334933
C26   C     C_R   0.427001 0.937714 0.602289 -0.076747
C27   C     C_3   0.442643 0.923705 0.753218 0.382846
C28   C     C_3   0.474084 0.062652 0.753744 0.006398
C29   C     C_R   0.403904 0.535027 0.068882 0.076080
H1    H     H_    0.221895 0.548770 0.115446 0.039680
H2    H     H_    0.135042 0.252780 0.889556 0.226475
H3    H     H_    0.205806 0.225084 0.732299 0.235348
H4    H     H_    0.130208 0.369531 0.756706 0.234701
H5    H     H_    0.104813 0.350784 0.089658 0.151219
H6    H     H_    0.145351 0.375838 0.264591 0.186911
H7    H     H_    0.166082 0.226015 0.188939 0.170419
H8    H     H_    0.327085 0.773919 0.259895 0.158632
H9    H     H_    0.377189 0.803387 0.092239 0.204993
H10   H     H_    0.314744 0.928348 0.185576 0.129218
H11   H     H_    0.337548 0.717811 0.771425 0.197011
H12   H     H_    0.512715 0.859942 0.788740 0.122100
H13   H     H_    0.233816 0.814632 0.679821 0.179510
H14   H     H_    0.211168 0.774416 0.853364 0.168737
H15   H     H_    0.609377 0.179690 0.819640 0.236505
H16   H     H_    0.771025 0.044443 0.770603 0.238063
H17   H     H_    0.698924 0.093152 0.617193 0.239161
H18   H     H_    0.673334 0.938597 0.685683 0.232088
H19   H     H_    0.733256 0.353100 0.896909 0.197927
H20   H     H_    0.822172 0.546937 0.980923 0.211049
H21   H     H_    0.759213 0.624028 0.833717 0.254875
H22   H     H_    0.867347 0.504719 0.813806 0.232888
H23   H     H_    0.412903 0.119942 0.811873 0.140651
H24   H     H_    0.674844 0.445366 0.131484 0.160146
H25   H     H_    0.220853 0.537803 0.868389 0.103796
H26   H     H_    0.490318 0.222173 0.095922 0.172815
H27   H     H_    0.376686 0.144282 0.184405 0.156381
H28   H     H_    0.476101 0.057466 0.078676 0.193125
H29   H     H_    0.345630 0.289338 0.909949 0.239314
N1    N     N_R   0.499240 0.499140 0.142800 -0.081664
N2    N     N_R   0.499240 0.499180 0.857150 -0.102647
N3    N     N_2   0.291322 0.351307 0.860853 -0.223329
N4    N     N_2   0.595113 0.088475 0.790816 -0.317590
N5    N     N_2   0.702340 0.439008 0.866313 -0.263370
O1    O     O_R   0.500010 0.316790 0.614690 -0.617427
O2    O     O_3   0.284120 0.361072 0.135475 -0.585271
O3    O     O_3   0.483405 0.873473 0.243178 -0.561894
O4    O     O_3   0.336854 0.907112 0.822320 -0.628372
O5    O     O_R   0.500000 0.316760 0.385350 -0.554065
O6    O     O_R   0.334450 0.500030 0.614670 -0.605350
O7    O     O_R   0.334440 0.500000 0.385330 -0.601564
O8    O     O_R   0.500000 0.683240 0.614650 -0.653412
O9    O     O_R   0.499990 0.683210 0.385310 -0.558817
O10   O     O_R   0.665560 0.500000 0.614670 -0.581557
O11   O     O_R   0.665550 0.499970 0.385330 -0.622659
O12   O     O_3   0.548625 0.120749 0.259351 -0.584972
Zn1   Zn    Zn3+2 0.500010 0.500020 0.653130 0.948834
Zn2   Zn    Zn3+2 0.499990 0.499980 0.346870 1.005543

loop_
_geom_bond_atom_site_label_1
_geom_bond_atom_site_label_2
_ccdc_geom_bond_type
C7    C29   S    
C16   O12   S    
C11   C13   S    
C20   O4    S    
N1    Zn2   S    
C4    O7    A    
C18   O2    S    
C12   C23   A    
C26   C27   S    
C9    O10   A    
C19   O3    S    
C6    N3    S    
O8    Zn1   S    
C20   H11   S    
C1    O5    A    
O6    Zn1   S    
C19   H8    S    
C17   N3    S    
C22   N5    S    
C29   N1    A    
O11   Zn2   S    
C23   C24   A    
C18   H6    S    
C5    C29   A    
C24   O3    S    
C22   H21   S    
C3    N2    A    
H29   N3    S    
C7    H1    S    
C13   C14   T    
O7    Zn2   S    
C8    C25   S    
C1    C12   S    
C17   H4    S    
C6    H25   S    
C4    O6    A    
C21   H16   S    
C8    O9    A    
C24   C25   A    
C2    N1    A    
H19   N5    S    
H15   N4    S    
C25   C26   A    
N2    Zn1   S    
C9    C14   S    
C16   H27   S    
O9    Zn2   S    
C19   H9    S    
C7    O2    S    
C27   H12   S    
C12   C15   A    
O1    Zn1   S    
C18   H5    S    
C21   N4    S    
C19   H10   S    
C22   H20   S    
C17   H2    S    
O10   Zn1   S    
C9    O11   A    
C4    C10   S    
C1    O1    A    
C20   H14   S    
C21   H17   S    
O5    Zn2   S    
C8    O8    A    
C5    N2    A    
C23   O12   S    
C15   C26   A    
C2    H24   S    
C20   H13   S    
C6    C7    S    
C3    N5    S    
C2    C3    A    
C16   H26   S    
C28   H23   S    
C15   C28   S    
C5    C6    S    
C16   H28   S    
C27   O4    S    
C10   C11   T    
C27   C28   S    
C17   H3    S    
C18   H7    S    
C22   H22   S    
C21   H18   S    
C28   N4    S    
