data_mof_unit_46084.cif
_audit_creation_date              2012-12-10T16:48:45-0500
_audit_creation_method            fapswitch 2.2
_symmetry_space_group_name_H-M    P1
_symmetry_Int_Tables_number       1
_space_group_crystal_system       triclinic
_cell_length_a                    7.764332
_cell_length_b                    8.583782
_cell_length_c                    10.857837
_cell_angle_alpha                 88.322149
_cell_angle_beta                  99.775039
_cell_angle_gamma                 93.299389
_cell_volume                      711.817903632

loop_
_atom_site_label
_atom_site_type_symbol
_atom_type_description
_atom_site_fract_x
_atom_site_fract_y
_atom_site_fract_z
_atom_type_partial_charge
C1    C     C_R   0.544551 0.794704 0.496744 0.972469
C2    C     C_2   0.432006 0.041936 0.505287 -0.342647
C3    C     C_2   0.650617 0.656277 0.105743 0.969830
C4    C     C_2   0.349339 0.343739 0.894240 0.969841
C5    C     C_R   0.455448 0.205296 0.503256 0.972466
C6    C     C_R   0.573174 0.488751 0.735407 0.937098
C7    C     C_R   0.426825 0.511244 0.264593 0.937086
C8    C     C_2   0.619843 0.494369 0.869366 -0.359347
C9    C     C_2   0.380151 0.505608 0.130636 -0.359320
C10   C     C_2   0.495620 0.460309 0.939872 -0.067569
C11   C     C_2   0.504360 0.539681 0.060123 -0.067551
C12   C     C_2   0.567994 0.958064 0.494713 -0.342662
H1    H     H_    0.258248 0.441470 0.096538 0.191913
H2    H     H_    0.741761 0.558480 0.903475 0.191942
H3    H     H_    0.696559 0.008818 0.484475 0.179342
H4    H     H_    0.303441 0.991181 0.515525 0.179343
H5    H     H_    0.985345 0.385438 0.407743 0.202999
H6    H     H_    0.014655 0.614562 0.592257 0.203004
H7    H     H_    0.719819 0.870573 0.175133 0.345153
H8    H     H_    0.280089 0.129460 0.824822 0.345149
N1    N     N_2   0.940600 0.458860 0.467170 -0.157270
N2    N     N_2   0.059400 0.541140 0.532830 -0.157269
O1    O     O_R   0.391630 0.738350 0.508060 -0.614460
O2    O     O_R   0.611162 0.803065 0.142382 -0.790806
O3    O     O_2   0.196956 0.379233 0.882019 -0.621911
O4    O     O_R   0.388762 0.196949 0.857580 -0.790802
O5    O     O_R   0.608370 0.261650 0.491940 -0.614464
O6    O     O_R   0.674540 0.711990 0.487010 -0.630539
O7    O     O_R   0.325460 0.288010 0.512990 -0.630540
O8    O     O_R   0.411370 0.508250 0.688780 -0.599996
O9    O     O_R   0.588630 0.491750 0.311220 -0.599996
O10   O     O_R   0.694270 0.481880 0.667740 -0.606046
O11   O     O_R   0.305730 0.518120 0.332260 -0.606046
O12   O     O_2   0.803007 0.620806 0.117972 -0.621910
Zn1   Zn    Zn3+2 0.311100 0.517600 0.514050 0.991759
Zn2   Zn    Zn3+2 0.688900 0.482400 0.485950 0.991757

loop_
_geom_bond_atom_site_label_1
_geom_bond_atom_site_label_2
_ccdc_geom_bond_type
C1    O6    A    
C4    O4    S    
O5    Zn2   S    
C2    H4    S    
O7    Zn1   S    
O1    Zn1   S    
C12   H3    S    
C2    C12   D    
C4    O3    D    
N1    Zn2   S    
H6    N2    S    
N1    N2    D    
N2    Zn1   S    
C7    O11   A    
C3    O2    S    
C1    C12   S    
H8    O4    S    
O8    Zn1   S    
O10   Zn2   S    
C6    O8    A    
C1    O1    A    
C5    O7    A    
C9    C11   D    
C8    H2    S    
C2    C5    S    
C7    O9    A    
C10   C11   S    
C4    C10   S    
C3    C11   S    
O6    Zn2   S    
C8    C10   D    
C6    O10   A    
C7    C9    S    
C9    H1    S    
O9    Zn2   S    
C6    C8    S    
C3    O12   D    
O11   Zn1   S    
C5    O5    A    
H7    O2    S    
H5    N1    S    
