data_mof_unit_13620.cif
_audit_creation_date              2012-12-10T19:12:24-0500
_audit_creation_method            fapswitch 2.2
_symmetry_space_group_name_H-M    P1
_symmetry_Int_Tables_number       1
_space_group_crystal_system       triclinic
_cell_length_a                    15.699134
_cell_length_b                    11.051597
_cell_length_c                    10.077106
_cell_angle_alpha                 92.72224
_cell_angle_beta                  89.465325
_cell_angle_gamma                 90.666393
_cell_volume                      1746.22434507

loop_
_atom_site_label
_atom_site_type_symbol
_atom_type_description
_atom_site_fract_x
_atom_site_fract_y
_atom_site_fract_z
_atom_type_partial_charge
C1    C     C_R   0.499420 0.258376 0.498468 0.921768
C2    C     C_3   0.084176 0.513861 0.504143 -0.054131
C3    C     C_3   0.970594 0.621340 0.538530 -0.151634
C4    C     C_3   0.916059 0.508947 0.498599 -0.055439
C5    C     C_3   0.029518 0.593016 0.417386 -0.180375
C6    C     C_3   0.974372 0.480704 0.377727 -0.262802
C7    C     C_1   0.175024 0.510131 0.503814 0.205104
C8    C     C_1   0.825172 0.504322 0.498133 0.206495
C9    C     C_3   0.441167 0.073765 0.609027 0.454953
C10   C     C_3   0.452752 0.935796 0.629880 -0.343367
C11   C     C_3   0.467982 0.061349 0.366884 0.257930
C12   C     C_R   0.338932 0.500771 0.500596 0.839075
C13   C     C_3   0.596249 0.077805 0.531733 0.444245
C14   C     C_3   0.502327 0.120999 0.498865 -0.361107
C15   C     C_3   0.507694 0.879594 0.507083 -0.436238
C16   C     C_3   0.464888 0.921822 0.375691 1.032510
C17   C     C_3   0.603603 0.933785 0.509973 -0.355525
C18   C     C_3   0.508243 0.372161 0.071817 -0.412720
C19   C     C_3   0.490268 0.371364 0.911211 0.397189
C20   C     C_3   0.414091 0.544384 0.083872 0.416082
C21   C     C_3   0.567328 0.580845 0.078202 0.266803
C22   C     C_3   0.422083 0.562520 0.925538 -0.345690
C23   C     C_R   0.504420 0.741636 0.502532 0.925269
C24   C     C_3   0.576826 0.558687 0.919881 0.473638
C25   C     C_R   0.661079 0.499735 0.499472 0.938239
C26   C     C_3   0.970872 0.430338 0.585112 0.575144
C27   C     C_3   0.029351 0.402146 0.464619 0.575868
C28   C     C_1   0.250211 0.505590 0.502402 -0.034227
C29   C     C_1   0.749897 0.501515 0.498365 -0.024094
C30   C     C_3   0.025992 0.542168 0.625168 -0.239036
H1    H     H_    0.362246 0.523619 0.883272 0.150636
H2    H     H_    0.374234 0.093344 0.583332 0.078175
N1    N     N_3   0.498170 0.499750 0.138610 -0.310074
N2    N     N_3   0.498850 0.496730 0.861320 -0.283487
O1    O     O_R   0.499980 0.314910 0.616040 -0.520679
O2    O     O_R   0.500040 0.314680 0.383960 -0.670192
O3    O     O_R   0.376750 0.500100 0.616020 -0.698065
O4    O     O_R   0.376810 0.499870 0.383940 -0.591645
O5    O     O_R   0.499960 0.685320 0.616040 -0.630869
O6    O     O_R   0.500020 0.685090 0.383960 -0.595478
O7    O     O_R   0.623190 0.500130 0.616060 -0.550535
O8    O     O_R   0.623250 0.499900 0.383980 -0.676511
Zn1   Zn    Zn3+2 0.499960 0.500150 0.654960 1.018080
Zn2   Zn    Zn3+2 0.500040 0.499850 0.345040 0.965318
F1    F     F_    0.060556 0.288889 0.427532 -0.596272
C31   C     C_2   0.364158 0.878253 0.639620 0.407546
H3    H     H_    0.347196 0.796743 0.581196 0.116812
O9    O     O_2   0.311141 0.920380 0.717955 -0.447115
C32   C     C_2   0.379604 0.107230 0.332424 0.517740
H4    H     H_    0.351426 0.183419 0.388049 -0.046107
O10   O     O_2   0.339491 0.061035 0.239403 -0.356315
F2    F     F_    0.381842 0.877190 0.370208 -0.690375
C33   C     C_2   0.669578 0.144227 0.466046 0.561201
H5    H     H_    0.733712 0.131721 0.501942 0.072873
O11   O     O_2   0.659457 0.209710 0.373821 -0.529182
F3    F     F_    0.608132 0.109810 0.665427 -0.599754
C34   C     C_2   0.659484 0.885147 0.618797 0.398601
H6    H     H_    0.697376 0.945811 0.682833 0.186959
O12   O     O_2   0.667987 0.776436 0.630444 -0.497964
C35   C     C_2   0.652680 0.891700 0.383804 0.551316
H7    H     H_    0.678709 0.801359 0.377911 0.066934
O13   O     O_2   0.663931 0.954762 0.288819 -0.402192
F4    F     F_    0.524877 0.090165 0.267663 -0.513797
F5    F     F_    0.505533 0.874853 0.262816 -0.512826
C36   C     C_2   0.449705 0.280065 0.130118 0.764526
H8    H     H_    0.404690 0.304782 0.208069 0.111084
O14   O     O_2   0.449327 0.175970 0.082878 -0.344564
F6    F     F_    0.939683 0.345780 0.670558 -0.597793
C37   C     C_2   0.594621 0.320871 0.106552 0.571759
H9    H     H_    0.624373 0.351019 0.198084 0.167497
O15   O     O_2   0.626324 0.234922 0.044138 -0.347752
F7    F     F_    0.548879 0.297479 0.846114 -0.547982
C38   C     C_2   0.402275 0.319788 0.861656 0.763030
H10   H     H_    0.385224 0.329462 0.759584 0.081649
O16   O     O_2   0.346515 0.276600 0.930600 -0.478608
F8    F     F_    0.349886 0.458772 0.098191 -0.651602
F9    F     F_    0.543406 0.700364 0.096505 -0.578560
C39   C     C_2   0.651828 0.585902 0.150975 0.497901
H11   H     H_    0.661509 0.656203 0.227413 0.141720
O17   O     O_2   0.710538 0.516706 0.126926 -0.596781
C40   C     C_2   0.659608 0.496207 0.877350 0.583452
H12   H     H_    0.670561 0.401655 0.890689 0.125128
O18   O     O_2   0.719126 0.554916 0.833425 -0.449501
F10   F     F_    0.583790 0.671113 0.865987 -0.561865
C41   C     C_2   0.377405 0.651641 0.164004 0.765717
H13   H     H_    0.413856 0.731286 0.186234 0.210636
O19   O     O_2   0.303006 0.652020 0.200870 -0.447031
C42   C     C_2   0.948914 0.443655 0.238711 0.554500
H14   H     H_    0.997545 0.430322 0.162446 0.100410
O20   O     O_2   0.874105 0.427891 0.210633 -0.477166
C43   C     C_2   0.409516 0.687649 0.878849 0.603285
H15   H     H_    0.390273 0.696239 0.777875 0.056139
O21   O     O_2   0.412242 0.777546 0.953135 -0.470850
C44   C     C_2   0.059680 0.685918 0.323557 0.500725
H16   H     H_    0.013737 0.731842 0.264596 0.082259
O22   O     O_2   0.135254 0.710824 0.313471 -0.452405
C45   C     C_2   0.939826 0.745478 0.580042 0.476021
H17   H     H_    0.985670 0.816503 0.606518 0.105509
O23   O     O_2   0.863856 0.767376 0.584147 -0.528635
C46   C     C_2   0.052582 0.575433 0.764694 0.543095
H18   H     H_    0.004411 0.592004 0.841033 0.096351
O24   O     O_2   0.127841 0.584103 0.793168 -0.531593
F11   F     F_    0.453260 0.137092 0.726219 -0.536634
C47   C     C_2   0.496036 0.916627 0.762964 0.801597
H19   H     H_    0.540741 0.845683 0.772483 0.132493
O25   O     O_2   0.476825 0.974158 0.865269 -0.283849

loop_
_geom_bond_atom_site_label_1
_geom_bond_atom_site_label_2
_ccdc_geom_bond_type
C30   C46   S    
C38   O16   D    
C38   H10   S    
C2    C7    S    
C4    C8    S    
C47   O25   D    
C40   H12   S    
C33   H5    S    
C18   C36   S    
C26   C27   S    
C12   C28   S    
C8    C29   T    
C11   F4    S    
C10   C15   S    
C5    C6    S    
C11   C14   S    
C39   O17   D    
C34   O12   D    
C21   N1    S    
C15   C16   S    
C45   H17   S    
C6    C42   S    
C20   F8    S    
C35   O13   D    
C18   C19   S    
C12   O3    A    
C37   O15   D    
C9    H2    S    
C45   O23   D    
C36   O14   D    
C21   C39   S    
C10   C31   S    
C22   C43   S    
C2    C27   S    
O1    Zn1   S    
C9    C10   S    
C13   F3    S    
C27   F1    S    
C18   C37   S    
C15   C23   S    
C13   C14   S    
O7    Zn1   S    
C19   F7    S    
C44   H16   S    
O8    Zn2   S    
C47   H19   S    
C40   O18   D    
C5    C44   S    
C13   C33   S    
C33   O11   D    
C25   C29   S    
C22   N2    S    
C31   O9    D    
C22   H1    S    
C41   O19   D    
C19   C38   S    
C4    C6    S    
C25   O7    A    
C43   H15   S    
C9    C14   S    
C39   H11   S    
O5    Zn1   S    
C32   O10   D    
C41   H13   S    
C24   N2    S    
C7    C28   T    
C35   H7    S    
O3    Zn1   S    
C3    C30   S    
C24   C40   S    
O4    Zn2   S    
C11   C32   S    
C43   O21   D    
C11   C16   S    
C3    C45   S    
C6    C27   S    
C9    F11   S    
C20   C41   S    
C46   O24   D    
C44   O22   D    
C20   N1    S    
C42   O20   D    
C26   C30   S    
O2    Zn2   S    
C2    C5    S    
C3    C4    S    
C1    O1    A    
C15   C17   S    
C31   H3    S    
N1    Zn2   S    
N2    Zn1   S    
C16   F2    S    
C20   C22   S    
C3    C5    S    
C19   N2    S    
C25   O8    A    
C4    C26   S    
C13   C17   S    
C2    C30   S    
C26   F6    S    
C10   C47   S    
C24   F10   S    
C34   H6    S    
C23   O5    A    
C46   H18   S    
C36   H8    S    
C12   O4    A    
C37   H9    S    
C18   N1    S    
C17   C35   S    
O6    Zn2   S    
C42   H14   S    
C32   H4    S    
C21   C24   S    
C21   F9    S    
C1    C14   S    
C16   F5    S    
C23   O6    A    
C1    O2    A    
C17   C34   S    
