data_mof_unit_51761.cif
_audit_creation_date              2012-12-11T17:09:26-0500
_audit_creation_method            fapswitch 2.2
_symmetry_space_group_name_H-M    P1
_symmetry_Int_Tables_number       1
_space_group_crystal_system       monoclinic
_cell_length_a                    14.804941
_cell_length_b                    6.922601
_cell_length_c                    13.514357
_cell_angle_alpha                 90.0
_cell_angle_beta                  99.809008
_cell_angle_gamma                 90.0
_cell_volume                      1364.82072458

loop_
_atom_site_label
_atom_site_type_symbol
_atom_type_description
_atom_site_fract_x
_atom_site_fract_y
_atom_site_fract_z
_atom_type_partial_charge
O1    O     O_R   0.586930 0.505770 0.416350 -0.538575
O2    O     O_R   0.413070 0.005770 0.583650 -0.538575
O3    O     O_R   0.397900 0.173100 0.389630 -0.535904
O4    O     O_R   0.602100 0.673100 0.610370 -0.535904
C1    C     C_R   0.364235 0.345430 0.362842 0.725510
C2    C     C_R   0.635765 0.845430 0.637158 0.725510
O5    O     O_R   0.585280 0.175870 0.404330 -0.544243
O6    O     O_R   0.414720 0.675870 0.595670 -0.544243
O7    O     O_R   0.601790 0.008380 0.598460 -0.534992
O8    O     O_R   0.398210 0.508380 0.401540 -0.534992
C3    C     C_R   0.614731 0.344685 0.382995 0.704627
C4    C     C_R   0.385269 0.844685 0.617005 0.704628
O9    O     O_3   0.505200 0.340120 0.563670 -0.369032
O10   O     O_3   0.494800 0.840120 0.436330 -0.369031
V1    V     V_3+5 0.499040 0.064180 0.488190 1.418977
V2    V     V_3+5 0.500960 0.564180 0.511810 1.418977
C5    C     C_R   0.323229 0.988863 0.762691 0.091702
C6    C     C_R   0.676771 0.488863 0.237309 0.091702
C7    C     C_R   0.317761 0.851549 0.685981 -0.109334
C8    C     C_R   0.682239 0.351549 0.314018 -0.109334
C9    C     C_R   0.247134 0.713185 0.679133 -0.206745
C10   C     C_R   0.752866 0.213185 0.320868 -0.206745
H1    H     H_    0.242001 0.601987 0.621931 0.125186
H2    H     H_    0.757999 0.101987 0.378069 0.125186
C11   C     C_R   0.178654 0.726133 0.740187 -0.048741
C12   C     C_R   0.821346 0.226133 0.259813 -0.048741
C13   C     C_R   0.181935 0.875247 0.813118 -0.140906
C14   C     C_R   0.818065 0.375247 0.186882 -0.140906
C15   C     C_R   0.258039 0.998721 0.825340 0.084895
C16   C     C_R   0.741960 0.498720 0.174660 0.084894
C17   C     C_3   0.263296 0.213798 0.830166 -0.404654
C18   C     C_3   0.736704 0.713799 0.169834 -0.404651
C19   C     C_3   0.334263 0.202873 0.761037 -0.389916
C20   C     C_3   0.665738 0.702874 0.238964 -0.389915
H3    H     H_    0.291907 0.266546 0.906787 0.160120
H4    H     H_    0.708093 0.766548 0.093214 0.160119
H5    H     H_    0.198197 0.282795 0.794939 0.195769
H6    H     H_    0.801804 0.782795 0.205062 0.195768
H7    H     H_    0.403720 0.249548 0.797874 0.165290
H8    H     H_    0.596281 0.749550 0.202126 0.165290
H9    H     H_    0.310076 0.266086 0.685535 0.180266
H10   H     H_    0.689925 0.766085 0.314466 0.180265
C21   C     C_1   0.783495 0.877085 0.782831 -0.175853
C22   C     C_1   0.216504 0.377084 0.217169 -0.175853
C23   C     C_1   0.716226 0.860127 0.716786 -0.181457
C24   C     C_1   0.283774 0.360127 0.283214 -0.181457
O11   O     O_R   0.101720 0.231700 0.098560 -0.535312
O12   O     O_R   0.898280 0.731700 0.901440 -0.535312
O13   O     O_R   0.914700 0.558980 0.095690 -0.538039
O14   O     O_R   0.085300 0.058980 0.904310 -0.538038
C25   C     C_R   0.886564 0.389417 0.118660 0.697383
C26   C     C_R   0.113436 0.889417 0.881340 0.697384
O15   O     O_R   0.102080 0.561590 0.110390 -0.537173
O16   O     O_R   0.897920 0.061590 0.889610 -0.537173
O17   O     O_R   0.086950 0.728940 0.916330 -0.540303
O18   O     O_R   0.913050 0.228940 0.083670 -0.540303
C27   C     C_R   0.136082 0.391892 0.137507 0.731799
C28   C     C_R   0.863917 0.891892 0.862493 0.731799
O19   O     O_3   0.994770 0.394510 0.936380 -0.361071
O20   O     O_3   0.005230 0.894510 0.063620 -0.361072
V3    V     V_3+5 0.000970 0.670520 0.011800 1.470467
V4    V     V_3+5 0.999030 0.170520 0.988200 1.470467
C29   C     C_1   0.101333 0.596409 0.719590 0.290003
N1    N     N_1   0.039288 0.492676 0.702937 -0.349746
C30   C     C_1   0.898667 0.096411 0.280412 0.290003
N2    N     N_1   0.960713 0.992680 0.297065 -0.349746

loop_
_geom_bond_atom_site_label_1
_geom_bond_atom_site_label_2
_ccdc_geom_bond_type
O4    V2    S    
O5    C3    A    
C17   C19   S    
O9    V2    S    
O12   C28   A    
C6    C16   A    
C2    C23   S    
C18   H6    S    
C11   C13   A    
C5    C15   A    
C1    C24   S    
C12   C14   A    
C20   H10   S    
C26   O17   A    
C22   C27   S    
O6    C4    A    
O18   V4    S    
O2    C4    A    
C2    O7    A    
O5    V1    S    
O7    V1    S    
C19   H9    S    
C1    O8    A    
C15   C17   S    
O1    V2    S    
O8    V2    S    
O1    C3    A    
O20   V4    S    
C16   C18   S    
O2    V1    S    
C6    C20   S    
O12   V3    S    
C19   H7    S    
C5    C19   S    
O11   V4    S    
C20   H8    S    
C18   H4    S    
C4    C7    S    
C14   C16   A    
C7    C9    A    
C8    C10   A    
C25   O18   A    
C6    C8    A    
O9    V1    S    
C9    H1    S    
C10   C12   A    
O14   V4    S    
C14   C25   S    
O10   V2    S    
C3    C8    S    
O19   V3    S    
O13   V3    S    
C29   N1    T    
O17   V3    S    
O3    V1    S    
C13   C26   S    
O4    C2    A    
C30   N2    T    
C11   C29   S    
C10   H2    S    
O16   C28   A    
O14   C26   A    
C17   H3    S    
O15   C27   A    
O10   V1    S    
O19   V4    S    
C9    C11   A    
O6    V2    S    
O16   V4    S    
C21   C28   S    
C5    C7    A    
C13   C15   A    
C12   C30   S    
O15   V3    S    
C21   C23   T    
O13   C25   A    
O11   C27   A    
C17   H5    S    
C22   C24   T    
O20   V3    S    
O3    C1    A    
C18   C20   S    
