data_mof_unit_38543.cif
_audit_creation_date              2012-12-10T17:41:03-0500
_audit_creation_method            fapswitch 2.2
_symmetry_space_group_name_H-M    P1
_symmetry_Int_Tables_number       1
_space_group_crystal_system       triclinic
_cell_length_a                    14.48641
_cell_length_b                    15.697412
_cell_length_c                    9.97495
_cell_angle_alpha                 90.27915
_cell_angle_beta                  90.908266
_cell_angle_gamma                 90.003
_cell_volume                      2267.98317829

loop_
_atom_site_label
_atom_site_type_symbol
_atom_type_description
_atom_site_fract_x
_atom_site_fract_y
_atom_site_fract_z
_atom_type_partial_charge
C1    C     C_R   0.383593 0.878064 0.498713 0.866819
C2    C     C_R   0.659324 0.270114 0.471738 0.434053
C3    C     C_R   0.179272 0.248857 0.414434 0.429983
C4    C     C_R   0.180297 0.751513 0.414774 0.439700
C5    C     C_R   0.689826 0.816661 0.506001 -0.217379
C6    C     C_R   0.687024 0.185295 0.496772 -0.190882
C7    C     C_R   0.192912 0.319390 0.499422 -0.158134
C8    C     C_R   0.188151 0.685939 0.510504 -0.228282
C9    C     C_R   0.335037 0.997311 0.146109 -0.123637
C10   C     C_R   0.835160 0.507218 0.145994 -0.122630
C11   C     C_R   0.249612 0.993771 0.085570 -0.214439
C12   C     C_R   0.382433 0.121172 0.499749 0.866441
C13   C     C_R   0.750338 0.517512 0.085518 -0.186424
C14   C     C_R   0.243111 0.993267 0.949052 -0.190608
C15   C     C_R   0.744098 0.519689 0.948950 -0.185831
C16   C     C_R   0.321821 0.996847 0.869052 0.138215
C17   C     C_R   0.822336 0.509970 0.869097 0.140789
C18   C     C_R   0.414684 0.998434 0.928262 0.147479
C19   C     C_R   0.914912 0.505041 0.928336 0.148399
C20   C     C_R   0.417261 0.998536 0.073120 0.047972
C21   C     C_R   0.917403 0.504369 0.073148 0.041085
C22   C     C_R   0.579800 0.001263 0.073678 0.531006
C23   C     C_R   0.881054 0.379979 0.499511 0.883846
C24   C     C_R   0.079596 0.494768 0.073652 0.541250
C25   C     C_R   0.619070 0.120138 0.499954 0.828219
C26   C     C_R   0.622037 0.882256 0.501330 0.833763
C27   C     C_R   0.121820 0.618426 0.502506 0.844341
C28   C     C_R   0.122277 0.382490 0.500218 0.908976
C29   C     C_R   0.579255 0.001411 0.930080 -0.241921
C30   C     C_R   0.078951 0.493844 0.930129 -0.247635
C31   C     C_R   0.421572 0.273157 0.657827 -0.240026
C32   C     C_R   0.416271 0.734623 0.671451 -0.261406
C33   C     C_R   0.922931 0.774191 0.654237 -0.283838
C34   C     C_R   0.883112 0.621680 0.499517 0.854677
C35   C     C_R   0.940172 0.206858 0.548176 -0.227495
C36   C     C_R   0.438145 0.346693 0.734526 0.537914
C37   C     C_R   0.419285 0.680510 0.782383 0.526975
C38   C     C_R   0.935969 0.843361 0.742010 0.521885
C39   C     C_R   0.968480 0.121323 0.555967 0.506915
C40   C     C_R   0.865568 0.902728 0.755235 -0.147567
C41   C     C_R   0.903898 0.057172 0.531893 -0.136389
C42   C     C_R   0.372983 0.411427 0.732699 -0.130711
C43   C     C_R   0.342375 0.631406 0.809383 -0.160001
C44   C     C_R   0.784735 0.895515 0.678386 -0.292271
C45   C     C_R   0.244557 0.185066 0.415347 -0.290448
C46   C     C_R   0.810938 0.077199 0.511760 -0.250013
C47   C     C_R   0.292431 0.403889 0.655258 -0.257218
C48   C     C_R   0.267018 0.630092 0.720750 -0.281407
C49   C     C_R   0.770076 0.825842 0.589278 0.065868
C50   C     C_R   0.780971 0.162757 0.511280 0.058210
C51   C     C_R   0.273768 0.329333 0.579619 0.037488
C52   C     C_R   0.262316 0.684563 0.607345 0.077689
C53   C     C_R   0.339250 0.263697 0.580264 0.050426
C54   C     C_R   0.335039 0.741982 0.590995 0.055090
C55   C     C_R   0.838816 0.763308 0.581507 0.057614
C56   C     C_R   0.249393 0.810433 0.407369 -0.187345
C57   C     C_R   0.846857 0.227791 0.520669 0.047975
C58   C     C_R   0.321663 0.191564 0.499236 -0.130449
C59   C     C_R   0.324286 0.806690 0.495660 -0.183051
C60   C     C_R   0.822258 0.692047 0.498473 -0.173265
C61   C     C_R   0.817303 0.311973 0.499350 -0.155524
C62   C     C_R   0.743168 0.683678 0.419173 -0.202096
C63   C     C_R   0.725612 0.332699 0.473679 -0.216127
C64   C     C_R   0.675507 0.744290 0.423875 0.441837
H1    H     H_    0.233889 0.128744 0.353510 0.150504
H2    H     H_    0.477303 0.771353 0.649747 0.143365
H3    H     H_    0.979529 0.730189 0.642272 0.148141
H4    H     H_    0.991246 0.256307 0.562559 0.147555
H5    H     H_    0.874761 0.956768 0.822056 0.166063
H6    H     H_    0.925787 0.991278 0.530472 0.176282
H7    H     H_    0.386053 0.468324 0.790490 0.161779
H8    H     H_    0.341853 0.591879 0.898065 0.159303
H9    H     H_    0.735957 0.946612 0.689513 0.183991
H10   H     H_    0.763109 0.025523 0.493104 0.163511
H11   H     H_    0.246393 0.457642 0.653067 0.163115
H12   H     H_    0.241759 0.862544 0.336999 0.174155
H13   H     H_    0.213337 0.587532 0.748624 0.185937
H14   H     H_    0.333430 0.999197 0.251866 0.205261
H15   H     H_    0.833131 0.500726 0.251343 0.202608
H16   H     H_    0.187801 0.992301 0.145261 0.170394
H17   H     H_    0.688561 0.521207 0.145069 0.183153
H18   H     H_    0.259103 0.054855 0.713595 0.190266
H19   H     H_    0.258918 0.948267 0.704662 0.189733
H20   H     H_    0.759057 0.550574 0.700080 0.175294
H21   H     H_    0.758896 0.444814 0.721020 0.183754
H22   H     H_    0.557666 0.306800 0.799557 0.332328
H23   H     H_    0.731724 0.627195 0.357994 0.165279
H24   H     H_    0.543939 0.714218 0.834035 0.333528
H25   H     H_    0.060053 0.808052 0.793570 0.333991
H26   H     H_    0.093697 0.150449 0.610371 0.325415
H27   H     H_    0.543041 0.757459 0.394016 0.330327
H28   H     H_    0.530810 0.244466 0.423113 0.330345
H29   H     H_    0.101387 0.188307 0.283613 0.341432
H30   H     H_    0.048679 0.742188 0.377775 0.330827
H31   H     H_    0.713764 0.003035 0.082956 0.313483
H32   H     H_    0.213314 0.486893 0.082736 0.312501
H33   H     H_    0.705466 0.398253 0.455122 0.156968
H34   H     H_    0.174743 0.991603 0.903178 0.190989
H35   H     H_    0.675946 0.524554 0.903022 0.191888
H36   H     H_    0.643734 0.002763 0.876975 0.140402
H37   H     H_    0.143081 0.487351 0.877308 0.129222
H38   H     H_    0.475091 0.225479 0.657081 0.158882
N1    N     N_R   0.498810 0.000000 0.142780 -0.128856
N2    N     N_R   0.998810 0.500000 0.142780 -0.127561
N3    N     N_R   0.498740 1.000000 0.857170 -0.120379
N4    N     N_R   0.998740 0.500000 0.857170 -0.117032
N5    N     N_3   0.300192 0.000889 0.730242 -0.356770
N6    N     N_3   0.800251 0.499268 0.731198 -0.365013
O1    O     O_R   0.408390 0.908380 0.614690 -0.598072
O2    O     O_R   0.591620 0.908390 0.614640 -0.637745
O3    O     O_R   0.091620 0.591610 0.614640 -0.651898
O4    O     O_R   0.091620 0.408390 0.614640 -0.649569
O5    O     O_R   0.591610 0.091610 0.385310 -0.561704
O6    O     O_R   0.591610 0.908390 0.385310 -0.538624
O7    O     O_R   0.091610 0.591610 0.385310 -0.541862
O8    O     O_R   0.091610 0.408390 0.385310 -0.508079
O9    O     O_3   0.517987 0.357826 0.809875 -0.765653
O10   O     O_3   0.495442 0.675220 0.866737 -0.752118
O11   O     O_3   0.016816 0.855046 0.814764 -0.763529
O12   O     O_R   0.408390 0.091620 0.614690 -0.609230
O13   O     O_3   0.058514 0.098539 0.584888 -0.784399
O14   O     O_3   0.595573 0.728976 0.350112 -0.727614
O15   O     O_3   0.569653 0.294837 0.442744 -0.759713
O16   O     O_3   0.100151 0.242422 0.335316 -0.749770
O17   O     O_3   0.104321 0.762591 0.331196 -0.730157
O18   O     O_3   0.661610 0.002382 0.146137 -0.720477
O19   O     O_3   0.161277 0.489956 0.145987 -0.715436
O20   O     O_R   0.908390 0.408380 0.614690 -0.601326
O21   O     O_R   0.908390 0.591620 0.614690 -0.599524
O22   O     O_R   0.408370 0.908380 0.385360 -0.641447
O23   O     O_R   0.408370 0.091620 0.385360 -0.645269
O24   O     O_R   0.908370 0.408380 0.385360 -0.626070
O25   O     O_R   0.908370 0.591620 0.385360 -0.644883
O26   O     O_R   0.591620 0.091610 0.614640 -0.630682
Zn1   Zn    Zn3+2 0.500010 0.000000 0.653130 0.944615
Zn2   Zn    Zn3+2 0.000010 0.500000 0.653130 0.944434
Zn3   Zn    Zn3+2 0.499980 0.000000 0.346870 1.009237
Zn4   Zn    Zn3+2 0.999980 0.500000 0.346870 1.031757

loop_
_geom_bond_atom_site_label_1
_geom_bond_atom_site_label_2
_ccdc_geom_bond_type
C44   C49   A    
C33   C55   A    
C51   C53   A    
C43   H8    S    
C56   H12   S    
C12   O23   A    
O1    Zn1   S    
C36   C42   A    
H29   O16   S    
C4    C8    A    
C29   N3    A    
C39   C41   A    
C20   N1    A    
C2    O15   S    
C28   O4    A    
C9    H14   S    
C4    O17   S    
C22   C29   A    
C3    C7    A    
N1    Zn3   S    
C11   C14   A    
O3    Zn2   S    
C22   O18   S    
C6    C25   S    
O24   Zn4   S    
C13   H17   S    
C60   C62   A    
O6    Zn3   S    
C61   C63   A    
C62   C64   A    
C28   O8    A    
C16   N5    S    
C1    O1    A    
C12   O12   A    
C21   N2    A    
C37   O10   S    
H25   O11   S    
C34   O21   A    
H19   N5    S    
H27   O14   S    
C24   O19   S    
C41   C46   A    
H21   N6    S    
C43   C48   A    
C8    C52   A    
C40   C44   A    
N3    Zn1   S    
C12   C58   S    
N4    Zn2   S    
C27   O3    A    
O25   Zn4   S    
C55   C60   A    
C4    C56   A    
C34   C60   S    
C5    C49   A    
O2    Zn1   S    
C2    C6    A    
O4    Zn2   S    
C32   C54   A    
C52   C54   A    
C14   H34   S    
O8    Zn4   S    
C54   C59   A    
C10   C21   A    
C45   C58   A    
C40   H5    S    
C31   H38   S    
C1    O22   A    
H28   O15   S    
C17   C19   A    
C47   C51   A    
C34   O25   A    
C49   C55   A    
C3    C45   A    
C6    C50   A    
C22   N1    A    
C5    C64   A    
C24   N2    A    
C48   H13   S    
C37   C43   A    
C35   C39   A    
C26   O6    A    
O23   Zn3   S    
C25   O5    A    
O21   Zn2   S    
C9    C20   A    
O7    Zn4   S    
C48   C52   A    
C53   C58   A    
C32   C37   A    
C31   C53   A    
C36   O9    S    
C9    C11   A    
C38   O11   S    
O20   Zn2   S    
C13   C15   A    
C45   H1    S    
H26   O13   S    
C14   C16   A    
C17   N6    S    
H24   O10   S    
C25   O26   A    
C46   H10   S    
C3    O16   S    
C33   H3    S    
C32   H2    S    
H30   O17   S    
C15   C17   A    
C26   O2    A    
C2    C63   A    
C29   H36   S    
C19   C21   A    
C50   C57   A    
C15   H35   S    
C10   C13   A    
C10   H15   S    
C57   C61   A    
O26   Zn1   S    
C62   H23   S    
C46   C50   A    
C33   C38   A    
C39   O13   S    
C56   C59   A    
C35   C57   A    
O12   Zn1   S    
C1    C59   S    
C18   N3    A    
C7    C51   A    
C63   H33   S    
C38   C40   A    
H31   O18   S    
C35   H4    S    
C64   O14   S    
O5    Zn3   S    
C30   H37   S    
C42   H7    S    
H20   N6    S    
N2    Zn4   S    
C23   O24   A    
H22   O9    S    
C18   C20   A    
C42   C47   A    
C44   H9    S    
C24   C30   A    
C11   H16   S    
C7    C28   S    
C47   H11   S    
C5    C26   S    
C19   N4    A    
C23   C61   S    
H32   O19   S    
C16   C18   A    
C8    C27   S    
C31   C36   A    
C41   H6    S    
H18   N5    S    
O22   Zn3   S    
C30   N4    A    
C23   O20   A    
C27   O7    A    
