data_mof_unit_55448.cif
_audit_creation_date              2012-12-10T17:52:00-0500
_audit_creation_method            fapswitch 2.2
_symmetry_space_group_name_H-M    P1
_symmetry_Int_Tables_number       1
_space_group_crystal_system       triclinic
_cell_length_a                    14.665724
_cell_length_b                    14.765892
_cell_length_c                    19.33344
_cell_angle_alpha                 76.704185
_cell_angle_beta                  102.726073
_cell_angle_gamma                 115.276263
_cell_volume                      3648.75828628

loop_
_atom_site_label
_atom_site_type_symbol
_atom_type_description
_atom_site_fract_x
_atom_site_fract_y
_atom_site_fract_z
_atom_type_partial_charge
C1    C     C_R   0.879824 0.312082 0.512258 0.830097
C2    C     C_R   0.120012 0.687754 0.487770 0.823909
C3    C     C_R   0.811382 0.204900 0.528521 -0.050779
C4    C     C_R   0.187065 0.795802 0.482737 -0.049130
C5    C     C_R   0.776711 0.040232 0.601309 -0.168240
C6    C     C_R   0.211792 0.971996 0.450068 -0.165182
C7    C     C_R   0.846160 0.135944 0.576426 -0.178737
C8    C     C_R   0.147391 0.869929 0.454862 -0.155735
C9    C     C_R   0.707360 0.175009 0.503405 -0.164134
C10   C     C_R   0.291241 0.825190 0.507602 -0.182696
C11   C     C_R   0.634913 0.084953 0.535404 0.095440
C12   C     C_R   0.355583 0.927655 0.510316 0.109527
C13   C     C_R   0.671541 0.014758 0.582025 0.126541
C14   C     C_R   0.315780 0.001110 0.476083 0.127095
C15   C     C_R   0.527764 0.061183 0.521138 -0.023110
C16   C     C_R   0.459788 0.959022 0.541688 -0.020398
C17   C     C_R   0.498561 0.893228 0.593535 -0.033687
C18   C     C_R   0.484495 0.134345 0.489006 -0.004197
C19   C     C_R   0.603505 0.921333 0.611340 -0.247638
C20   C     C_R   0.379753 0.102963 0.467861 -0.248205
C21   C     C_R   0.708422 0.655005 0.371646 -0.295057
C22   C     C_R   0.296351 0.352729 0.631629 -0.294200
C23   C     C_R   0.001205 0.502929 0.632149 0.832924
C24   C     C_R   0.998802 0.497104 0.367849 0.817725
C25   C     C_R   0.790873 0.627014 0.392290 0.085927
C26   C     C_R   0.208350 0.370818 0.606477 0.089784
C27   C     C_R   0.722410 0.522984 0.497177 0.037470
C28   C     C_R   0.284567 0.490000 0.508825 0.042919
C29   C     C_R   0.635393 0.547273 0.478717 -0.046286
C30   C     C_R   0.376293 0.474401 0.531147 -0.012449
C31   C     C_R   0.629648 0.614102 0.413927 0.150244
C32   C     C_R   0.380906 0.405032 0.594697 0.145907
C33   C     C_R   0.552168 0.503697 0.519696 0.074953
C34   C     C_R   0.462698 0.524505 0.493138 0.080874
C35   C     C_R   0.462289 0.593650 0.429125 -0.193610
C36   C     C_R   0.554625 0.438685 0.585592 -0.136673
C37   C     C_R   0.544547 0.638035 0.390875 -0.164514
C38   C     C_R   0.470131 0.389306 0.621582 -0.167703
C39   C     C_R   0.034099 0.440574 0.760805 -0.166604
C40   C     C_R   0.967014 0.560382 0.239265 -0.172287
C41   C     C_R   0.031458 0.436147 0.833234 0.172637
C42   C     C_R   0.969696 0.564876 0.166831 0.172388
C43   C     C_R   0.996246 0.500281 0.853458 -0.034246
C44   C     C_R   0.003836 0.499954 0.146514 -0.035532
C45   C     C_R   0.964379 0.569091 0.800686 -0.101055
C46   C     C_R   0.034563 0.430295 0.199219 -0.104148
C47   C     C_R   0.968171 0.573217 0.727460 -0.081440
C48   C     C_R   0.030693 0.426091 0.272450 -0.086487
C49   C     C_R   0.002084 0.507131 0.707782 -0.150244
C50   C     C_R   0.997912 0.492981 0.292204 -0.154923
C51   C     C_R   0.001339 0.500456 0.069994 0.456900
C52   C     C_R   0.998709 0.499818 0.929946 0.457620
Cu1   Cu    Cu3+1 0.081740 0.475680 0.518680 0.974263
Cu2   Cu    Cu3+1 0.918260 0.524320 0.481320 0.981218
H1    H     H_    0.059848 0.390226 0.745371 0.146793
H2    H     H_    0.942098 0.611309 0.254785 0.146842
H3    H     H_    0.540300 0.689786 0.341577 0.150312
H4    H     H_    0.474822 0.338259 0.671194 0.157223
H5    H     H_    0.274959 0.543272 0.462505 0.122875
H6    H     H_    0.732912 0.472244 0.544924 0.166297
H7    H     H_    0.143662 0.332245 0.635700 0.118696
H8    H     H_    0.851540 0.658102 0.359512 0.121980
H9    H     H_    0.705436 0.706969 0.322292 0.148281
H10   H     H_    0.298763 0.299189 0.680158 0.149368
H11   H     H_    0.398873 0.614695 0.406427 0.136344
H12   H     H_    0.621086 0.423946 0.610954 0.170999
H13   H     H_    0.632723 0.871053 0.650483 0.184498
H14   H     H_    0.347548 0.158927 0.444166 0.176527
H15   H     H_    0.321837 0.767524 0.523529 0.148641
H16   H     H_    0.684946 0.223932 0.458997 0.157341
H17   H     H_    0.067131 0.849173 0.435089 0.160525
H18   H     H_    0.926451 0.156841 0.596146 0.155619
H19   H     H_    0.805093 0.987586 0.638089 0.149782
H20   H     H_    0.180368 0.028229 0.425679 0.147756
N1    N     N_R   0.056790 0.584886 0.959819 -0.208414
N2    N     N_R   0.943233 0.415400 0.040104 -0.211162
N3    N     N_R   0.058219 0.585151 0.028796 -0.206493
N4    N     N_R   0.941821 0.415125 0.971133 -0.206383
N5    N     N_R   0.795420 0.560800 0.453240 -0.185612
N6    N     N_R   0.204580 0.439200 0.546760 -0.181425
O1    O     O_R   0.977910 0.338110 0.524620 -0.573356
O2    O     O_R   0.022090 0.661890 0.475380 -0.572261
O3    O     O_R   0.839850 0.379180 0.493080 -0.567759
O4    O     O_R   0.160150 0.620820 0.506920 -0.590575
O5    O     O_R   0.069040 0.479450 0.615630 -0.586003
O6    O     O_R   0.930960 0.520550 0.384370 -0.591500
O7    O     O_R   0.930990 0.520520 0.584090 -0.576301
O8    O     O_R   0.069010 0.479480 0.415910 -0.574166
C53   C     C_3   0.068817 0.364269 0.888252 -0.796764
H21   H     H_    0.130778 0.406851 0.927815 0.250564
H22   H     H_    0.005238 0.306011 0.916504 0.250628
H23   H     H_    0.099318 0.324291 0.863255 0.221209
C54   C     C_3   0.933458 0.637653 0.111918 -0.798048
H24   H     H_    0.871371 0.595739 0.072122 0.250327
H25   H     H_    0.903481 0.678043 0.136968 0.221269
H26   H     H_    0.997499 0.695547 0.083937 0.250669
C55   C     C_2   0.928157 0.637394 0.822208 0.905208
O9    O     O_2   0.865055 0.603023 0.863696 -0.573789
O10   O     O_R   0.966572 0.740950 0.795152 -0.733679
H27   H     H_    0.936013 0.779243 0.813621 0.340297
C56   C     C_2   0.069620 0.361162 0.177608 0.906658
O11   O     O_2   0.133170 0.394966 0.136498 -0.571638
O12   O     O_R   0.029564 0.257479 0.204121 -0.739036
H28   H     H_    0.059423 0.218582 0.185621 0.341604
C57   C     C_2   0.936714 0.646495 0.671995 0.920406
O13   O     O_2   0.995477 0.707130 0.630734 -0.565043
O14   O     O_R   0.839880 0.645817 0.667115 -0.758212
H29   H     H_    0.826995 0.698519 0.626919 0.335479
C58   C     C_2   0.060658 0.351743 0.327835 0.921376
O15   O     O_2   0.001538 0.292200 0.369219 -0.582615
O16   O     O_R   0.156434 0.350060 0.332456 -0.748286
H30   H     H_    0.168193 0.296594 0.372468 0.334077
C59   C     C_2   0.434086 0.802541 0.639161 0.834306
O17   O     O_2   0.361571 0.803244 0.660125 -0.559518
O18   O     O_R   0.458304 0.717344 0.659947 -0.759574
H31   H     H_    0.408939 0.660521 0.690927 0.344438
C60   C     C_2   0.541123 0.245112 0.483045 0.813693
O19   O     O_2   0.601002 0.282518 0.533745 -0.623107
O20   O     O_R   0.524203 0.306506 0.419059 -0.752982
H32   H     H_    0.570527 0.380445 0.418883 0.337758

loop_
_geom_bond_atom_site_label_1
_geom_bond_atom_site_label_2
_ccdc_geom_bond_type
C15   C18   A    
C41   C53   S    
C54   H24   S    
C27   C29   A    
C42   C54   S    
C2    O4    A    
O16   H30   S    
C4    C8    A    
C52   N1    A    
C55   O9    D    
C17   C59   S    
C47   C49   A    
Cu1   Cu2   S    
C57   O14   S    
C56   O11   D    
C22   C32   A    
Cu1   O4    S    
C35   C37   A    
C26   H7    S    
N2    N4    A    
Cu2   N5    S    
C27   N5    A    
C27   H6    S    
C58   O16   S    
C20   H14   S    
Cu2   O7    S    
C36   H12   S    
C43   C52   S    
C23   C49   S    
C35   H11   S    
C1    O1    A    
C15   C16   A    
C29   C33   A    
C33   C36   A    
Cu1   O1    S    
C34   C35   A    
N1    N3    A    
C38   H4    S    
C11   C15   A    
C39   H1    S    
C12   C16   A    
C16   C17   A    
C47   C57   S    
O14   H29   S    
C19   H13   S    
C32   C38   A    
C53   H22   S    
C5    C13   A    
C48   C50   A    
C48   C58   S    
C56   O12   S    
C23   O7    A    
C41   C43   A    
C42   C44   A    
C52   N4    A    
Cu2   O3    S    
C55   O10   S    
C44   C46   A    
C6    H20   S    
C45   C47   A    
C24   C50   S    
C46   C56   S    
C46   C48   A    
C30   C34   A    
C14   C20   A    
Cu1   N6    S    
C9    H16   S    
C39   C41   A    
C7    H18   S    
C5    C7    A    
C13   C19   A    
C6    C8    A    
C40   H2    S    
C26   N6    A    
C31   C37   A    
C1    C3    S    
C2    C4    S    
C51   N3    A    
C3    C9    A    
C6    C14   A    
C21   C31   A    
O10   H27   S    
C33   C34   A    
C51   N2    A    
C53   H23   S    
C43   C45   A    
C18   C60   S    
C10   C12   A    
C44   C51   S    
C39   C49   A    
C12   C14   A    
C54   H26   S    
C9    C11   A    
C23   O5    A    
C2    O2    A    
C4    C10   A    
C36   C38   A    
Cu2   O2    S    
Cu2   O6    S    
C59   O17   D    
C28   H5    S    
C21   C25   A    
C8    H17   S    
C25   N5    A    
C24   O8    A    
O20   H32   S    
C1    O3    A    
C57   O13   D    
C3    C7    A    
C60   O20   S    
C28   C30   A    
C29   C31   A    
C45   C55   S    
C58   O15   D    
C30   C32   A    
C11   C13   A    
C40   C50   A    
C40   C42   A    
C17   C19   A    
Cu1   O8    S    
C18   C20   A    
C25   H8    S    
C5    H19   S    
C28   N6    A    
C21   H9    S    
C22   H10   S    
C10   H15   S    
C54   H25   S    
C22   C26   A    
O12   H28   S    
Cu1   O5    S    
C53   H21   S    
C60   O19   D    
C24   O6    A    
C37   H3    S    
O18   H31   S    
C59   O18   S    
