data_mof_unit_36059.cif
_audit_creation_date              2012-12-11T16:57:19-0500
_audit_creation_method            fapswitch 2.2
_symmetry_space_group_name_H-M    P1
_symmetry_Int_Tables_number       1
_space_group_crystal_system       triclinic
_cell_length_a                    14.506661
_cell_length_b                    16.13499
_cell_length_c                    6.929273
_cell_angle_alpha                 90.000828
_cell_angle_beta                  98.873927
_cell_angle_gamma                 89.999415
_cell_volume                      1602.48524452

loop_
_atom_site_label
_atom_site_type_symbol
_atom_type_description
_atom_site_fract_x
_atom_site_fract_y
_atom_site_fract_z
_atom_type_partial_charge
O1    O     O_R   0.584990 0.413650 0.534420 -0.545382
O2    O     O_R   0.584990 0.586350 0.534420 -0.545458
O3    O     O_R   0.596190 0.585230 0.208380 -0.539091
O4    O     O_R   0.596190 0.414770 0.208380 -0.539044
O5    O     O_R   0.415010 0.586420 0.976930 -0.534141
O6    O     O_R   0.415010 0.413580 0.976930 -0.534082
C1    C     C_R   0.618234 0.614682 0.383774 0.752507
C2    C     C_R   0.618247 0.385329 0.383778 0.752657
O7    O     O_3   0.440560 0.500000 0.319140 -0.370794
V1    V     V_3+5 0.511030 0.500000 0.068070 1.421374
O8    O     O_R   0.403810 0.414840 0.643540 -0.544121
O9    O     O_R   0.403810 0.585160 0.643540 -0.544159
C3    C     C_R   0.381700 0.385815 0.805754 0.761028
C4    C     C_R   0.381699 0.614184 0.805755 0.760903
V2    V     V_3+5 0.488970 0.500000 0.560620 1.400170
O10   O     O_3   0.559440 0.500000 0.859420 -0.382237
H1    H     H_    0.188577 0.806379 0.805662 0.153665
H2    H     H_    0.188576 0.193621 0.805663 0.153665
H3    H     H_    0.319697 0.693885 0.102338 0.161577
H4    H     H_    0.319700 0.306113 0.102338 0.161627
C5    C     C_2   0.312665 0.682185 0.795998 -0.345610
C6    C     C_2   0.312665 0.317814 0.795997 -0.345921
C7    C     C_2   0.288480 0.716201 0.959065 -0.107774
C8    C     C_2   0.288481 0.283798 0.959064 -0.107840
H5    H     H_    0.225924 0.795570 0.254850 0.127729
H6    H     H_    0.225926 0.204430 0.254851 0.127739
C9    C     C_2   0.194945 0.818212 0.111736 -0.336859
C10   C     C_2   0.194946 0.181788 0.111737 -0.336837
C11   C     C_2   0.219635 0.784169 0.949142 -0.130668
C12   C     C_2   0.219635 0.215831 0.949142 -0.130634
H7    H     H_    0.281535 0.705098 0.653231 0.125103
H8    H     H_    0.281533 0.294903 0.653229 0.125172
C13   C     C_R   0.772227 0.675026 0.538374 0.030940
C14   C     C_R   0.772338 0.325039 0.537971 0.030967
C15   C     C_R   0.687653 0.683176 0.411385 -0.196933
C16   C     C_R   0.687653 0.316824 0.411379 -0.196930
C17   C     C_R   0.674804 0.756888 0.298100 0.443621
C18   C     C_R   0.674671 0.243027 0.298421 0.443320
C19   C     C_R   0.741045 0.822632 0.332991 -0.262550
C20   C     C_R   0.740900 0.177270 0.333310 -0.262536
H9    H     H_    0.727558 0.880256 0.253402 0.139614
H10   H     H_    0.727328 0.119589 0.253990 0.139421
C21   C     C_R   0.819896 0.816614 0.479974 -0.160178
C22   C     C_R   0.819874 0.183370 0.479980 -0.160089
C23   C     C_R   0.835402 0.739895 0.573130 0.101896
C24   C     C_R   0.835494 0.260160 0.572759 0.101887
C25   C     C_3   0.863772 0.716156 0.781746 -0.403554
C26   C     C_3   0.864090 0.284077 0.781198 -0.403565
C27   C     C_3   0.795569 0.643818 0.742776 -0.400287
C28   C     C_3   0.795923 0.356443 0.742157 -0.400404
H11   H     H_    0.842547 0.762848 0.884527 0.175505
H12   H     H_    0.842934 0.237509 0.884340 0.175586
H13   H     H_    0.937902 0.696173 0.812965 0.165543
H14   H     H_    0.938242 0.304020 0.811992 0.165542
H15   H     H_    0.736222 0.647583 0.825535 0.171899
H16   H     H_    0.736683 0.352834 0.825248 0.171879
H17   H     H_    0.830878 0.582531 0.749120 0.162312
H18   H     H_    0.831276 0.417703 0.747986 0.162295
O11   O     O_R   0.921430 0.915960 0.371040 -0.536828
O12   O     O_R   0.921430 0.084040 0.371040 -0.536808
O13   O     O_R   0.910450 0.087500 0.697310 -0.543303
O14   O     O_R   0.910450 0.912500 0.697310 -0.543302
O15   O     O_R   0.091710 0.087460 0.928430 -0.540773
O16   O     O_R   0.091710 0.912540 0.928430 -0.540774
C29   C     C_R   0.887898 0.114233 0.519174 0.719404
C30   C     C_R   0.887907 0.885761 0.519175 0.719418
O17   O     O_3   0.065970 0.000000 0.586140 -0.371001
V3    V     V_3+5 0.995640 0.000000 0.837400 1.410291
O18   O     O_R   0.103020 0.915700 0.261710 -0.541747
O19   O     O_R   0.103020 0.084300 0.261710 -0.541745
C31   C     C_R   0.125413 0.885917 0.100375 0.759721
C32   C     C_R   0.125413 0.114083 0.100376 0.759708
V4    V     V_3+5 0.017940 0.000000 0.344880 1.400049
O20   O     O_3   0.947330 1.000000 0.046180 -0.372154
O21   O     O_3   0.590301 0.770957 0.180065 -0.554647
C33   C     C_3   0.602593 0.766192 0.982578 -0.221877
H19   H     H_    0.538833 0.790506 0.891092 0.163032
H20   H     H_    0.610248 0.700630 0.939980 0.142543
H21   H     H_    0.662525 0.803888 0.949413 0.120990
O22   O     O_3   0.590101 0.228970 0.180621 -0.554697
C34   C     C_3   0.602363 0.233555 0.983109 -0.220819
H22   H     H_    0.611709 0.298964 0.941005 0.141478
H23   H     H_    0.537921 0.210553 0.891564 0.162860
H24   H     H_    0.661308 0.194601 0.949625 0.121516

loop_
_geom_bond_atom_site_label_1
_geom_bond_atom_site_label_2
_ccdc_geom_bond_type
C9    C11   D    
O1    C2    A    
C13   C23   A    
V4    O20   S    
O2    C1    A    
C33   H21   S    
O4    C2    A    
C34   H22   S    
C27   H17   S    
C25   C27   S    
C26   H14   S    
C5    H7    S    
C6    H8    S    
C7    C11   S    
C4    C5    S    
C15   C17   A    
C33   H20   S    
O3    C1    A    
O11   C30   A    
V3    O20   S    
V2    O10   S    
O12   V4    S    
H1    C11   S    
C2    C16   S    
O16   C31   A    
O18   C31   A    
O8    V2    S    
H4    C8    S    
O18   V4    S    
O1    V2    S    
O7    V1    S    
O11   V4    S    
C25   H13   S    
C26   C28   S    
C17   O21   S    
C22   C29   S    
C10   C32   S    
C34   H23   S    
C22   C24   A    
C23   C25   S    
C24   C26   S    
C14   C28   S    
O14   C30   A    
O17   V3    S    
C28   H18   S    
C33   H19   S    
C19   H9    S    
C19   C21   A    
C27   H15   S    
C28   H16   S    
H3    C7    S    
O21   C33   S    
O9    V2    S    
C20   C22   A    
O19   V4    S    
O2    V2    S    
C21   C23   A    
O5    C4    A    
C14   C24   A    
O17   V4    S    
O9    C4    A    
O12   C29   A    
C5    C7    D    
H2    C12   S    
C6    C8    D    
O4    V1    S    
C16   C18   A    
O16   V3    S    
C34   H24   S    
C9    C31   S    
O15   V3    S    
C1    C15   S    
O22   C34   S    
O6    V1    S    
C25   H11   S    
H5    C9    S    
H6    C10   S    
O14   V3    S    
C10   C12   D    
O7    V2    S    
O5    V1    S    
C17   C19   A    
O3    V1    S    
V1    O10   S    
O6    C3    A    
C18   C20   A    
O8    C3    A    
O13   V3    S    
C18   O22   S    
C21   C30   S    
C20   H10   S    
C13   C15   A    
C3    C6    S    
C14   C16   A    
C8    C12   S    
O13   C29   A    
C26   H12   S    
O15   C32   A    
O19   C32   A    
C13   C27   S    
