data_mof_unit_67653.cif
_audit_creation_date              2013-03-05T16:47:32-0500
_audit_creation_method            fapswitch 2.2
_symmetry_space_group_name_H-M    P1
_symmetry_Int_Tables_number       1
_space_group_crystal_system       triclinic
_cell_length_a                    10.961165
_cell_length_b                    10.963979
_cell_length_c                    9.849347
_cell_angle_alpha                 99.61787
_cell_angle_beta                  98.760787
_cell_angle_gamma                 92.68108
_cell_volume                      1150.24836949

loop_
_atom_site_label
_atom_site_type_symbol
_atom_site_description
_atom_site_fract_x
_atom_site_fract_y
_atom_site_fract_z
_atom_type_partial_charge
O1    O     O_R   0.517830 0.337490 0.617920 -0.592532
O2    O     O_R   0.482170 0.662510 0.382080 -0.591288
O3    O     O_R   0.482150 0.301790 0.382070 -0.564226
O4    O     O_R   0.517850 0.698210 0.617930 -0.564007
C1    C     C_R   0.499115 0.261755 0.498566 0.823589
C2    C     C_R   0.497926 0.738015 0.500916 0.821343
O5    O     O_R   0.337480 0.517860 0.617920 -0.546675
O6    O     O_R   0.662520 0.482140 0.382080 -0.545195
O7    O     O_R   0.301810 0.482160 0.382070 -0.579264
O8    O     O_R   0.698190 0.517840 0.617930 -0.587141
C3    C     C_R   0.262276 0.505776 0.499852 0.880238
C4    C     C_R   0.737861 0.494421 0.500539 0.864687
Cu1   Cu    Cu3+1 0.521120 0.521140 0.639640 0.978460
Cu2   Cu    Cu3+1 0.478880 0.478860 0.360360 0.982523
H1    H     H_    0.192633 0.449222 0.878312 0.192326
H2    H     H_    0.804268 0.544496 0.121328 0.186906
C5    C     C_R   0.167077 0.564200 0.070304 -0.107456
C6    C     C_R   0.834629 0.432104 0.929725 -0.104811
H3    H     H_    0.204236 0.648674 0.044146 0.191771
H4    H     H_    0.799357 0.346379 0.954867 0.188804
C7    C     C_R   0.122876 0.568180 0.196356 0.286915
C8    C     C_R   0.880768 0.430493 0.805045 0.287663
C9    C     C_R   0.079790 0.457267 0.234934 0.123347
C10   C     C_R   0.921467 0.542761 0.767761 0.133157
C11   C     C_R   0.080017 0.344505 0.143535 -0.136587
C12   C     C_R   0.923001 0.654113 0.862831 -0.168536
H5    H     H_    0.051424 0.258169 0.172482 0.182992
H6    H     H_    0.955339 0.741514 0.839048 0.184607
C13   C     C_R   0.116390 0.343117 0.013579 -0.156155
C14   C     C_R   0.883901 0.653230 0.991134 -0.165757
H7    H     H_    0.108801 0.257851 0.939629 0.188905
H8    H     H_    0.890240 0.737574 0.066777 0.187787
C15   C     C_R   0.161775 0.452158 0.977843 -0.157177
C16   C     C_R   0.837115 0.543195 0.023141 -0.157709
C17   C     C_R   0.917987 0.439683 0.382432 0.226561
C18   C     C_R   0.082671 0.561391 0.619529 0.225602
C19   C     C_R   0.872738 0.490315 0.503849 -0.126992
C20   C     C_R   0.127687 0.510619 0.497891 -0.121047
C21   C     C_R   0.957266 0.540864 0.627439 -0.062566
C22   C     C_R   0.043256 0.460728 0.374740 -0.048905
C23   C     C_R   0.259956 0.082065 0.028842 -0.160382
C24   C     C_R   0.740702 0.911193 0.955082 -0.169820
H9    H     H_    0.165303 0.068892 0.977199 0.149917
H10   H     H_    0.838057 0.920778 0.997579 0.148238
C25   C     C_R   0.290062 0.057433 0.165757 0.247888
C26   C     C_R   0.703762 0.933976 0.819979 0.224576
C27   C     C_R   0.415632 0.073269 0.231062 0.027921
C28   C     C_R   0.576796 0.925949 0.764327 0.045749
C29   C     C_R   0.505724 0.117384 0.160310 -0.111269
C30   C     C_R   0.490061 0.884808 0.840946 -0.120233
H11   H     H_    0.601736 0.130290 0.209041 0.200151
H12   H     H_    0.392828 0.873953 0.797975 0.192602
C31   C     C_R   0.472928 0.148526 0.028562 -0.207653
C32   C     C_R   0.528240 0.856012 0.972861 -0.199461
H13   H     H_    0.544173 0.186382 0.979046 0.153717
H14   H     H_    0.459640 0.823514 0.029470 0.153003
C33   C     C_R   0.349894 0.129491 0.960220 0.230382
C34   C     C_R   0.653448 0.873581 0.033400 0.243356
C35   C     C_R   0.454192 0.913217 0.377481 -0.222432
C36   C     C_R   0.537276 0.085702 0.619669 -0.234081
H15   H     H_    0.422132 0.846643 0.282752 0.175862
H16   H     H_    0.572414 0.151726 0.713983 0.160135
C37   C     C_R   0.494243 0.872090 0.503099 -0.075265
C38   C     C_R   0.497587 0.127214 0.494592 -0.075572
C39   C     C_R   0.533963 0.960028 0.626420 0.026856
C40   C     C_R   0.455856 0.039366 0.370683 -0.007249
H17   H     H_    0.416668 0.422658 0.863934 0.161701
H18   H     H_    0.581243 0.579825 0.136303 0.154842
N1    N     N_2   0.447120 0.447110 0.150550 -0.274603
N2    N     N_2   0.552880 0.552890 0.849450 -0.274968
C41   C     C_2   0.510126 0.510234 0.079425 -0.058939
C42   C     C_2   0.488836 0.491019 0.920722 -0.059754
H19   H     H_    0.619594 0.618665 0.905790 0.215506
H20   H     H_    0.380920 0.380897 0.094146 0.218160
Br1   Br    Br    0.129028 0.726067 0.316142 -0.638637
Br2   Br    Br    0.889571 0.272806 0.689979 -0.626554
Br3   Br    Br    0.815340 0.319096 0.239817 -0.632802
Br4   Br    Br    0.186205 0.680545 0.762687 -0.632656
N3    N     N_2   0.316570 0.169350 0.829316 -0.466753
H21   H     H_    0.388491 0.208947 0.791655 0.248989
C43   C     C_3   0.228135 0.091508 0.721453 -0.612025
H22   H     H_    0.216411 0.133875 0.625793 0.231671
H23   H     H_    0.135922 0.083737 0.753653 0.246901
H24   H     H_    0.261536 0.998084 0.694712 0.241040
N4    N     N_2   0.691601 0.846299 0.169239 -0.461782
H25   H     H_    0.626985 0.797476 0.209065 0.247750
C44   C     C_3   0.765966 0.941837 0.271866 -0.675820
H26   H     H_    0.841952 0.898704 0.330102 0.245748
H27   H     H_    0.708604 0.985855 0.347239 0.242731
H28   H     H_    0.806321 0.015799 0.224046 0.255140
N5    N     N_2   0.194681 0.026366 0.241376 -0.425086
H29   H     H_    0.220517 0.999541 0.336442 0.291257
C45   C     C_3   0.075502 0.973075 0.165320 -0.651476
H30   H     H_    0.025585 0.042631 0.113303 0.213043
H31   H     H_    0.017970 0.944794 0.239258 0.258191
H32   H     H_    0.087072 0.890351 0.087398 0.251069
N6    N     N_2   0.795853 0.961411 0.740353 -0.429647
H33   H     H_    0.784384 0.042315 0.701906 0.303056
C46   C     C_3   0.816881 0.860011 0.633865 -0.658528
H34   H     H_    0.756111 0.863434 0.534103 0.211989
H35   H     H_    0.796512 0.768673 0.662982 0.230167
H36   H     H_    0.914859 0.867785 0.618024 0.259986

loop_
_geom_bond_atom_site_label_1
_geom_bond_atom_site_label_2
_geom_bond_distance
_ccdc_geom_bond_type
C20   C22   1.419845 A    
C44   H26   1.108295 S    
C37   C39   1.415201 A    
C45   H30   1.107985 S    
C33   N3    1.430563 S    
C31   H13   1.083193 S    
C8    Br2   1.917536 S    
C24   C34   1.404961 A    
C43   H22   1.111278 S    
C27   C29   1.404386 A    
N4    H25   1.030233 S    
O5    C3    1.302178 A    
C30   C32   1.395253 A    
C5    C15   1.394675 A    
O1    C1    1.303044 A    
C17   C19   1.403171 A    
C10   C12   1.406722 A    
C35   C40   1.395252 A    
Cu1   N2    2.010448 S    
C9    C22   1.486560 S    
C13   C15   1.392460 A    
O4    Cu1   1.989697 S    
C10   C21   1.490262 S    
C36   H16   1.084208 S    
H17   C42   1.081679 S    
C24   C26   1.397660 A    
C4    C19   1.476767 S    
N1    C41   1.308189 D    
H2    C16   1.080280 S    
C29   H11   1.080487 S    
C30   H12   1.078467 S    
C28   C39   1.482134 S    
C27   C40   1.491684 S    
C28   C30   1.403219 A    
C45   H31   1.105096 S    
Cu1   Cu2   2.676120 S    
C23   H9    1.075495 S    
O2    C2    1.298610 A    
C24   H10   1.078775 S    
O2    Cu2   1.987036 S    
N6    C46   1.448157 S    
N6    H33   1.026748 S    
C32   H14   1.082706 S    
C25   C27   1.417377 A    
C11   C13   1.395375 A    
C26   C28   1.408923 A    
C35   H15   1.084135 S    
C14   C16   1.391509 A    
N4    C44   1.448695 S    
O4    C2    1.291024 A    
N5    H29   1.030757 S    
N3    C43   1.450035 S    
C31   C33   1.401986 A    
C17   Br3   1.935419 S    
C5    C7    1.394690 A    
C1    C38   1.468316 S    
C38   C40   1.422074 A    
C2    C37   1.469093 S    
C3    C20   1.475985 S    
O7    Cu2   1.986079 S    
N5    C45   1.446824 S    
C6    C16   1.394847 A    
C46   H34   1.107189 S    
O6    C4    1.305752 A    
N2    H19   1.027657 S    
N1    H20   1.027296 S    
O7    C3    1.289911 A    
O3    Cu2   1.989697 S    
O8    C4    1.286961 A    
C46   H35   1.108837 S    
C26   N6    1.419869 S    
C36   C39   1.389595 A    
C12   C14   1.396208 A    
C45   H32   1.111545 S    
C44   H27   1.109145 S    
Cu2   N1    2.010448 S    
C8    C10   1.413712 A    
O1    Cu1   1.987036 S    
C34   N4    1.424568 S    
C43   H24   1.107662 S    
C32   C34   1.401362 A    
O6    Cu2   1.989557 S    
C6    C8    1.395304 A    
C12   H6    1.080408 S    
C18   C21   1.398483 A    
O3    C1    1.286368 A    
O8    Cu1   1.986079 S    
C43   H23   1.108204 S    
C11   H5    1.079435 S    
C7    Br1   1.917163 S    
C35   C37   1.402265 A    
C36   C38   1.398805 A    
C7    C9    1.414748 A    
C17   C22   1.397234 A    
C23   C33   1.404099 A    
C41   C42   1.521986 S    
C13   H7    1.076155 S    
C18   Br4   1.934187 S    
C14   H8    1.078448 S    
H18   C41   1.082655 S    
C29   C31   1.395386 A    
C18   C20   1.404135 A    
C5    H3    1.080042 S    
C6    H4    1.080334 S    
C9    C11   1.402837 A    
C25   N5    1.432636 S    
N3    H21   1.028798 S    
O5    Cu1   1.989558 S    
C46   H36   1.109912 S    
C19   C21   1.424900 A    
C44   H28   1.110243 S    
C23   C25   1.412381 A    
N2    C42   1.307837 D    
H1    C15   1.080713 S    
