data_mof_unit_24775.cif
_audit_creation_date              2012-12-10T17:01:14-0500
_audit_creation_method            fapswitch 2.2
_symmetry_space_group_name_H-M    P1
_symmetry_Int_Tables_number       1
_space_group_crystal_system       triclinic
_cell_length_a                    15.689887
_cell_length_b                    15.631471
_cell_length_c                    9.937134
_cell_angle_alpha                 90.003978
_cell_angle_beta                  61.097313
_cell_angle_gamma                 90.001429
_cell_volume                      2133.57601184

loop_
_atom_site_label
_atom_site_type_symbol
_atom_type_description
_atom_site_fract_x
_atom_site_fract_y
_atom_site_fract_z
_atom_type_partial_charge
C1    C     C_R   0.372890 0.118193 0.559662 0.798459
C2    C     C_2   0.489301 0.987989 0.083251 0.241012
C3    C     C_2   0.010709 0.488022 0.916733 0.241163
C4    C     C_2   0.989299 0.487991 0.083254 0.241088
C5    C     C_2   0.283288 0.840121 0.591320 -0.157847
C6    C     C_2   0.704961 0.178666 0.411831 -0.255271
C7    C     C_2   0.716694 0.840089 0.408658 -0.157859
C8    C     C_2   0.295059 0.178697 0.588190 -0.255252
C9    C     C_2   0.783291 0.340116 0.591324 -0.157823
C10   C     C_2   0.204961 0.678664 0.411843 -0.255275
C11   C     C_2   0.216693 0.340091 0.408666 -0.157909
C12   C     C_R   0.628247 0.883710 0.440037 0.824930
C13   C     C_2   0.795062 0.678700 0.588199 -0.255254
C14   C     C_2   0.286861 0.761967 0.529929 0.154099
C15   C     C_2   0.698742 0.226254 0.530620 0.167420
C16   C     C_2   0.713099 0.761979 0.470200 0.154130
C17   C     C_2   0.301239 0.226243 0.469392 0.167471
C18   C     C_2   0.786868 0.261969 0.529907 0.154080
C19   C     C_2   0.198737 0.726250 0.530640 0.167466
C20   C     C_2   0.213096 0.261975 0.470190 0.154037
C21   C     C_2   0.801242 0.726254 0.469411 0.167358
C22   C     C_1   0.639456 0.047225 0.027770 0.382788
C23   C     C_R   0.627116 0.118184 0.440342 0.798452
C24   C     C_1   0.360463 0.047114 0.972315 0.382418
C25   C     C_1   0.139451 0.547231 0.027767 0.382733
C26   C     C_1   0.860449 0.547095 0.972318 0.382548
C27   C     C_3   0.590976 0.218313 0.810429 -0.625241
C28   C     C_3   0.457178 0.722934 0.346753 -0.585487
C29   C     C_3   0.408876 0.218181 0.189558 -0.625134
C30   C     C_3   0.542800 0.723079 0.653726 -0.585387
C31   C     C_3   0.090961 0.718369 0.810469 -0.625297
C32   C     C_3   0.957185 0.222964 0.346672 -0.585453
C33   C     C_3   0.908895 0.718091 0.189614 -0.625088
C34   C     C_R   0.371745 0.883719 0.559960 0.824994
C35   C     C_3   0.042794 0.223066 0.653681 -0.585374
C36   C     C_1   0.791507 0.174579 0.262923 0.258499
C37   C     C_1   0.199542 0.896351 0.645407 0.241364
C38   C     C_1   0.208567 0.174706 0.737177 0.258537
C39   C     C_1   0.800490 0.896275 0.354318 0.241292
C40   C     C_1   0.291516 0.674566 0.262947 0.258511
C41   C     C_1   0.699538 0.396340 0.645452 0.241363
C42   C     C_1   0.708575 0.674712 0.737191 0.258542
C43   C     C_1   0.300483 0.396282 0.354374 0.241318
C44   C     C_3   0.349714 0.889150 0.175804 -0.641141
C45   C     C_R   0.872892 0.618194 0.559662 0.798473
C46   C     C_3   0.650592 0.889450 0.823957 -0.641511
C47   C     C_3   0.849660 0.389193 0.175823 -0.641275
C48   C     C_3   0.150576 0.389438 0.823965 -0.641485
C49   C     C_R   0.128248 0.383711 0.440038 0.824967
C50   C     C_R   0.127116 0.618184 0.440344 0.798443
C51   C     C_R   0.871746 0.383717 0.559960 0.824964
C52   C     C_2   0.510711 0.988021 0.916730 0.241216
Cu1   Cu    Cu3+1 0.522650 0.000000 0.349410 0.966984
Cu2   Cu    Cu3+1 0.477350 0.000000 0.650590 0.966907
Cu3   Cu    Cu3+1 0.022650 0.500000 0.349410 0.966946
Cu4   Cu    Cu3+1 0.977350 0.500000 0.650590 0.966916
H1    H     H_    0.544647 0.244469 0.646440 0.258234
H2    H     H_    0.468713 0.170784 0.137831 0.207926
H3    H     H_    0.428048 0.275511 0.115076 0.233562
H4    H     H_    0.342218 0.189497 0.196874 0.237175
H5    H     H_    0.648812 0.642774 0.491200 0.268548
H6    H     H_    0.484827 0.745799 0.629336 0.241632
H7    H     H_    0.553934 0.771522 0.725056 0.246344
H8    H     H_    0.517082 0.663167 0.721916 0.241362
H9    H     H_    0.044638 0.744461 0.646452 0.258235
H10   H     H_    0.071611 0.775731 0.884917 0.233640
H11   H     H_    0.157620 0.689825 0.803364 0.237233
H12   H     H_    0.571759 0.275668 0.884867 0.233624
H13   H     H_    0.031204 0.670893 0.862107 0.208004
H14   H     H_    0.851056 0.142742 0.509175 0.268522
H15   H     H_    0.015111 0.245690 0.371171 0.241596
H16   H     H_    0.946144 0.271379 0.275218 0.246296
H17   H     H_    0.982911 0.163021 0.278566 0.241374
H18   H     H_    0.955336 0.744436 0.353413 0.258253
H19   H     H_    0.968892 0.670850 0.137827 0.207919
H20   H     H_    0.927838 0.775408 0.115138 0.233569
H21   H     H_    0.842320 0.689178 0.197021 0.237084
H22   H     H_    0.148816 0.142771 0.491150 0.268568
H23   H     H_    0.657597 0.189647 0.803257 0.237191
H24   H     H_    0.984825 0.245783 0.629280 0.241627
H25   H     H_    0.053918 0.271509 0.725023 0.246332
H26   H     H_    0.017079 0.163152 0.721863 0.241360
H27   H     H_    0.347864 0.014594 0.257850 0.258507
H28   H     H_    0.304778 0.857397 0.287495 0.227287
H29   H     H_    0.405726 0.843451 0.096525 0.230166
H30   H     H_    0.300375 0.906236 0.129503 0.219800
H31   H     H_    0.652045 0.014825 0.741912 0.258662
H32   H     H_    0.695114 0.857482 0.712351 0.227394
H33   H     H_    0.594761 0.843852 0.903920 0.230202
H34   H     H_    0.531133 0.170919 0.862111 0.207993
H35   H     H_    0.700381 0.906746 0.869302 0.219841
H36   H     H_    0.847886 0.514607 0.257949 0.258524
H37   H     H_    0.804910 0.357332 0.287459 0.227336
H38   H     H_    0.905631 0.343560 0.096246 0.230184
H39   H     H_    0.800131 0.406339 0.129914 0.219821
H40   H     H_    0.152048 0.514820 0.741934 0.258680
H41   H     H_    0.195128 0.357488 0.712351 0.227390
H42   H     H_    0.094734 0.343830 0.903875 0.230205
H43   H     H_    0.200331 0.406720 0.869380 0.219844
H44   H     H_    0.351027 0.642736 0.509276 0.268532
H45   H     H_    0.515106 0.745644 0.371261 0.241592
H46   H     H_    0.446160 0.771355 0.275287 0.246269
H47   H     H_    0.482888 0.662985 0.278658 0.241381
H48   H     H_    0.455344 0.244410 0.353367 0.258269
N1    N     N_2   0.443290 0.000000 0.876860 -0.243593
N2    N     N_2   0.368693 0.706794 0.489996 -0.460462
N3    N     N_2   0.394424 0.243151 0.339115 -0.408835
N4    N     N_2   0.631201 0.706846 0.510400 -0.460548
N5    N     N_2   0.105520 0.743228 0.660806 -0.408843
N6    N     N_2   0.868711 0.206802 0.489923 -0.460474
N7    N     N_2   0.894424 0.743167 0.339136 -0.408809
N8    N     N_2   0.131203 0.206841 0.510361 -0.460531
N9    N     N_1   0.859779 0.170366 0.142861 -0.263614
N10   N     N_1   0.133117 0.941654 0.688269 -0.264401
N11   N     N_1   0.140340 0.170572 0.857302 -0.263673
N12   N     N_2   0.556710 0.000000 0.123140 -0.243481
N13   N     N_1   0.866955 0.941544 0.311254 -0.264273
N14   N     N_1   0.359795 0.670342 0.142894 -0.263630
N15   N     N_1   0.633108 0.441640 0.688347 -0.264391
N16   N     N_1   0.640352 0.670579 0.857322 -0.263671
N17   N     N_1   0.366943 0.441554 0.311349 -0.264301
N18   N     N_2   0.394168 0.964782 0.199743 -0.387042
N19   N     N_2   0.605891 0.964959 0.800180 -0.387126
N20   N     N_2   0.894161 0.464797 0.199748 -0.387095
N21   N     N_2   0.105888 0.464956 0.800185 -0.387126
N22   N     N_2   0.943290 0.500000 0.876860 -0.243574
N23   N     N_2   0.056710 0.500000 0.123140 -0.243495
N24   N     N_1   0.708866 0.086089 0.949903 -0.333821
N25   N     N_1   0.290985 0.085883 0.050251 -0.333696
N26   N     N_1   0.208854 0.586101 0.949893 -0.333824
N27   N     N_1   0.790957 0.585849 0.050252 -0.333705
N28   N     N_2   0.605530 0.243228 0.660795 -0.408836
O1    O     O_R   0.422430 0.089640 0.419570 -0.575056
O2    O     O_R   0.615830 0.910350 0.326090 -0.574958
O3    O     O_R   0.615830 0.089650 0.326090 -0.575023
O4    O     O_R   0.384170 0.910350 0.673910 -0.575001
O5    O     O_R   0.884170 0.589650 0.673910 -0.575003
O6    O     O_R   0.115830 0.410350 0.326090 -0.574961
O7    O     O_R   0.115830 0.589650 0.326090 -0.575018
O8    O     O_R   0.884170 0.410350 0.673910 -0.574992
O9    O     O_R   0.577570 0.910360 0.580430 -0.554355
O10   O     O_R   0.577570 0.089640 0.580430 -0.575158
O11   O     O_R   0.422430 0.910360 0.419570 -0.554293
O12   O     O_R   0.922430 0.589640 0.419570 -0.575089
O13   O     O_R   0.077570 0.410360 0.580430 -0.554354
O14   O     O_R   0.077570 0.589640 0.580430 -0.575154
O15   O     O_R   0.922430 0.410360 0.419570 -0.554329
O16   O     O_R   0.384170 0.089650 0.673910 -0.574998

loop_
_geom_bond_atom_site_label_1
_geom_bond_atom_site_label_2
_ccdc_geom_bond_type
C31   H10   S    
C40   N14   T    
Cu3   Cu4   S    
C16   C21   S    
Cu4   O5    S    
C5    C37   S    
C15   C18   S    
C1    C8    S    
H1    N28   S    
Cu1   O3    S    
C42   N16   T    
C35   H25   S    
C3    N22   D    
C32   H16   S    
C46   H33   S    
Cu1   Cu2   S    
C31   H11   S    
C48   H41   S    
Cu3   O6    S    
C32   N6    S    
C27   H23   S    
C17   N3    S    
Cu4   O8    S    
C52   N19   S    
C1    O1    A    
C25   N26   T    
C35   H24   S    
C17   C20   S    
Cu3   O7    S    
C12   O9    A    
C4    N20   S    
C27   H34   S    
C10   C40   S    
C26   N22   S    
C44   N18   S    
Cu4   O13   S    
H5    N4    S    
C27   H12   S    
H14   N6    S    
C48   N21   S    
C20   N8    S    
C2    N12   D    
C28   H45   S    
C33   H19   S    
C15   N28   S    
C29   H3    S    
C28   N2    S    
C9    C51   S    
C45   O12   A    
C23   O10   A    
C11   C43   S    
C33   N7    S    
C34   O4    A    
C43   N17   T    
Cu2   N1    S    
Cu1   N12   S    
C51   O8    A    
C50   O14   A    
C19   N5    S    
C6    C15   D    
C12   O2    A    
C30   H7    S    
C27   N28   S    
C8    C38   S    
C44   H30   S    
C36   N9    T    
C24   N25   T    
C13   C42   S    
C21   N7    S    
C35   H26   S    
C32   H15   S    
C46   H32   S    
C2    N18   S    
C31   N5    S    
C7    C12   S    
C34   O11   A    
C11   C20   D    
C49   O13   A    
Cu1   O1    S    
C32   H17   S    
C50   O7    A    
C37   N10   T    
C39   N13   T    
Cu1   O11   S    
C11   C49   S    
C33   H20   S    
C22   N24   T    
C29   H4    S    
C51   O15   A    
C10   C19   D    
Cu2   O4    S    
C5    C34   S    
C45   O5    A    
C47   H37   S    
C13   C21   D    
C41   N15   T    
H9    N5    S    
C5    C14   D    
C2    C52   S    
Cu3   O15   S    
C7    C16   D    
Cu2   O10   S    
Cu3   N23   S    
C52   N1    D    
Cu4   N22   S    
C30   H6    S    
C46   N19   S    
C3    C4    S    
C10   C50   S    
H18   N7    S    
C13   C45   S    
Cu2   O16   S    
C48   H43   S    
C7    C39   S    
Cu3   O12   S    
C4    N23   D    
C30   N4    S    
H44   N2    S    
C14   C19   S    
Cu1   O2    S    
C18   N6    S    
C44   H28   S    
C3    N21   S    
C46   H35   S    
C48   H42   S    
C9    C41   S    
C8    C17   D    
C23   O3    A    
H36   N20   S    
C25   N23   S    
H31   N19   S    
C38   N11   T    
C28   H47   S    
C33   H21   S    
C47   N20   S    
C26   N27   T    
C6    C23   S    
C22   N12   S    
C47   H38   S    
C6    C36   S    
H40   N21   S    
H27   N18   S    
Cu4   O14   S    
C16   N4    S    
C28   H46   S    
C9    C18   D    
C31   H13   S    
Cu2   O9    S    
C29   H2    S    
C30   H8    S    
C14   N2    S    
C47   H39   S    
C29   N3    S    
C1    O16   A    
H22   N8    S    
C24   N1    S    
C49   O6    A    
H48   N3    S    
C35   N8    S    
C44   H29   S    
