data_mof_unit_24413.cif
_audit_creation_date              2012-12-11T14:08:01-0500
_audit_creation_method            fapswitch 2.2
_symmetry_space_group_name_H-M    P1
_symmetry_Int_Tables_number       1
_space_group_crystal_system       triclinic
_cell_length_a                    10.900688
_cell_length_b                    10.970537
_cell_length_c                    18.704539
_cell_angle_alpha                 90.088592
_cell_angle_beta                  89.88799
_cell_angle_gamma                 60.242929
_cell_volume                      1941.84562534

loop_
_atom_site_label
_atom_site_type_symbol
_atom_type_description
_atom_site_fract_x
_atom_site_fract_y
_atom_site_fract_z
_atom_type_partial_charge
C1    C     C_R   0.237749 0.644692 0.609158 0.541082
C2    C     C_2   0.803889 0.096708 0.696324 -0.170715
C3    C     C_2   0.189362 0.656541 0.683009 -0.146402
C4    C     C_R   0.650212 0.615285 0.604480 0.542492
C5    C     C_2   0.200056 0.662314 0.840438 -0.109113
C6    C     C_2   0.224838 0.546810 0.803160 0.106111
C7    C     C_2   0.253982 0.542651 0.725541 -0.146084
C8    C     C_2   0.670795 0.683365 0.331445 -0.082365
C9    C     C_2   0.664301 0.678929 0.169373 -0.119559
C10   C     C_2   0.763221 0.667898 0.215414 -0.132959
C11   C     C_2   0.773209 0.605646 0.284543 0.105964
C12   C     C_3   0.689743 0.534613 0.804659 -0.195128
C13   C     C_2   0.673499 0.139251 0.333385 -0.108998
C14   C     C_2   0.652501 0.146109 0.179040 -0.103888
C15   C     C_2   0.607278 0.077833 0.221784 -0.158665
C16   C     C_R   0.629970 0.223272 0.600277 0.538068
C17   C     C_2   0.590555 0.102847 0.298023 -0.164214
C18   C     C_2   0.120720 0.681960 0.345337 -0.102636
C19   C     C_2   0.112703 0.691579 0.190996 -0.110566
C20   C     C_2   0.041597 0.804478 0.234028 -0.157072
C21   C     C_2   0.074077 0.800583 0.309230 -0.165146
C22   C     C_R   0.726848 0.049186 0.889456 0.554006
C23   C     C_3   0.692975 0.672476 0.815418 0.046441
C24   C     C_R   0.720417 0.687067 0.889975 0.535566
C25   C     C_R   0.120439 0.705851 0.907792 0.537424
C26   C     C_R   0.675699 0.105228 0.105109 0.554624
C27   C     C_R   0.694024 0.689510 0.095633 0.542922
C28   C     C_R   0.215162 0.651612 0.404707 0.559066
C29   C     C_R   0.086143 0.713552 0.115474 0.545529
C30   C     C_R   0.644450 0.625394 0.395211 0.561334
C31   C     C_R   0.621160 0.223037 0.397379 0.555793
C32   C     C_3   0.549620 0.793641 0.788582 -0.259121
C33   C     C_3   0.527858 0.761293 0.711306 -0.265730
C34   C     C_3   0.668268 0.636868 0.680440 0.070114
C35   C     C_3   0.812891 0.676107 0.770581 -0.204876
C36   C     C_3   0.952056 0.292343 0.758993 -0.334283
C37   C     C_3   0.265625 0.303268 0.797256 -0.314457
C38   C     C_3   0.995405 0.393863 0.249879 -0.296287
C39   C     C_3   0.786112 0.674198 0.690164 -0.229267
C40   C     C_3   0.709397 0.497205 0.724201 0.051879
C41   C     C_2   0.680200 0.135868 0.664243 -0.125372
C42   C     C_2   0.717167 0.105209 0.817948 -0.119554
C43   C     C_2   0.825020 0.046835 0.771104 -0.193583
Cr1   Cr    Cr6+3 0.393010 0.398050 0.501480 1.020152
Cr2   Cr    Cr6+3 0.398820 0.707980 0.501630 1.012244
Cr3   Cr    Cr6+3 0.708140 0.393940 0.496850 1.013710
Cr4   Cr    Cr6+3 0.937950 0.938450 0.008940 1.014935
Cr5   Cr    Cr6+3 0.626180 0.937030 0.994750 1.007305
Cr6   Cr    Cr6+3 0.937790 0.625760 0.001410 1.011168
H1    H     H_    0.549588 0.895183 0.790319 0.139733
H2    H     H_    0.460761 0.804957 0.822742 0.121741
H3    H     H_    0.113934 0.759095 0.704262 0.090000
H4    H     H_    0.851948 0.679631 0.197874 0.151332
H5    H     H_    0.577481 0.662420 0.184818 0.087615
H6    H     H_    0.594491 0.791994 0.318638 0.074477
H7    H     H_    0.574698 0.006367 0.200005 0.157373
H8    H     H_    0.498936 0.106103 0.323074 0.154016
H9    H     H_    0.686009 0.217691 0.199361 0.086853
H10   H     H_    0.769862 0.127247 0.309412 0.094835
H11   H     H_    0.969109 0.907301 0.212116 0.158860
H12   H     H_    0.917652 0.585066 0.783947 0.175302
H13   H     H_    0.442962 0.732895 0.710100 0.132151
H14   H     H_    0.078323 0.890006 0.331442 0.151715
H15   H     H_    0.186519 0.587471 0.210699 0.086715
H16   H     H_    0.107714 0.596678 0.324443 0.112642
H17   H     H_    0.491952 0.857890 0.678668 0.134565
H18   H     H_    0.818544 0.772361 0.783402 0.104683
H19   H     H_    0.753266 0.779095 0.666590 0.106704
H20   H     H_    0.763256 0.450090 0.840577 0.141723
H21   H     H_    0.584665 0.550882 0.821818 0.080269
H22   H     H_    0.634396 0.459457 0.710335 0.112803
H23   H     H_    0.885472 0.596870 0.662825 0.161323
H24   H     H_    0.857537 0.329348 0.660764 0.288115
H25   H     H_    0.050103 0.211477 0.732293 0.125014
H26   H     H_    0.905877 0.238189 0.789301 0.161616
H27   H     H_    0.982137 0.351569 0.796202 0.174428
H28   H     H_    0.264090 0.411201 0.889278 0.269614
H29   H     H_    0.247568 0.229152 0.829912 0.137677
H30   H     H_    0.379334 0.251696 0.783122 0.130748
H31   H     H_    0.201619 0.327339 0.747812 0.157808
H32   H     H_    0.822532 0.399076 0.299221 0.265257
H33   H     H_    0.067963 0.285921 0.269308 0.138370
H34   H     H_    0.928985 0.965432 0.788021 0.130443
H35   H     H_    0.052186 0.454217 0.251672 0.147319
H36   H     H_    0.965488 0.387160 0.193853 0.159229
H37   H     H_    0.887098 0.105495 0.669181 0.142077
H38   H     H_    0.615135 0.190682 0.801527 0.109732
H39   H     H_    0.604542 0.112535 0.689874 0.101867
H40   H     H_    0.331754 0.442558 0.702715 0.151532
H41   H     H_    0.219751 0.740254 0.815191 0.070528
N1    N     N_2   0.853524 0.385122 0.705743 -0.506665
N2    N     N_2   0.224636 0.430260 0.837924 -0.485360
N3    N     N_2   0.870925 0.459196 0.295070 -0.474636
O1    O     O_R   0.507110 0.256280 0.580300 -0.525336
O2    O     O_R   0.837080 0.593860 0.915300 -0.520900
O3    O     O_R   0.064770 0.636080 0.932550 -0.480717
O4    O     O_R   0.280830 0.527190 0.577940 -0.498693
O5    O     O_R   0.068250 0.829200 0.092940 -0.511099
O6    O     O_R   0.799650 0.057040 0.080330 -0.500358
O7    O     O_R   0.586130 0.079760 0.077080 -0.508426
O8    O     O_R   0.627700 0.809630 0.066580 -0.496747
O9    O     O_R   0.816140 0.597180 0.075920 -0.513717
O10   O     O_R   0.045360 0.639170 0.081440 -0.505005
O11   O     O_3   0.833980 0.833750 0.001700 -0.265840
O12   O     O_R   0.524640 0.695370 0.425100 -0.502808
O13   O     O_R   0.261360 0.738990 0.584270 -0.520244
O14   O     O_R   0.532590 0.694780 0.574370 -0.513914
O15   O     O_R   0.744470 0.503750 0.577000 -0.525206
O16   O     O_R   0.698520 0.277230 0.571620 -0.512710
O17   O     O_R   0.498530 0.256920 0.419280 -0.511468
O18   O     O_R   0.272880 0.527780 0.428680 -0.496201
O19   O     O_R   0.252780 0.739630 0.423250 -0.512230
O20   O     O_R   0.735890 0.504390 0.415980 -0.488602
O21   O     O_R   0.690560 0.277820 0.422350 -0.506296
O22   O     O_3   0.499990 0.499990 0.499980 -0.251087
O23   O     O_R   0.089190 0.825870 0.932320 -0.528100
O24   O     O_R   0.819070 0.053960 0.931440 -0.487362
O25   O     O_R   0.607070 0.076440 0.916460 -0.520814
O26   O     O_R   0.647110 0.806550 0.917690 -0.520150

loop_
_geom_bond_atom_site_label_1
_geom_bond_atom_site_label_2
_ccdc_geom_bond_type
C22   O24   A    
C12   H20   S    
H28   N2    S    
C40   H22   S    
C18   C21   D    
C43   H34   S    
C39   H19   S    
C19   C20   D    
Cr6   O11   S    
Cr2   O19   S    
C28   O19   A    
C18   H16   S    
C4    O15   A    
C12   C23   S    
Cr4   O5    S    
C29   O5    A    
C34   C40   S    
C3    C7    D    
C5    C6    D    
C2    C41   D    
Cr5   O11   S    
Cr4   O6    S    
C29   O10   A    
C15   C17   S    
C10   H4    S    
C36   H27   S    
Cr1   O22   S    
C33   H13   S    
C37   H30   S    
Cr3   O15   S    
C33   H17   S    
C39   H23   S    
C20   H11   S    
C9    C10   D    
C19   H15   S    
C31   O21   A    
C5    H41   S    
Cr3   O20   S    
C1    O13   A    
C11   N3    S    
Cr6   O3    S    
C38   H33   S    
Cr5   O7    S    
C8    H6    S    
C37   H31   S    
Cr2   O12   S    
C16   O16   A    
Cr5   O26   S    
C28   O18   A    
Cr4   O23   S    
C14   H9    S    
C4    O14   A    
C4    C34   S    
Cr3   O21   S    
C38   H36   S    
C34   C39   S    
C18   C28   S    
H24   N1    S    
C24   O2    A    
C1    O4    A    
Cr6   O9    S    
Cr5   O25   S    
C27   O8    A    
C14   C26   S    
C1    C3    S    
C12   C40   S    
C35   C39   S    
C32   H2    S    
C36   H26   S    
H32   N3    S    
Cr1   O4    S    
Cr2   O22   S    
C35   H18   S    
C2    C43   S    
C23   C24   S    
C33   C34   S    
C35   H12   S    
Cr6   O2    S    
C32   H1    S    
C36   H25   S    
C5    C25   S    
Cr3   O22   S    
C36   N1    S    
C23   C35   S    
C30   O12   A    
C25   O23   A    
C42   C43   D    
C19   C29   S    
Cr2   O13   S    
C9    C27   S    
C22   O25   A    
C41   H39   S    
C12   H21   S    
C24   O26   A    
Cr4   O11   S    
C37   N2    S    
C38   H35   S    
C13   C31   S    
Cr6   O10   S    
C3    H3    S    
C6    C7    S    
C9    H5    S    
C37   H29   S    
C26   O6    A    
C27   O9    A    
C16   O1    A    
C13   C17   D    
C8    C30   S    
C32   C33   S    
Cr1   O17   S    
C23   C32   S    
C22   C42   S    
C8    C11   D    
C6    N2    S    
Cr5   O8    S    
C38   N3    S    
C31   O17   A    
C2    H37   S    
C40   N1    S    
C15   H7    S    
C21   H14   S    
Cr1   O1    S    
C10   C11   S    
Cr1   O18   S    
Cr4   O24   S    
C20   C21   S    
C25   O3    A    
Cr3   O16   S    
C17   H8    S    
C14   C15   D    
C42   H38   S    
C13   H10   S    
C16   C41   S    
Cr2   O14   S    
C26   O7    A    
C30   O20   A    
C7    H40   S    
