data_mof_unit_30359.cif
_audit_creation_date              2012-12-10T20:26:25-0500
_audit_creation_method            fapswitch 2.2
_symmetry_space_group_name_H-M    P1
_symmetry_Int_Tables_number       1
_space_group_crystal_system       triclinic
_cell_length_a                    10.724375
_cell_length_b                    10.708207
_cell_length_c                    9.88133
_cell_angle_alpha                 89.202808
_cell_angle_beta                  89.048748
_cell_angle_gamma                 91.498858
_cell_volume                      1134.09889516

loop_
_atom_site_label
_atom_site_type_symbol
_atom_type_description
_atom_site_fract_x
_atom_site_fract_y
_atom_site_fract_z
_atom_type_partial_charge
C1    C     C_R   0.500401 0.259918 0.500623 0.961902
C2    C     C_R   0.509999 0.127878 0.501777 -0.077163
C3    C     C_R   0.568608 0.068271 0.393132 -0.169845
C4    C     C_R   0.571149 0.938916 0.392240 -0.200969
C5    C     C_R   0.516018 0.871369 0.500629 -0.084948
C6    C     C_R   0.471752 0.931810 0.614257 0.133553
C7    C     C_3   0.346563 0.913187 0.679813 -0.469377
C8    C     C_3   0.338148 0.053293 0.675490 -0.437032
C9    C     C_R   0.410362 0.433822 0.074315 0.170309
C10   C     C_R   0.581164 0.574302 0.069307 -0.126642
C11   C     C_R   0.581089 0.574396 0.925411 -0.095998
C12   C     C_R   0.261974 0.495680 0.500893 0.868035
C13   C     C_R   0.410881 0.433690 0.931733 0.207360
C14   C     C_3   0.388780 0.296211 0.929184 -0.573615
C15   C     C_3   0.387484 0.295799 0.082781 0.258426
C16   C     C_R   0.504460 0.739618 0.499210 0.847359
C17   C     C_R   0.736732 0.511050 0.498559 0.942585
C18   C     C_2   0.934749 0.517073 0.385546 -0.104449
C19   C     C_2   0.866341 0.542850 0.494280 -0.246478
C20   C     C_2   0.068206 0.524942 0.394885 -0.274389
C21   C     C_2   0.129100 0.477542 0.501164 0.289963
C22   C     C_R   0.466995 0.059375 0.614499 0.104879
H1    H     H_    0.333184 0.092446 0.778162 0.222794
H2    H     H_    0.648409 0.632395 0.121450 0.151634
H3    H     H_    0.648228 0.632634 0.869139 0.155844
H4    H     H_    0.297114 0.273089 0.885464 0.271005
H5    H     H_    0.469115 0.246462 0.884826 0.188389
H6    H     H_    0.465760 0.244232 0.127578 0.099815
H7    H     H_    0.117807 0.573046 0.311776 0.182556
H8    H     H_    0.608155 0.121016 0.307702 0.163713
H9    H     H_    0.611328 0.892177 0.305966 0.164497
H10   H     H_    0.277923 0.864852 0.613994 0.204150
H11   H     H_    0.352737 0.873741 0.784101 0.223361
H12   H     H_    0.266888 0.085250 0.603380 0.252827
N1    N     N_R   0.499170 0.499140 0.142800 -0.141562
N2    N     N_R   0.499170 0.499180 0.857150 -0.111531
O1    O     O_R   0.500020 0.316790 0.614690 -0.606864
O2    O     O_R   0.500000 0.316760 0.385350 -0.603790
O3    O     O_R   0.319080 0.500020 0.614640 -0.565047
O4    O     O_R   0.319070 0.499980 0.385300 -0.596927
O5    O     O_R   0.500000 0.683240 0.614650 -0.629822
O6    O     O_R   0.499980 0.683210 0.385310 -0.625254
O7    O     O_R   0.680930 0.500020 0.614700 -0.599422
O8    O     O_R   0.680920 0.499980 0.385360 -0.640693
Zn1   Zn    Zn3+2 0.500010 0.500020 0.653130 1.004314
Zn2   Zn    Zn3+2 0.499990 0.499980 0.346870 0.986228
H13   H     H_    0.894059 0.485217 0.291714 0.200526
S1    S     S_3+6 0.237417 0.252968 0.154741 0.042195
O9    O     O_2   0.144374 0.350751 0.120718 -0.282009
O10   O     O_2   0.194844 0.129825 0.098008 -0.293339
O11   O     O_3   0.247661 0.238334 0.323659 -0.550492
H14   H     H_    0.161905 0.215878 0.355787 0.393200
H15   H     H_    0.907904 0.582272 0.584037 0.185651
S2    S     S_3+6 0.060936 0.376122 0.628596 0.024415
O12   O     O_2   0.018136 0.451152 0.747276 -0.287519
O13   O     O_2   0.952761 0.301299 0.574106 -0.303938
O14   O     O_3   0.168096 0.277020 0.682198 -0.591075
H16   H     H_    0.121684 0.218389 0.744360 0.388704

loop_
_geom_bond_atom_site_label_1
_geom_bond_atom_site_label_2
_ccdc_geom_bond_type
C2    C22   A    
C3    H8    S    
C8    C22   S    
C17   O7    A    
C12   O4    A    
C6    C7    S    
C14   H5    S    
C7    H11   S    
C1    O1    A    
O3    Zn1   S    
C18   H13   S    
C19   H15   S    
C12   O3    A    
S1    O10   D    
C2    C3    A    
C15   H6    S    
C17   O8    A    
N2    Zn1   S    
C8    H12   S    
C13   C14   S    
C14   H4    S    
O4    Zn2   S    
O7    Zn1   S    
O14   H16   S    
C5    C6    A    
C12   C21   S    
C1    O2    A    
C15   S1    S    
C11   N2    A    
C17   C19   S    
O8    Zn2   S    
C18   C19   D    
C18   C20   S    
C20   H7    S    
C9    C15   S    
C21   S2    S    
C10   N1    A    
S2    O13   D    
O2    Zn2   S    
C4    H9    S    
C10   C11   A    
C11   H3    S    
O1    Zn1   S    
C3    C4    A    
C6    C22   A    
C16   O6    A    
C7    C8    S    
C8    H1    S    
C20   C21   D    
C13   N2    A    
C1    C2    S    
O6    Zn2   S    
C9    N1    A    
C9    C13   A    
C14   C15   S    
S1    O9    D    
C5    C16   S    
O5    Zn1   S    
C7    H10   S    
C10   H2    S    
S2    O12   D    
N1    Zn2   S    
C16   O5    A    
S1    O11   S    
O11   H14   S    
C4    C5    A    
S2    O14   S    
