data_mof_unit_58385.cif
_audit_creation_date              2012-12-10T18:05:16-0500
_audit_creation_method            fapswitch 2.2
_symmetry_space_group_name_H-M    P1
_symmetry_Int_Tables_number       1
_space_group_crystal_system       triclinic
_cell_length_a                    9.499853
_cell_length_b                    10.818485
_cell_length_c                    16.962314
_cell_angle_alpha                 89.2875
_cell_angle_beta                  94.269967
_cell_angle_gamma                 89.973826
_cell_volume                      1738.3102243

loop_
_atom_site_label
_atom_site_type_symbol
_atom_type_description
_atom_site_fract_x
_atom_site_fract_y
_atom_site_fract_z
_atom_type_partial_charge
C1    C     C_R   0.499995 0.262028 0.500102 0.771379
C2    C     C_R   0.069104 0.588830 0.459431 -0.034512
C3    C     C_R   0.518030 0.493831 0.651187 0.871940
C4    C     C_R   0.482049 0.497987 0.348672 0.923991
C5    C     C_R   0.530213 0.473939 0.737335 -0.292699
C6    C     C_R   0.470890 0.479448 0.262539 -0.222362
C7    C     C_R   0.435803 0.393341 0.773689 0.219625
C8    C     C_R   0.572025 0.405063 0.228442 0.218918
C9    C     C_R   0.447064 0.377072 0.855887 0.456888
C10   C     C_R   0.557261 0.380824 0.146675 0.359741
C11   C     C_R   0.549617 0.444195 0.902707 0.126674
C12   C     C_R   0.500015 0.737966 0.499970 0.800774
C13   C     C_R   0.450086 0.441737 0.098446 0.172570
C14   C     C_R   0.646518 0.518018 0.866090 -0.358510
C15   C     C_R   0.350188 0.513379 0.133075 -0.355323
C16   C     C_R   0.639757 0.531987 0.783728 0.368419
C17   C     C_R   0.356243 0.529621 0.214993 0.338972
C18   C     C_R   0.372692 0.063866 0.503707 -0.189804
C19   C     C_R   0.627362 0.936132 0.496562 -0.185512
C20   C     C_3   0.586966 0.182832 0.104128 0.060634
C21   C     C_3   0.617388 0.100701 0.177782 -0.372376
C22   C     C_3   0.565803 0.968713 0.163275 -0.896567
C23   C     C_R   0.372662 0.936076 0.503584 -0.181427
C24   C     C_3   0.422283 0.182669 0.908527 0.075101
C25   C     C_3   0.402657 0.092631 0.839501 -0.331581
C26   C     C_3   0.455499 0.963414 0.863849 -0.919990
C27   C     C_3   0.868774 0.567384 0.756884 0.099820
C28   C     C_3   0.961899 0.647601 0.707290 -0.360150
C29   C     C_3   0.115453 0.604692 0.715926 -0.838441
C30   C     C_3   0.124489 0.558736 0.241189 0.084215
C31   C     C_3   0.017017 0.664182 0.239727 -0.362896
C32   C     C_3   0.865991 0.615436 0.236391 -0.893468
C33   C     C_R   0.627373 0.063920 0.496631 -0.176318
C34   C     C_R   0.499999 0.871775 0.500019 -0.010031
C35   C     C_R   0.500034 0.128222 0.500171 -0.012855
C36   C     C_R   0.079886 0.411451 0.540937 -0.022555
C37   C     C_R   0.920178 0.588761 0.459272 -0.037716
C38   C     C_R   0.930992 0.411692 0.541116 -0.021727
Cu1   Cu    Cu3+1 0.640660 0.500020 0.500000 0.964378
Cu2   Cu    Cu3+1 0.359340 0.499980 0.500000 0.943405
H1    H     H_    0.724352 0.569280 0.902327 0.184524
H2    H     H_    0.121142 0.659971 0.427087 0.130990
H3    H     H_    0.753750 0.319854 0.244221 0.352396
H4    H     H_    0.369825 0.302700 0.680219 0.313008
H5    H     H_    0.634888 0.138239 0.053960 0.164725
H6    H     H_    0.470934 0.187464 0.088438 0.123299
H7    H     H_    0.732861 0.098771 0.194147 0.230040
H8    H     H_    0.563048 0.138722 0.227935 0.236861
H9    H     H_    0.450163 0.968100 0.147591 0.258909
H10   H     H_    0.588333 0.911909 0.217749 0.261381
H11   H     H_    0.620849 0.926711 0.114628 0.255738
H12   H     H_    0.269010 0.560294 0.095626 0.186869
H13   H     H_    0.371570 0.141971 0.959689 0.157184
H14   H     H_    0.536832 0.192542 0.926941 0.112700
H15   H     H_    0.288994 0.087460 0.818897 0.249811
H16   H     H_    0.462758 0.126017 0.789743 0.220761
H17   H     H_    0.569404 0.966284 0.884041 0.258168
H18   H     H_    0.441338 0.900768 0.812498 0.269964
H19   H     H_    0.394943 0.925767 0.912287 0.257427
H20   H     H_    0.872769 0.470358 0.735529 0.139035
H21   H     H_    0.911706 0.570625 0.819685 0.140953
H22   H     H_    0.922249 0.643274 0.644076 0.237127
H23   H     H_    0.273211 0.111962 0.506656 0.147715
H24   H     H_    0.956444 0.745289 0.726404 0.223185
H25   H     H_    0.159525 0.614564 0.778043 0.255026
H26   H     H_    0.179126 0.661838 0.677022 0.259427
H27   H     H_    0.123337 0.506494 0.698627 0.286262
H28   H     H_    0.111649 0.498278 0.293665 0.166248
H29   H     H_    0.100704 0.502603 0.187117 0.133643
H30   H     H_    0.036754 0.721326 0.293355 0.212500
H31   H     H_    0.029529 0.724170 0.187033 0.227819
H32   H     H_    0.842286 0.561318 0.181778 0.270765
H33   H     H_    0.790862 0.694119 0.236271 0.251998
H34   H     H_    0.726865 0.888038 0.493678 0.144332
H35   H     H_    0.850981 0.555734 0.288745 0.286386
H36   H     H_    0.273157 0.887932 0.506410 0.145654
H37   H     H_    0.726869 0.112062 0.493783 0.151416
H38   H     H_    0.140405 0.340855 0.574013 0.132930
H39   H     H_    0.859747 0.659795 0.426557 0.124107
H40   H     H_    0.879259 0.341372 0.574385 0.114311
N1    N     N_2   0.558191 0.441794 0.986531 -0.163928
N2    N     N_2   0.440987 0.435991 0.014823 -0.168387
N3    N     N_R   0.852070 0.500030 0.499980 -0.154829
N4    N     N_R   0.147930 0.499970 0.500020 -0.158128
O1    O     O_R   0.618740 0.319660 0.500000 -0.584252
O2    O     O_3   0.333190 0.326430 0.731026 -0.719106
O3    O     O_3   0.650298 0.300752 0.114132 -0.606124
O4    O     O_3   0.354323 0.296987 0.889664 -0.560289
O5    O     O_3   0.729296 0.613896 0.748847 -0.584292
O6    O     O_3   0.262286 0.609423 0.247047 -0.591780
O7    O     O_R   0.381260 0.680340 0.500000 -0.592631
O8    O     O_R   0.381170 0.319630 0.500010 -0.605820
O9    O     O_R   0.618830 0.680370 0.499990 -0.596126
O10   O     O_R   0.631780 0.498870 0.613920 -0.559435
O11   O     O_R   0.368220 0.501130 0.386080 -0.572288
O12   O     O_R   0.394210 0.498840 0.613930 -0.576407
O13   O     O_R   0.605790 0.501160 0.386070 -0.535880
O14   O     O_3   0.680928 0.353615 0.276825 -0.726511

loop_
_geom_bond_atom_site_label_1
_geom_bond_atom_site_label_2
_ccdc_geom_bond_type
C38   N3    A    
Cu2   N4    S    
C12   O7    A    
C2    N4    A    
C25   H16   S    
C23   H36   S    
C30   O6    S    
C32   H35   S    
N1    N2    D    
C32   H32   S    
C11   N1    S    
C37   H39   S    
C28   C29   S    
C36   N4    A    
C27   H20   S    
C9    O4    S    
C30   C31   S    
C11   C14   A    
C18   H23   S    
Cu1   O13   S    
C7    O2    S    
C24   H14   S    
C20   O3    S    
C7    C9    A    
C8    O14   S    
Cu1   O9    S    
C5    C16   A    
C27   H21   S    
C29   H27   S    
C31   H30   S    
H3    O14   S    
C3    O12   A    
C26   H19   S    
C20   H5    S    
C22   H10   S    
C21   H8    S    
C31   H31   S    
C16   O5    S    
C21   C22   S    
Cu2   O12   S    
H4    O2    S    
C1    O1    A    
C10   O3    S    
C18   C23   A    
C24   C25   S    
C4    C6    S    
C19   C33   A    
C32   H33   S    
C5    C7    A    
C6    C8    A    
C25   C26   S    
C13   N2    S    
C19   C34   A    
Cu1   O10   S    
C4    O11   A    
C9    C11   A    
C31   C32   S    
C23   C34   A    
C15   H12   S    
Cu2   O8    S    
C26   H18   S    
C14   H1    S    
C29   H25   S    
C28   H24   S    
C1    O8    A    
C13   C15   A    
C14   C16   A    
C12   O9    A    
Cu1   O1    S    
Cu2   O11   S    
C12   C34   S    
Cu1   Cu2   S    
C30   H29   S    
C1    C35   S    
C18   C35   A    
C22   H9    S    
C15   C17   A    
C6    C17   A    
C24   O4    S    
C19   H34   S    
C17   O6    S    
C25   H15   S    
C3    C5    S    
C10   C13   A    
C36   C38   A    
C24   H13   S    
Cu1   N3    S    
C36   H38   S    
C2    C37   A    
C33   H37   S    
C38   H40   S    
C2    H2    S    
C33   C35   A    
C27   O5    S    
C3    O10   A    
Cu2   O7    S    
C26   H17   S    
C30   H28   S    
C29   H26   S    
C20   C21   S    
C8    C10   A    
C27   C28   S    
C37   N3    A    
C4    O13   A    
C20   H6    S    
C22   H11   S    
C21   H7    S    
C28   H22   S    
