data_mof_unit_10268.cif
_audit_creation_date              2012-12-11T17:22:16-0500
_audit_creation_method            fapswitch 2.2
_symmetry_space_group_name_H-M    P1
_symmetry_Int_Tables_number       1
_space_group_crystal_system       triclinic
_cell_length_a                    20.746247
_cell_length_b                    7.205647
_cell_length_c                    20.389048
_cell_angle_alpha                 88.944796
_cell_angle_beta                  101.856534
_cell_angle_gamma                 90.208679
_cell_volume                      2982.42775017

loop_
_atom_site_label
_atom_site_type_symbol
_atom_type_description
_atom_site_fract_x
_atom_site_fract_y
_atom_site_fract_z
_atom_type_partial_charge
O1    O     O_R   0.807340 0.614490 0.194100 -0.533220
O2    O     O_R   0.192660 0.385510 0.805900 -0.535156
O3    O     O_R   0.692660 0.114490 0.305900 -0.531974
O4    O     O_R   0.307340 0.885510 0.694100 -0.531471
O5    O     O_R   0.672910 0.282300 0.178070 -0.536514
O6    O     O_R   0.327090 0.717700 0.821930 -0.537322
O7    O     O_R   0.827090 0.782300 0.321930 -0.539373
O8    O     O_R   0.172910 0.217700 0.678070 -0.543404
C1    C     C_R   0.649957 0.454993 0.160335 0.692195
C2    C     C_R   0.350035 0.544873 0.839635 0.689288
C3    C     C_R   0.849863 0.952611 0.340339 0.694932
C4    C     C_R   0.150241 0.046978 0.659588 0.688882
O9    O     O_R   0.805620 0.284620 0.186180 -0.532843
O10   O     O_R   0.194380 0.715380 0.813820 -0.530498
O11   O     O_R   0.694380 0.784620 0.313820 -0.532897
O12   O     O_R   0.305620 0.215380 0.686180 -0.534988
O13   O     O_R   0.826310 0.116750 0.314070 -0.535329
O14   O     O_R   0.173690 0.883250 0.685930 -0.531238
O15   O     O_R   0.673690 0.616750 0.185930 -0.537842
O16   O     O_R   0.326310 0.383250 0.814070 -0.539430
C5    C     C_R   0.825202 0.454697 0.171934 0.709492
C6    C     C_R   0.174653 0.545484 0.827910 0.710853
C7    C     C_R   0.675553 0.952191 0.328949 0.703344
C8    C     C_R   0.325307 0.048127 0.671760 0.705671
O17   O     O_3   0.756630 0.448770 0.291950 -0.379642
O18   O     O_3   0.243370 0.551230 0.708050 -0.372210
O19   O     O_3   0.743370 0.948770 0.208050 -0.370156
O20   O     O_3   0.256630 0.051230 0.791950 -0.372718
V1    V     V_3+5 0.748770 0.172970 0.242220 1.389851
V2    V     V_3+5 0.251230 0.827030 0.757780 1.403514
V3    V     V_3+5 0.751230 0.672970 0.257780 1.384192
V4    V     V_3+5 0.248770 0.327030 0.742220 1.392731
H1    H     H_    0.528915 0.274368 0.435586 0.178152
H2    H     H_    0.483322 0.737414 0.574852 0.185274
H3    H     H_    0.949356 0.787771 0.030024 0.198402
H4    H     H_    0.044182 0.209479 0.963023 0.207148
C9    C     C_R   0.471392 0.174847 0.506441 0.448037
C10   C     C_R   0.538035 0.836422 0.502031 0.438718
C11   C     C_R   0.008618 0.670247 0.966347 0.448458
C12   C     C_R   0.974461 0.326197 0.016197 0.466126
C13   C     C_R   0.459288 0.023442 0.547215 -0.034359
C14   C     C_R   0.549900 0.987053 0.461102 -0.039598
C15   C     C_R   0.039885 0.507876 0.950953 -0.053924
C16   C     C_R   0.950814 0.490420 0.039274 -0.046719
C17   C     C_R   0.492904 0.855576 0.544600 -0.321542
C18   C     C_R   0.517843 0.156196 0.465001 -0.328542
C19   C     C_R   0.022397 0.336093 0.976196 -0.311619
C20   C     C_R   0.968308 0.661415 0.014049 -0.307920
C21   C     C_1   0.411526 0.036049 0.590687 0.031048
C22   C     C_1   0.594713 0.970289 0.414943 0.026761
C23   C     C_1   0.088304 0.518259 0.908234 0.012565
C24   C     C_1   0.906898 0.481800 0.086731 0.035556
C25   C     C_1   0.631683 0.959722 0.375948 -0.189549
C26   C     C_1   0.371941 0.042659 0.627260 -0.181166
C27   C     C_1   0.869949 0.469513 0.125856 -0.184217
C28   C     C_1   0.128040 0.531524 0.872058 -0.178279
C29   C     C_R   0.910211 0.956442 0.394829 -0.111991
C30   C     C_R   0.089384 0.035840 0.606037 -0.081090
C31   C     C_R   0.589788 0.475811 0.106598 -0.086596
C32   C     C_R   0.410040 0.522954 0.893456 -0.085549
C33   C     C_R   0.969291 0.012059 0.581304 0.094418
C34   C     C_R   0.023529 0.847471 0.432387 0.079152
C35   C     C_R   0.512062 0.348127 0.929528 0.090101
C36   C     C_R   0.486979 0.647169 0.070642 0.088375
C37   C     C_R   0.029110 0.045059 0.626151 -0.225933
C38   C     C_R   0.965815 0.866035 0.382933 -0.224370
C39   C     C_R   0.460448 0.412961 0.878971 -0.221448
C40   C     C_R   0.539252 0.585271 0.121029 -0.223250
C41   C     C_R   0.090278 0.986208 0.538848 0.025100
C42   C     C_R   0.911013 0.026344 0.459833 0.040440
C43   C     C_R   0.412207 0.568636 0.961155 0.023285
C44   C     C_R   0.587108 0.426099 0.039160 0.024055
C45   C     C_R   0.028891 0.944241 0.493827 0.044450
C46   C     C_R   0.968838 0.997833 0.511754 0.048928
C47   C     C_R   0.474121 0.554707 0.008067 0.045907
C48   C     C_R   0.525099 0.439942 0.992276 0.044647
H5    H     H_    0.963354 0.802660 0.334624 0.133644
H6    H     H_    0.029113 0.065386 0.678711 0.115714
H7    H     H_    0.544004 0.637002 0.171370 0.124871
H8    H     H_    0.455879 0.362562 0.828472 0.124728
O21   O     O_3   0.441221 0.344215 0.510626 -0.538750
C49   C     C_3   0.397707 0.384809 0.449048 0.127215
H9    H     H_    0.359206 0.275531 0.437717 0.108633
H10   H     H_    0.423971 0.395340 0.406724 0.116905
C50   C     C_3   0.364310 0.570728 0.453331 -0.714161
H11   H     H_    0.399445 0.685474 0.450663 0.225740
H12   H     H_    0.321770 0.587517 0.410610 0.168158
H13   H     H_    0.346650 0.579537 0.501037 0.227640
O22   O     O_3   0.567087 0.666176 0.497431 -0.539227
C51   C     C_3   0.625501 0.654669 0.547018 0.120371
H14   H     H_    0.614278 0.658225 0.598128 0.113963
H15   H     H_    0.659845 0.770280 0.541094 0.103903
C52   C     C_3   0.660154 0.472447 0.540169 -0.712051
H16   H     H_    0.671043 0.463334 0.489203 0.222767
H17   H     H_    0.707157 0.464323 0.577764 0.164280
H18   H     H_    0.628448 0.353723 0.548743 0.228822
O23   O     O_3   0.017672 0.839212 0.936056 -0.544944
C53   C     C_3   0.977551 0.843076 0.870760 0.103947
H19   H     H_    0.925180 0.810837 0.871922 0.097995
H20   H     H_    0.995241 0.741610 0.837985 0.123942
C54   C     C_3   0.979952 0.035005 0.838882 -0.753473
H21   H     H_    0.031752 0.075259 0.839212 0.230800
H22   H     H_    0.951941 0.034820 0.786307 0.179683
H23   H     H_    0.956985 0.138699 0.866406 0.210863
O24   O     O_3   0.950240 0.155635 0.032026 -0.541146
C55   C     C_3   0.888093 0.124494 0.989003 0.092700
H24   H     H_    0.894324 0.021390 0.951169 0.143068
H25   H     H_    0.865192 0.250233 0.960774 0.089039
C56   C     C_3   0.839270 0.046323 0.029001 -0.734528
H26   H     H_    0.829569 0.148277 0.065638 0.231690
H27   H     H_    0.791860 0.015637 0.994430 0.170852
H28   H     H_    0.858343 0.917381 0.056601 0.222314
C57   C     C_3   0.855032 0.154376 0.469077 -0.364824
C58   C     C_3   0.864941 0.353883 0.444793 -0.230204
C59   C     C_3   0.907819 0.468027 0.499518 -0.793703
H29   H     H_    0.882847 0.483245 0.542344 0.225782
H30   H     H_    0.956301 0.400382 0.517605 0.235687
H31   H     H_    0.915838 0.608274 0.479422 0.228057
H32   H     H_    0.887329 0.354446 0.399776 0.200569
H33   H     H_    0.816114 0.422920 0.430461 0.187057
H34   H     H_    0.807365 0.099716 0.440996 0.129063
H35   H     H_    0.848410 0.162778 0.521158 0.170932
C60   C     C_3   0.154935 0.999508 0.514193 -0.402377
C61   C     C_3   0.185336 0.194683 0.520698 -0.307687
C62   C     C_3   0.239420 0.214603 0.480536 -0.798679
H36   H     H_    0.280087 0.115925 0.500054 0.237252
H37   H     H_    0.220167 0.187230 0.426665 0.224000
H38   H     H_    0.258766 0.358204 0.485306 0.228645
H39   H     H_    0.146855 0.300829 0.503098 0.207383
H40   H     H_    0.208187 0.223581 0.573211 0.211938
H41   H     H_    0.190741 0.896651 0.541860 0.167889
H42   H     H_    0.146863 0.970214 0.460174 0.194476
C63   C     C_3   0.651898 0.397997 0.015920 -0.410978
C64   C     C_3   0.693970 0.575612 0.021716 -0.288165
C65   C     C_3   0.748474 0.560221 0.981832 -0.805565
H43   H     H_    0.777339 0.431462 0.996455 0.235361
H44   H     H_    0.726995 0.557924 0.927260 0.226241
H45   H     H_    0.782142 0.680646 0.991910 0.223980
H46   H     H_    0.662720 0.697527 0.002351 0.194773
H47   H     H_    0.717152 0.600997 0.074632 0.198440
H48   H     H_    0.680251 0.281908 0.044776 0.173653
H49   H     H_    0.643558 0.363946 0.962504 0.192579
C66   C     C_3   0.347222 0.589991 0.984667 -0.409226
C67   C     C_3   0.306051 0.410380 0.976188 -0.303929
C68   C     C_3   0.251203 0.415248 0.015947 -0.758854
H50   H     H_    0.272518 0.415253 0.070579 0.226049
H51   H     H_    0.220463 0.541438 0.002303 0.238141
H52   H     H_    0.219409 0.290771 0.004657 0.226459
H53   H     H_    0.283003 0.390382 0.922941 0.201351
H54   H     H_    0.337958 0.288341 0.993519 0.195129
H55   H     H_    0.355596 0.618696 0.038638 0.192628
H56   H     H_    0.318345 0.707239 0.957188 0.174153
C69   C     C_3   0.911261 0.948000 0.611068 -0.374851
C70   C     C_3   0.929172 0.779463 0.658872 -0.295886
C71   C     C_3   0.869246 0.706727 0.683986 -0.810153
H57   H     H_    0.848920 0.816776 0.711377 0.229628
H58   H     H_    0.830550 0.660457 0.641310 0.227713
H59   H     H_    0.883967 0.586654 0.718700 0.215153
H60   H     H_    0.949140 0.666515 0.632434 0.203239
H61   H     H_    0.967577 0.816673 0.703032 0.189907
H62   H     H_    0.894194 0.064570 0.638169 0.169241
H63   H     H_    0.870044 0.900781 0.571165 0.177367
C72   C     C_3   0.072567 0.701632 0.420207 -0.379676
C73   C     C_3   0.041258 0.507021 0.407871 -0.287604
C74   C     C_3   0.078140 0.389095 0.366190 -0.777795
H64   H     H_    0.068046 0.441072 0.313448 0.230497
H65   H     H_    0.131926 0.395357 0.386246 0.237192
H66   H     H_    0.061516 0.242510 0.367076 0.229066
H67   H     H_    0.042303 0.436015 0.456868 0.190946
H68   H     H_    0.989009 0.512965 0.381269 0.202038
H69   H     H_    0.092981 0.748500 0.376324 0.181138
H70   H     H_    0.113882 0.683481 0.463878 0.166113
C75   C     C_3   0.547402 0.172441 0.915863 -0.393034
C76   C     C_3   0.500194 0.012910 0.889588 -0.280218
C77   C     C_3   0.538583 0.844548 0.874195 -0.766043
H71   H     H_    0.574991 0.885620 0.843554 0.223170
H72   H     H_    0.564559 0.776486 0.921436 0.231292
H73   H     H_    0.504142 0.744415 0.844899 0.223139
H74   H     H_    0.470765 0.973190 0.927509 0.199363
H75   H     H_    0.465690 0.054723 0.842580 0.192298
H76   H     H_    0.577627 0.206415 0.878088 0.170733
H77   H     H_    0.579781 0.118147 0.962444 0.177211
C78   C     C_3   0.450630 0.821088 0.084228 -0.390289
C79   C     C_3   0.497155 0.983354 0.109107 -0.282539
C80   C     C_3   0.458315 0.151004 0.124259 -0.764428
H78   H     H_    0.431361 0.216391 0.076962 0.231625
H79   H     H_    0.422779 0.109869 0.155883 0.225020
H80   H     H_    0.492607 0.253626 0.152323 0.223174
H81   H     H_    0.532427 0.944266 0.155933 0.192871
H82   H     H_    0.525780 0.022900 0.070478 0.199576
H83   H     H_    0.417144 0.872706 0.037927 0.178227
H84   H     H_    0.421306 0.786279 0.122714 0.171975

loop_
_geom_bond_atom_site_label_1
_geom_bond_atom_site_label_2
_ccdc_geom_bond_type
O17   V3    S    
C65   H45   S    
C43   C47   A    
O1    C5    A    
C52   H16   S    
C60   H42   S    
O19   V1    S    
O13   V1    S    
C45   C46   A    
O3    C7    A    
C72   C73   S    
C29   C38   A    
C44   C48   A    
O15   V3    S    
C78   H84   S    
C58   C59   S    
C44   C63   S    
C65   H43   S    
C77   H72   S    
C50   H11   S    
O7    C3    A    
C10   O22   S    
C63   H49   S    
C74   H64   S    
C36   C40   A    
O9    V1    S    
C73   C74   S    
C10   C14   A    
C56   H27   S    
C68   H50   S    
O4    C8    A    
C80   H79   S    
C71   H58   S    
C35   C48   A    
C41   C60   S    
C8    C26   S    
C66   C67   S    
O23   C53   S    
O1    V3    S    
C79   C80   S    
H4    C19   S    
O2    V4    S    
C23   C28   T    
C14   C18   A    
O3    V1    S    
C76   C77   S    
C10   C17   A    
C67   H54   S    
C36   C78   S    
C73   H68   S    
C1    O15   A    
C80   H78   S    
C57   H35   S    
C34   C72   S    
C32   C39   A    
C2    O16   A    
C59   H30   S    
C42   C46   A    
C62   H38   S    
C34   C45   A    
C41   C45   A    
O14   V2    S    
C29   C42   A    
C72   H69   S    
C21   C26   T    
C58   H32   S    
C24   C27   T    
C31   C44   A    
C4    C30   S    
C16   C24   S    
C40   H7    S    
C66   H55   S    
C75   H76   S    
O12   C8    A    
C71   H59   S    
H1    C18   S    
C9    O21   S    
C73   H67   S    
O10   V2    S    
H3    C20   S    
C13   C21   S    
C68   H51   S    
C35   C75   S    
C77   H73   S    
O5    V1    S    
C50   H12   S    
C42   C57   S    
C52   H17   S    
C35   C39   A    
C22   C25   T    
O7    V3    S    
C70   H61   S    
C34   C38   A    
C61   H40   S    
O8    V4    S    
C54   H21   S    
C60   C61   S    
C56   H28   S    
C64   H46   S    
C5    C27   S    
O18   V4    S    
C80   H80   S    
C11   C15   A    
C32   C43   A    
C75   C76   S    
C12   C19   A    
O21   C49   S    
C78   H83   S    
C1    C31   S    
C2    C32   S    
C47   C48   A    
C78   C79   S    
O2    C6    A    
C67   H53   S    
C31   C40   A    
C30   C37   A    
C51   H15   S    
C77   H71   S    
O8    C4    A    
C59   H31   S    
O9    C5    A    
H2    C17   S    
C72   H70   S    
C70   C71   S    
C14   C22   S    
C66   H56   S    
O6    V2    S    
C75   H77   S    
C53   H19   S    
C52   H18   S    
C49   H10   S    
C62   H36   S    
C79   H82   S    
C49   C50   S    
C76   H75   S    
C68   H52   S    
C51   C52   S    
C43   C66   S    
C57   C58   S    
O16   V4    S    
C50   H13   S    
C65   H44   S    
C38   H5    S    
C3    O13   A    
C37   H6    S    
C60   H41   S    
C39   H8    S    
O5    C1    A    
C67   C68   S    
C11   C20   A    
C33   C69   S    
O6    C2    A    
C6    C28   S    
C30   C41   A    
O11   V3    S    
C64   C65   S    
C33   C46   A    
O12   V4    S    
C53   C54   S    
O24   C55   S    
C63   H48   S    
C74   H66   S    
C54   H22   S    
C69   H63   S    
O10   C6    A    
O20   V2    S    
O22   C51   S    
C70   H60   S    
C56   H26   S    
C64   H47   S    
C15   C23   S    
C51   H14   S    
C63   C64   S    
C55   H25   S    
C69   H62   S    
C7    C25   S    
O11   C7    A    
C36   C47   A    
C61   H39   S    
C9    C13   A    
C53   H20   S    
O4    V2    S    
C11   O23   S    
C33   C37   A    
C12   C16   A    
C57   H34   S    
C74   H65   S    
C49   H9    S    
C55   H24   S    
C4    O14   A    
C71   H57   S    
C62   H37   S    
C13   C17   A    
C79   H81   S    
C61   C62   S    
C54   H23   S    
C59   H29   S    
C9    C18   A    
C3    C29   S    
C15   C19   A    
C76   H74   S    
C58   H33   S    
C16   C20   A    
C12   O24   S    
C69   C70   S    
C55   C56   S    
