data_mof_unit_48457.cif
_audit_creation_date              2012-12-10T20:35:51-0500
_audit_creation_method            fapswitch 2.2
_symmetry_space_group_name_H-M    P1
_symmetry_Int_Tables_number       1
_space_group_crystal_system       triclinic
_cell_length_a                    15.718556
_cell_length_b                    10.656114
_cell_length_c                    9.933312
_cell_angle_alpha                 89.754353
_cell_angle_beta                  89.635987
_cell_angle_gamma                 90.667941
_cell_volume                      1663.6546313

loop_
_atom_site_label
_atom_site_type_symbol
_atom_type_description
_atom_site_fract_x
_atom_site_fract_y
_atom_site_fract_z
_atom_type_partial_charge
C1    C     C_R   0.498497 0.260376 0.500365 0.876684
C2    C     C_3   0.949789 0.471089 0.643029 -0.396009
C3    C     C_3   0.917444 0.501063 0.499640 0.371094
C4    C     C_3   0.952296 0.631467 0.455593 -0.402413
C5    C     C_3   0.050487 0.631378 0.456329 -0.400721
C6    C     C_1   0.825955 0.501020 0.499024 -0.131943
C7    C     C_1   0.174107 0.500802 0.501110 -0.134265
C8    C     C_1   0.249486 0.500507 0.501053 -0.197904
C9    C     C_R   0.521360 0.063797 0.614010 0.135008
C10   C     C_R   0.490614 0.128393 0.503085 -0.099223
C11   C     C_R   0.448607 0.064564 0.399373 -0.229261
C12   C     C_R   0.338435 0.500079 0.500398 0.904911
C13   C     C_R   0.448222 0.934580 0.399577 -0.226035
C14   C     C_R   0.491079 0.871320 0.502177 -0.096134
C15   C     C_R   0.522092 0.935918 0.612999 0.137209
C16   C     C_3   0.608329 0.930548 0.675010 -0.505484
C17   C     C_3   0.607205 0.072679 0.677418 -0.482338
C18   C     C_R   0.442944 0.428012 0.071611 0.130980
C19   C     C_R   0.554876 0.575443 0.068516 0.127175
C20   C     C_R   0.555548 0.572028 0.925426 -0.146932
C21   C     C_R   0.446321 0.421681 0.929523 0.184443
C22   C     C_3   0.352008 0.420125 0.917504 -0.524232
C23   C     C_R   0.498669 0.739587 0.499890 0.867039
C24   C     C_3   0.347914 0.444571 0.068079 -0.145889
C25   C     C_R   0.661574 0.500286 0.499586 0.900433
C26   C     C_3   0.048004 0.470989 0.643667 -0.400442
C27   C     C_3   0.048929 0.400493 0.401632 -0.402123
C28   C     C_3   0.950754 0.400573 0.401005 -0.393682
C29   C     C_1   0.750556 0.500739 0.498910 -0.194699
C30   C     C_3   0.082639 0.500928 0.500718 0.375200
H1    H     H_    0.925096 0.377736 0.676836 0.165166
H2    H     H_    0.071848 0.541979 0.716649 0.164832
H3    H     H_    0.926213 0.542169 0.715672 0.165161
H4    H     H_    0.929507 0.654990 0.352732 0.164544
H5    H     H_    0.419280 0.114568 0.316909 0.160297
H6    H     H_    0.417784 0.884305 0.318169 0.154728
H7    H     H_    0.606621 0.887355 0.776760 0.198077
H8    H     H_    0.657164 0.891965 0.605522 0.192444
H9    H     H_    0.604068 0.111808 0.780885 0.207993
H10   H     H_    0.655836 0.117154 0.610163 0.195024
H11   H     H_    0.598760 0.632140 0.868555 0.147709
H12   H     H_    0.327322 0.497114 0.853531 0.229447
H13   H     H_    0.327525 0.325529 0.889595 0.176634
H14   H     H_    0.313271 0.370342 0.126175 0.162385
H15   H     H_    0.073350 0.420059 0.298166 0.158944
H16   H     H_    0.071667 0.305905 0.431605 0.164049
H17   H     H_    0.927900 0.420255 0.297259 0.165713
H18   H     H_    0.074368 0.705117 0.526076 0.165592
H19   H     H_    0.074978 0.654772 0.353891 0.176140
H20   H     H_    0.928722 0.705219 0.525074 0.164509
N1    N     N_R   0.499430 0.499140 0.142800 -0.130428
N2    N     N_R   0.499430 0.499180 0.857150 -0.115036
O1    O     O_R   0.500010 0.316790 0.614690 -0.610851
O2    O     O_R   0.500000 0.316760 0.385350 -0.617321
O3    O     O_R   0.377150 0.500020 0.614720 -0.619594
O4    O     O_R   0.377140 0.499990 0.385380 -0.631940
O5    O     O_R   0.500000 0.683240 0.614650 -0.615755
O6    O     O_R   0.499990 0.683210 0.385310 -0.639908
O7    O     O_R   0.622860 0.500010 0.614620 -0.612553
O8    O     O_R   0.622850 0.499980 0.385280 -0.635906
Zn1   Zn    Zn3+2 0.500010 0.500020 0.653130 0.937071
Zn2   Zn    Zn3+2 0.499990 0.499980 0.346870 0.917324
C31   C     C_3   0.611288 0.674337 0.131585 -0.386604
C32   C     C_3   0.575885 0.806082 0.107119 -0.361911
C33   C     C_3   0.628929 0.906380 0.178291 -0.866752
H21   H     H_    0.629701 0.888610 0.288542 0.264932
H22   H     H_    0.695240 0.906835 0.138977 0.251501
H23   H     H_    0.600953 0.000094 0.160031 0.255869
H24   H     H_    0.575555 0.827424 0.997808 0.205062
H25   H     H_    0.509227 0.810072 0.144251 0.233652
H26   H     H_    0.618286 0.661203 0.239664 0.267718
H27   H     H_    0.676381 0.668162 0.087730 0.166953
H28   H     H_    0.070712 0.377578 0.677720 0.163714
C34   C     C_3   0.319045 0.580563 0.097054 -0.316902
C35   C     C_3   0.221810 0.588868 0.098455 -0.363397
C36   C     C_3   0.193071 0.722796 0.125069 -0.928196
H29   H     H_    0.215111 0.754314 0.225594 0.261567
H30   H     H_    0.218928 0.787484 0.046521 0.263409
H31   H     H_    0.122536 0.726423 0.122760 0.246935
H32   H     H_    0.196144 0.557739 0.999906 0.224051
H33   H     H_    0.195338 0.526304 0.178506 0.221414
H34   H     H_    0.343787 0.614241 0.194215 0.237668
H35   H     H_    0.345743 0.646620 0.020106 0.190351
H36   H     H_    0.926084 0.306023 0.430726 0.164024

loop_
_geom_bond_atom_site_label_1
_geom_bond_atom_site_label_2
_ccdc_geom_bond_type
O6    Zn2   S    
C23   O6    A    
C28   H17   S    
C26   H2    S    
C28   H36   S    
C18   C21   A    
C19   C20   A    
C36   H31   S    
C34   H35   S    
C35   C36   S    
C3    C6    S    
C20   H11   S    
C7    C8    T    
C18   C24   S    
C3    C28   S    
C36   H30   S    
N2    Zn1   S    
C15   C16   S    
C26   H28   S    
O8    Zn2   S    
C17   H9    S    
C1    O1    A    
O1    Zn1   S    
C19   C31   S    
C16   C17   S    
C33   H22   S    
C25   O8    A    
C32   H25   S    
C9    C10   A    
C16   H7    S    
C27   H15   S    
C7    C30   S    
C21   C22   S    
C27   C30   S    
C5    H19   S    
N1    Zn2   S    
C34   H34   S    
C18   N1    A    
C25   C29   S    
C5    H18   S    
C4    H4    S    
O7    Zn1   S    
C34   C35   S    
C36   H29   S    
C13   H6    S    
C35   H33   S    
O2    Zn2   S    
C4    H20   S    
C2    H1    S    
C17   H10   S    
C14   C23   S    
C1    O2    A    
C22   H13   S    
C8    C12   S    
C33   H23   S    
C2    C26   S    
C32   H24   S    
C12   O4    A    
C2    H3    S    
C9    C17   S    
C31   H26   S    
C26   C30   S    
C24   H14   S    
C22   C24   S    
C3    C4    S    
C27   H16   S    
C5    C30   S    
C35   H32   S    
C23   O5    A    
C1    C10   S    
C4    C5    S    
O5    Zn1   S    
C32   C33   S    
C11   H5    S    
C2    C3    S    
C9    C15   A    
C20   N2    A    
C11   C13   A    
C24   C34   S    
C22   H12   S    
O3    Zn1   S    
O4    Zn2   S    
C12   O3    A    
C10   C11   A    
C31   C32   S    
C19   N1    A    
C6    C29   T    
C31   H27   S    
C33   H21   S    
C27   C28   S    
C14   C15   A    
C25   O7    A    
C13   C14   A    
C21   N2    A    
C16   H8    S    
