data_mof_unit_68396.cif
_audit_creation_date              2013-03-05T15:40:58-0500
_audit_creation_method            fapswitch 2.2
_symmetry_space_group_name_H-M    P1
_symmetry_Int_Tables_number       1
_space_group_crystal_system       triclinic
_cell_length_a                    11.060845
_cell_length_b                    8.915991
_cell_length_c                    7.877045
_cell_angle_alpha                 102.508451
_cell_angle_beta                  96.871048
_cell_angle_gamma                 92.633321
_cell_volume                      750.864299408

loop_
_atom_site_label
_atom_site_type_symbol
_atom_site_description
_atom_site_fract_x
_atom_site_fract_y
_atom_site_fract_z
_atom_type_partial_charge
O1    O     O_R   0.509140 0.286130 0.619770 -0.557445
O2    O     O_R   0.485380 0.256770 0.308360 -0.534501
C1    C     C_R   0.498010 0.202920 0.455536 0.860257
O3    O     O_R   0.329570 0.514650 0.655700 -0.562879
O4    O     O_R   0.305810 0.485300 0.344290 -0.500460
C2    C     C_R   0.261684 0.513068 0.500474 0.903073
Cu1   Cu    Cu3+1 0.514070 0.517380 0.684380 1.047859
Cu2   Cu    Cu3+1 0.485930 0.482620 0.315620 1.104419
O5    O     O_R   0.514620 0.743230 0.691640 -0.572688
O6    O     O_R   0.490860 0.713870 0.380230 -0.653991
O7    O     O_R   0.694190 0.514700 0.655710 -0.618724
O8    O     O_R   0.670430 0.485350 0.344300 -0.548114
C3    C     C_R   0.503865 0.797496 0.543336 0.875596
C4    C     C_R   0.737471 0.493533 0.499628 0.816175
C5    C     C_3   0.081669 0.433436 0.635858 -0.262874
H1    H     H_    0.131425 0.327051 0.611005 0.256250
C6    C     C_3   0.938138 0.384706 0.606364 0.278270
C7    C     C_3   0.073758 0.701724 0.545995 0.552865
C8    C     C_3   0.049866 0.426808 0.323389 0.074507
C9    C     C_3   0.121261 0.526252 0.501559 -0.276644
H2    H     H_    0.061454 0.304359 0.329124 0.160653
C10   C     C_3   0.875328 0.503937 0.501127 -0.165023
C11   C     C_3   0.928616 0.683555 0.575100 0.080626
C12   C     C_3   0.910489 0.444030 0.309160 0.086297
H3    H     H_    0.869848 0.325263 0.255144 0.195276
C13   C     C_2   0.478239 0.036889 0.432955 -0.025257
C14   C     C_2   0.528742 0.962558 0.557856 0.079360
N1    N     N_2   0.464720 0.456420 0.038520 0.036593
N2    N     N_2   0.535280 0.543580 0.961480 -0.070891
C15   C     C_3   0.133966 0.508578 0.821191 -0.562322
H4    H     H_    0.061235 0.537581 0.896055 0.272290
H5    H     H_    0.193278 0.431216 0.873985 0.315346
H6    H     H_    0.193124 0.613355 0.848055 0.267343
N3    N     N_R   0.859691 0.522411 0.174491 0.099849
O9    O     O_R   0.763154 0.456707 0.069098 -0.388428
O10   O     O_R   0.922343 0.629947 0.128905 -0.369429
N4    N     N_R   0.099005 0.776677 0.403242 0.206424
O11   O     O_R   0.213367 0.802809 0.391647 -0.342867
O12   O     O_R   0.025613 0.863905 0.335994 -0.254697
C16   C     C_3   0.842274 0.788859 0.489353 -0.611267
H7    H     H_    0.750056 0.781497 0.529167 0.153315
H8    H     H_    0.874903 0.910256 0.536701 0.300648
H9    H     H_    0.825297 0.765756 0.346947 0.275294
C17   C     C_3   0.388146 0.967584 0.269097 -0.630285
H10   H     H_    0.300727 0.023460 0.279561 0.273396
H11   H     H_    0.423622 0.993280 0.151998 0.252390
H12   H     H_    0.366649 0.843104 0.234760 0.277106
C18   C     C_3   0.637571 0.033965 0.693024 -0.810695
H13   H     H_    0.665556 0.959369 0.784602 0.230630
H14   H     H_    0.716168 0.049944 0.624627 0.242449
H15   H     H_    0.624571 0.145806 0.775259 0.307760
N5    N     N_R   0.439892 0.305423 0.943042 0.289969
O13   O     O_R   0.500162 0.196596 0.990360 -0.338094
O14   O     O_R   0.344178 0.267200 0.825991 -0.314834
C19   C     C_3   0.585412 0.692766 0.059662 -0.292358
H16   H     H_    0.653082 0.737288 0.986296 0.174322
H17   H     H_    0.512814 0.772387 0.070373 0.159093
H18   H     H_    0.635306 0.687177 0.186909 0.204962
N6    N     N_R   0.916324 0.223613 0.503022 0.073386
O15   O     O_R   0.807002 0.169879 0.427166 -0.444068
O16   O     O_R   0.995324 0.124873 0.528352 -0.307636
C20   C     C_3   0.885070 0.371316 0.773656 -0.568606
H19   H     H_    0.872232 0.485137 0.846204 0.270759
H20   H     H_    0.794663 0.306252 0.745012 0.239690
H21   H     H_    0.944025 0.308202 0.853528 0.270939
N7    N     N_R   0.146137 0.806984 0.702186 0.093373
O17   O     O_R   0.107088 0.942068 0.758134 -0.264521
O18   O     O_R   0.264215 0.802382 0.727827 -0.343863
C21   C     C_3   0.912188 0.748039 0.774303 -0.691674
H22   H     H_    0.825598 0.710565 0.812174 0.238934
H23   H     H_    0.987239 0.733548 0.870564 0.270952
H24   H     H_    0.907452 0.875143 0.807187 0.256591
N8    N     N_R   0.099660 0.436666 0.165818 0.135615
O19   O     O_R   0.153087 0.566882 0.157859 -0.322686
O20   O     O_R   0.129838 0.308778 0.070277 -0.353080

loop_
_geom_bond_atom_site_label_1
_geom_bond_atom_site_label_2
_geom_bond_distance
_ccdc_geom_bond_type
C14   C18   1.522254 S    
C21   H24   1.111606 S    
N7    O18   1.301390 A    
C19   H16   1.107856 S    
C16   H7    1.105610 S    
C20   H19   1.076121 S    
Cu1   N2    2.127320 S    
N3    O9    1.300885 A    
C7    C11   1.654186 S    
C6    C20   1.530389 S    
O4    Cu2   2.032350 S    
C1    C13   1.455236 S    
C2    C9    1.563910 S    
N8    O19   1.295540 A    
C11   C21   1.585170 S    
C7    C9    1.651850 S    
C8    C9    1.584576 S    
C15   H6    1.081998 S    
C17   H12   1.091706 S    
C20   H20   1.106078 S    
Cu2   O8    2.024582 S    
C4    C10   1.521846 S    
C18   H14   1.095563 S    
N7    O17   1.301841 A    
O8    C4    1.338460 A    
C13   C17   1.526763 S    
N6    O15   1.303302 A    
N4    O12   1.295387 A    
N5    O13   1.296707 A    
C15   H5    1.086115 S    
N1    N5    1.389801 S    
C13   C14   1.379916 D    
N4    O11   1.293242 A    
C18   H15   1.091006 S    
C6    N6    1.482748 S    
O3    Cu1   2.024583 S    
O4    C2    1.354953 A    
C3    C14   1.461862 S    
O3    C2    1.353125 A    
C18   H13   1.109888 S    
C8    H2    1.115003 S    
C7    N4    1.473950 S    
C17   H11   1.107770 S    
C8    C12   1.549395 S    
N3    O10   1.294635 A    
C21   H22   1.095471 S    
C19   H17   1.094768 S    
C15   H4    1.062247 S    
Cu2   N1    2.127320 S    
O7    C4    1.350929 A    
C10   C12   1.591551 S    
N6    O16   1.297485 A    
C7    N7    1.493497 S    
N8    O20   1.304354 A    
C5    H1    1.110956 S    
Cu1   O5    2.001777 S    
C21   H23   1.087390 S    
C8    N8    1.434579 S    
C12   H3    1.104427 S    
C16   H8    1.094503 S    
C5    C15   1.501120 S    
Cu2   O6    2.010372 S    
Cu1   Cu2   2.831129 S    
C19   H18   1.097049 S    
C5    C6    1.602429 S    
C11   C16   1.566049 S    
O5    C3    1.352698 A    
C10   C11   1.636622 S    
N1    N2    1.357628 D    
Cu1   O7    2.032350 S    
O2    C1    1.342600 A    
N2    C19   1.434884 S    
C20   H21   1.107540 S    
O1    Cu1   2.010372 S    
C16   H9    1.087178 S    
O2    Cu2   2.001777 S    
C17   H10   1.111523 S    
C6    C10   1.616081 S    
N5    O14   1.297782 A    
C5    C9    1.566035 S    
O1    C1    1.333013 A    
O6    C3    1.326006 A    
C12   N3    1.464229 S    
