data_mof_unit_64678.cif
_audit_creation_date              2012-12-10T18:53:54-0500
_audit_creation_method            fapswitch 2.2
_symmetry_space_group_name_H-M    P1
_symmetry_Int_Tables_number       1
_space_group_crystal_system       triclinic
_cell_length_a                    19.43959
_cell_length_b                    19.470639
_cell_length_c                    19.438666
_cell_angle_alpha                 85.095075
_cell_angle_beta                  95.295269
_cell_angle_gamma                 90.205734
_cell_volume                      7299.26214672

loop_
_atom_site_label
_atom_site_type_symbol
_atom_type_description
_atom_site_fract_x
_atom_site_fract_y
_atom_site_fract_z
_atom_type_partial_charge
C1    C     C_R   0.311919 0.491975 0.491859 0.553229
C2    C     C_2   0.465181 0.979711 0.502727 -0.136675
C3    C     C_2   0.521627 0.018604 0.512466 -0.136126
C4    C     C_R   0.688091 0.507869 0.507649 0.525948
C5    C     C_R   0.512173 0.236867 0.511817 0.038068
C6    C     C_R   0.763487 0.510058 0.511604 0.049795
C7    C     C_R   0.799235 0.451093 0.498107 -0.178550
C8    C     C_R   0.870607 0.451712 0.499213 -0.128802
C9    C     C_R   0.907390 0.512188 0.511860 -0.003681
C10   C     C_R   0.872144 0.570618 0.527460 -0.100481
C11   C     C_R   0.800222 0.569749 0.528807 0.273307
C12   C     C_R   0.471110 0.904897 0.500919 0.040152
C13   C     C_R   0.124945 0.543478 0.469191 -0.161426
C14   C     C_R   0.196644 0.548015 0.475697 0.215824
C15   C     C_R   0.204408 0.422239 0.491667 0.224380
C16   C     C_R   0.508946 0.491858 0.688745 0.508696
C17   C     C_R   0.131986 0.418281 0.481211 0.277540
C18   C     C_R   0.092539 0.479147 0.473788 -0.044794
C19   C     C_2   0.982564 0.516096 0.509384 -0.134850
C20   C     C_2   0.017217 0.475182 0.472419 -0.092013
C21   C     C_R   0.236653 0.487305 0.486577 0.009704
C22   C     C_R   0.487118 0.508822 0.235959 0.041979
C23   C     C_R   0.424831 0.870538 0.456318 -0.118905
C24   C     C_R   0.507424 0.450460 0.205579 -0.122442
C25   C     C_R   0.506796 0.451546 0.134157 -0.106180
C26   C     C_R   0.487593 0.511958 0.091909 0.042394
C27   C     C_R   0.464872 0.569565 0.122321 -0.117873
C28   C     C_R   0.491345 0.507449 0.311277 0.502602
C29   C     C_R   0.464309 0.567967 0.194071 -0.121095
C30   C     C_R   0.531933 0.541627 0.871099 -0.134047
C31   C     C_R   0.527427 0.545714 0.799155 -0.179511
C32   C     C_R   0.511475 0.421351 0.802174 0.275102
C33   C     C_R   0.516314 0.417707 0.874455 -0.095274
C34   C     C_R   0.431831 0.799806 0.452230 -0.126962
C35   C     C_R   0.525347 0.477702 0.908807 -0.008877
C36   C     C_2   0.490464 0.516792 0.016244 -0.126775
C37   C     C_2   0.526494 0.472508 0.984241 -0.132994
C38   C     C_R   0.515511 0.486125 0.764301 0.047113
C39   C     C_R   0.508449 0.311965 0.508538 0.499934
C40   C     C_R   0.491265 0.688206 0.492204 0.503799
C41   C     C_R   0.484778 0.762909 0.493458 0.036171
C42   C     C_R   0.530053 0.797410 0.539096 -0.124543
C43   C     C_R   0.523034 0.867682 0.543123 -0.114661
C44   C     C_3   0.232326 0.639196 0.534538 -0.114377
C45   C     C_R   0.462696 0.125191 0.540735 -0.112693
C46   C     C_3   0.243526 0.333848 0.569377 -0.071709
C47   C     C_3   0.777792 0.643047 0.609169 -0.101602
C48   C     C_3   0.098075 0.329726 0.417771 -0.114555
C49   C     C_3   0.563888 0.330350 0.763443 -0.113987
C50   C     C_R   0.460103 0.196596 0.540125 -0.123216
C51   C     C_R   0.567735 0.204907 0.485798 -0.127345
C52   C     C_R   0.570730 0.133540 0.487233 -0.119860
C53   C     C_R   0.517651 0.093490 0.513358 0.039765
H1    H     H_    0.570711 0.770100 0.572256 0.136068
H2    H     H_    0.531741 0.595612 0.770646 0.130221
H3    H     H_    0.554723 0.429479 0.012388 0.114187
H4    H     H_    0.448833 0.616256 0.090635 0.102507
H5    H     H_    0.540410 0.588262 0.897284 0.120441
H6    H     H_    0.448038 0.613394 0.216854 0.129857
H7    H     H_    0.462347 0.558812 0.985605 0.120336
H8    H     H_    0.521146 0.404690 0.113056 0.100536
H9    H     H_    0.608914 0.235013 0.464432 0.130307
H10   H     H_    0.511392 0.368215 0.903614 0.117174
H11   H     H_    0.572711 0.995442 0.515331 0.119526
H12   H     H_    0.613823 0.109596 0.466722 0.105074
H13   H     H_    0.384116 0.898619 0.423946 0.107835
H14   H     H_    0.422179 0.094932 0.563076 0.107064
H15   H     H_    0.395723 0.774061 0.417294 0.141216
H16   H     H_    0.414426 0.003471 0.491726 0.119252
H17   H     H_    0.557949 0.892682 0.579754 0.105654
H18   H     H_    0.263665 0.605087 0.574399 0.101601
H19   H     H_    0.180250 0.648135 0.551643 0.103558
H20   H     H_    0.258804 0.689728 0.529956 0.142654
H21   H     H_    0.192218 0.311771 0.579191 0.156083
H22   H     H_    0.258842 0.372078 0.607411 0.122351
H23   H     H_    0.771883 0.404125 0.487049 0.133773
H24   H     H_    0.281767 0.291117 0.578210 0.133752
H25   H     H_    0.094582 0.590501 0.460543 0.140930
H26   H     H_    0.765050 0.597909 0.644886 0.119709
H27   H     H_    0.743911 0.686343 0.618591 0.142307
H28   H     H_    0.832128 0.659262 0.621364 0.095470
H29   H     H_    0.070441 0.365886 0.377032 0.098661
H30   H     H_    0.069571 0.280250 0.418941 0.134294
H31   H     H_    0.151082 0.319244 0.403959 0.161306
H32   H     H_    0.590161 0.313827 0.815517 0.101456
H33   H     H_    0.598040 0.365004 0.733297 0.104182
H34   H     H_    0.991023 0.436156 0.443305 0.146705
H35   H     H_    0.554699 0.283542 0.735179 0.145454
H36   H     H_    0.900288 0.617575 0.536753 0.107980
H37   H     H_    0.010259 0.554770 0.538124 0.111589
H38   H     H_    0.896408 0.404615 0.490319 0.124230
H39   H     H_    0.416998 0.220254 0.560854 0.134110
H40   H     H_    0.523510 0.403696 0.237137 0.129460
O1    O     O_3   0.500000 0.500000 0.500000 -0.456309
O2    O     O_R   0.467830 0.341070 0.546160 -0.537307
O3    O     O_R   0.450560 0.655630 0.450550 -0.542843
O4    O     O_R   0.545840 0.347670 0.467560 -0.553684
O5    O     O_R   0.535760 0.655640 0.535740 -0.545443
O6    O     O_3   0.227493 0.612061 0.469319 -0.534170
O7    O     O_3   0.244003 0.362624 0.500276 -0.554880
O8    O     O_3   0.765173 0.629235 0.539071 -0.546096
O9    O     O_3   0.099524 0.354908 0.483772 -0.568191
O10   O     O_3   0.499690 0.361909 0.768851 -0.545879
O11   O     O_R   0.545870 0.536170 0.656040 -0.568740
O12   O     O_R   0.450550 0.545430 0.340370 -0.544279
O13   O     O_R   0.347960 0.451240 0.536460 -0.533076
O14   O     O_R   0.655630 0.467150 0.467130 -0.556913
O15   O     O_R   0.340780 0.536140 0.450970 -0.499481
O16   O     O_R   0.655640 0.545460 0.545430 -0.506447
O17   O     O_R   0.467850 0.451260 0.656340 -0.499181
O18   O     O_R   0.535740 0.467130 0.347260 -0.544003
Zn1   Zn    Zn3+2 0.558310 0.558310 0.558290 0.934073
Zn2   Zn    Zn3+2 0.446830 0.436990 0.558720 0.955350
Zn3   Zn    Zn3+2 0.558290 0.446420 0.446420 0.928790
Zn4   Zn    Zn3+2 0.436570 0.558290 0.436570 0.961214

loop_
_geom_bond_atom_site_label_1
_geom_bond_atom_site_label_2
_ccdc_geom_bond_type
C4    O16   A    
C1    C21   S    
C47   O8    S    
C22   C29   A    
C27   C29   A    
C41   C42   A    
C19   C20   D    
C47   H26   S    
C15   O7    S    
C2    C12   S    
O1    Zn3   S    
C16   O17   A    
C14   O6    S    
C3    H11   S    
C34   C41   A    
C12   C23   A    
C26   C27   A    
C13   C18   A    
C23   H13   S    
C36   C37   D    
C35   C37   S    
C12   C43   A    
C40   O5    A    
C30   C31   A    
C44   O6    S    
C39   O4    A    
C20   H34   S    
C44   H18   S    
C37   H3    S    
C16   O11   A    
C29   H6    S    
C10   H36   S    
C8    C9    A    
C45   H14   S    
O3    Zn4   S    
C32   C38   A    
C2    H16   S    
C9    C10   A    
C1    O13   A    
C45   C53   A    
C22   C28   S    
C13   C14   A    
C49   H35   S    
C51   H9    S    
C47   H27   S    
C40   O3    A    
C46   H22   S    
O1    Zn2   S    
C9    C19   S    
C28   O18   A    
C4    O14   A    
O5    Zn1   S    
O13   Zn2   S    
C51   C52   A    
C49   H32   S    
C7    C8    A    
C24   C25   A    
C4    C6    S    
C27   H4    S    
O16   Zn1   S    
C34   H15   S    
C6    C11   A    
O11   Zn1   S    
C25   C26   A    
C48   H31   S    
C17   O9    S    
O14   Zn3   S    
C28   O12   A    
C33   H10   S    
C23   C34   A    
C48   O9    S    
C17   C18   A    
C32   O10   S    
C11   O8    S    
C8    H38   S    
C25   H8    S    
O17   Zn2   S    
C39   O2    A    
C7    H23   S    
C30   C35   A    
C26   C36   S    
C40   C41   S    
C43   H17   S    
C5    C39   S    
C22   C24   A    
C5    C50   A    
C42   C43   A    
C46   H21   S    
C52   C53   A    
O15   Zn4   S    
C50   H39   S    
C15   C17   A    
C46   O7    S    
C13   H25   S    
C49   H33   S    
O12   Zn4   S    
C36   H7    S    
C49   O10   S    
C46   H24   S    
O1    Zn4   S    
C48   H30   S    
C6    C7    A    
C31   C38   A    
C32   C33   A    
C2    C3    D    
C19   H37   S    
C24   H40   S    
C42   H1    S    
C3    C53   S    
C45   C50   A    
O2    Zn2   S    
C30   H5    S    
O1    Zn1   S    
C33   C35   A    
C48   H29   S    
C44   H19   S    
O18   Zn3   S    
C18   C20   S    
C47   H28   S    
C44   H20   S    
C10   C11   A    
C1    O15   A    
C14   C21   A    
C15   C21   A    
C5    C51   A    
C31   H2    S    
O4    Zn3   S    
C52   H12   S    
C16   C38   S    
