data_mof_unit_47475.cif
_audit_creation_date              2012-12-11T14:38:09-0500
_audit_creation_method            fapswitch 2.2
_symmetry_space_group_name_H-M    P1
_symmetry_Int_Tables_number       1
_space_group_crystal_system       triclinic
_cell_length_a                    19.607451
_cell_length_b                    11.156921
_cell_length_c                    19.674875
_cell_angle_alpha                 90.069272
_cell_angle_beta                  96.751515
_cell_angle_gamma                 90.136466
_cell_volume                      4274.18766148

loop_
_atom_site_label
_atom_site_type_symbol
_atom_type_description
_atom_site_fract_x
_atom_site_fract_y
_atom_site_fract_z
_atom_type_partial_charge
C1    C     C_R   0.724202 0.955263 0.360751 0.630434
C2    C     C_R   0.275759 0.955168 0.639300 0.629529
C3    C     C_R   0.224202 0.455263 0.360751 0.631820
C4    C     C_R   0.775759 0.455168 0.639299 0.619692
C5    C     C_3   0.681654 0.446483 0.457246 -0.204160
C6    C     C_3   0.318396 0.446863 0.542814 -0.203965
C7    C     C_3   0.181655 0.946486 0.457244 -0.203974
C8    C     C_3   0.818397 0.946862 0.542813 -0.203589
C9    C     C_3   0.825879 0.482082 0.531433 0.200678
C10   C     C_3   0.174138 0.481628 0.468781 0.199430
C11   C     C_3   0.325880 0.982084 0.531433 0.199687
C12   C     C_3   0.674138 0.981629 0.468781 0.200057
C13   C     C_3   0.763769 0.294524 0.553611 -0.316357
C14   C     C_3   0.236028 0.294591 0.446144 -0.315478
C15   C     C_3   0.263770 0.794525 0.553608 -0.315618
C16   C     C_3   0.736027 0.794591 0.446144 -0.315510
C17   C     C_3   0.763642 0.428975 0.566530 0.046751
C18   C     C_3   0.236314 0.429071 0.433506 0.042090
C19   C     C_3   0.263643 0.928976 0.566529 0.043411
C20   C     C_3   0.736314 0.929071 0.433506 0.042546
C21   C     C_3   0.748845 0.394223 0.434856 -0.033578
C22   C     C_3   0.251190 0.394135 0.565145 -0.032208
C23   C     C_3   0.248845 0.894226 0.434855 -0.032364
C24   C     C_3   0.751190 0.894135 0.565146 -0.029821
C25   C     C_3   0.808216 0.484389 0.453159 0.018909
C26   C     C_3   0.191882 0.483945 0.547049 0.019815
C27   C     C_3   0.308216 0.984392 0.453158 0.019135
C28   C     C_3   0.691884 0.983947 0.547050 0.019220
C29   C     C_3   0.767957 0.278008 0.477019 -0.280543
C30   C     C_3   0.231998 0.277856 0.522750 -0.281017
C31   C     C_3   0.267957 0.778011 0.477017 -0.280602
C32   C     C_3   0.731998 0.777856 0.522750 -0.280500
C33   C     C_3   0.490064 0.305617 0.962264 -0.309626
C34   C     C_3   0.510824 0.305528 0.037777 -0.309197
C35   C     C_3   0.054580 0.734830 0.953160 -0.330158
C36   C     C_3   0.071642 0.735355 0.031062 -0.309119
C37   C     C_3   0.429583 0.105890 0.969148 0.257829
C38   C     C_3   0.570444 0.105612 0.030618 0.258329
C39   C     C_3   0.927911 0.737692 0.969310 0.237940
C40   C     C_3   0.007439 0.540313 0.039170 0.247152
C41   C     C_3   0.555735 0.114318 0.952074 -0.150990
C42   C     C_3   0.444320 0.114481 0.047682 -0.151564
C43   C     C_3   0.990251 0.540659 0.960794 -0.153346
C44   C     C_3   0.945208 0.737114 0.047290 -0.164801
C45   C     C_R   0.535871 0.180659 0.338372 0.594214
C46   C     C_R   0.464228 0.180688 0.661695 0.592281
C47   C     C_R   0.035871 0.680658 0.338372 0.600441
C48   C     C_R   0.964227 0.680689 0.661694 0.593122
C49   C     C_3   0.485603 0.175021 0.934020 0.030072
C50   C     C_3   0.514687 0.174860 0.065851 0.028778
C51   C     C_3   0.984924 0.672052 0.934075 0.024942
C52   C     C_3   0.013936 0.671721 0.066216 0.025075
C53   C     C_1   0.762465 0.427618 0.904546 0.038324
C54   C     C_1   0.219596 0.473120 0.085589 -0.017152
C55   C     C_1   0.277206 0.966701 0.913263 0.048399
C56   C     C_1   0.722372 0.967693 0.086565 0.053069
C57   C     C_1   0.747857 0.405737 0.034437 -0.001953
C58   C     C_1   0.241934 0.434254 0.958638 -0.042103
C59   C     C_1   0.255834 0.929124 0.040284 -0.035804
C60   C     C_1   0.743927 0.930363 0.959519 -0.011644
C61   C     C_1   0.754192 0.415851 0.963924 0.006889
C62   C     C_1   0.230183 0.456566 0.027090 -0.046235
C63   C     C_1   0.266461 0.949794 0.971567 -0.010894
C64   C     C_1   0.733152 0.951000 0.028230 -0.000721
C65   C     C_1   0.743071 0.391206 0.094395 0.019210
C66   C     C_1   0.251752 0.407333 0.901149 -0.007023
C67   C     C_1   0.247244 0.904303 0.098262 -0.002804
C68   C     C_1   0.752653 0.905313 0.901575 0.032876
C69   C     C_R   0.739218 0.360789 0.361859 0.595533
C70   C     C_R   0.260824 0.360754 0.638115 0.594684
C71   C     C_R   0.239219 0.860791 0.361858 0.593255
C72   C     C_R   0.760824 0.860755 0.638115 0.586695
C73   C     C_R   0.706828 0.993130 0.154579 0.561851
C74   C     C_R   0.292913 0.992497 0.845380 0.563949
C75   C     C_R   0.205685 0.495715 0.154592 0.530471
C76   C     C_R   0.778047 0.454666 0.836839 0.562643
C77   C     C_R   0.534736 0.179641 0.139898 0.532844
C78   C     C_R   0.465409 0.179793 0.860025 0.531143
C79   C     C_R   0.034161 0.678939 0.140163 0.557270
C80   C     C_R   0.965427 0.679162 0.860008 0.577657
C81   C     C_R   0.735774 0.357443 0.163450 0.545478
C82   C     C_R   0.263421 0.360253 0.835500 0.539170
C83   C     C_R   0.236477 0.859726 0.164466 0.540473
C84   C     C_R   0.763475 0.860188 0.835445 0.578951
C85   C     C_1   0.485973 0.175228 0.594607 0.135653
C86   C     C_1   0.514347 0.175281 0.405553 0.136845
C87   C     C_1   0.985971 0.675227 0.594605 0.137124
C88   C     C_1   0.014346 0.675281 0.405552 0.136720
C89   C     C_1   0.504409 0.174138 0.464921 0.121629
C90   C     C_1   0.496033 0.174094 0.535273 0.121347
C91   C     C_1   0.004407 0.674137 0.464920 0.120823
C92   C     C_1   0.996031 0.674093 0.535271 0.121040
C93   C     C_3   0.691664 0.473820 0.534026 0.212362
C94   C     C_3   0.308359 0.474250 0.466075 0.212634
C95   C     C_3   0.191664 0.973822 0.534025 0.212358
C96   C     C_3   0.808359 0.974249 0.466074 0.212757
Cr1   Cr    Cr6+3 0.765780 0.160710 0.267420 1.104976
Cr2   Cr    Cr6+3 0.234220 0.160710 0.732580 1.091203
Cr3   Cr    Cr6+3 0.265780 0.660710 0.267420 1.101659
Cr4   Cr    Cr6+3 0.734220 0.660710 0.732580 1.117194
Cr5   Cr    Cr6+3 0.612200 0.009560 0.248850 1.109103
Cr6   Cr    Cr6+3 0.387800 0.009560 0.751150 1.106545
Cr7   Cr    Cr6+3 0.112200 0.509560 0.248850 1.100648
Cr8   Cr    Cr6+3 0.887800 0.509560 0.751150 1.080631
Cr9   Cr    Cr6+3 0.616030 0.323720 0.248510 1.047076
Cr10  Cr    Cr6+3 0.383970 0.323720 0.751490 1.044790
Cr11  Cr    Cr6+3 0.116030 0.823720 0.248510 1.045609
Cr12  Cr    Cr6+3 0.883970 0.823720 0.751490 1.058880
H1    H     H_    0.685806 0.569124 0.542130 0.148443
H2    H     H_    0.314341 0.569593 0.458179 0.147670
H3    H     H_    0.185807 0.069125 0.542129 0.148276
H4    H     H_    0.814342 0.069591 0.458179 0.147642
H5    H     H_    0.822049 0.255190 0.470951 0.166465
H6    H     H_    0.177940 0.254497 0.528892 0.166840
H7    H     H_    0.322049 0.755193 0.470948 0.166909
H8    H     H_    0.677939 0.754498 0.528893 0.166868
H9    H     H_    0.870410 0.420732 0.543603 0.209860
H10   H     H_    0.129592 0.419907 0.456552 0.210677
H11   H     H_    0.370411 0.920733 0.543602 0.210180
H12   H     H_    0.629592 0.919907 0.456554 0.210643
H13   H     H_    0.439191 0.350767 0.951919 0.157025
H14   H     H_    0.561905 0.350412 0.048227 0.153373
H15   H     H_    0.052899 0.828807 0.934062 0.149536
H16   H     H_    0.121720 0.689584 0.045162 0.107563
H17   H     H_    0.528188 0.359269 0.937259 0.163934
H18   H     H_    0.472936 0.359429 0.062836 0.168489
H19   H     H_    0.095607 0.687293 0.929268 0.137815
H20   H     H_    0.078225 0.830124 0.048473 0.166698
H21   H     H_    0.378115 0.144979 0.952783 0.080316
H22   H     H_    0.622037 0.144644 0.047061 0.073265
H23   H     H_    0.923424 0.832742 0.952197 0.144194
H24   H     H_    0.056855 0.492085 0.052368 0.136481
H25   H     H_    0.403595 0.168194 0.068310 0.057927
H26   H     H_    0.596695 0.167868 0.931555 0.044954
H27   H     H_    0.948603 0.831255 0.066276 0.093280
H28   H     H_    0.030885 0.491912 0.936965 0.072978
H29   H     H_    0.555943 0.023601 0.928519 0.218060
H30   H     H_    0.443725 0.023757 0.071061 0.219527
H31   H     H_    0.941001 0.491995 0.946533 0.227549
H32   H     H_    0.903652 0.692232 0.071833 0.214929
H33   H     H_    0.639025 0.380575 0.446093 0.221016
H34   H     H_    0.360978 0.381223 0.553823 0.221424
H35   H     H_    0.139025 0.880579 0.446090 0.220911
H36   H     H_    0.860978 0.881221 0.553822 0.221383
H37   H     H_    0.666686 0.529660 0.428161 0.088866
H38   H     H_    0.333450 0.530090 0.572058 0.088105
H39   H     H_    0.166688 0.029664 0.428160 0.088740
H40   H     H_    0.833451 0.030089 0.572057 0.086492
H41   H     H_    0.290285 0.072871 0.435809 0.138426
H42   H     H_    0.709950 0.072470 0.564587 0.137056
H43   H     H_    0.790284 0.572868 0.435810 0.138567
H44   H     H_    0.209947 0.572469 0.564588 0.138197
H45   H     H_    0.807813 0.248608 0.583593 0.117089
H46   H     H_    0.191847 0.248552 0.416160 0.119438
H47   H     H_    0.307814 0.748608 0.583590 0.118790
H48   H     H_    0.691846 0.748552 0.416161 0.119568
H49   H     H_    0.715803 0.256197 0.568673 0.214354
H50   H     H_    0.283853 0.256493 0.430804 0.215177
H51   H     H_    0.215804 0.756197 0.568669 0.215625
H52   H     H_    0.783851 0.756491 0.430804 0.215508
H53   H     H_    0.735838 0.204738 0.457233 0.215589
H54   H     H_    0.264225 0.204888 0.542235 0.215707
H55   H     H_    0.235838 0.704741 0.457231 0.215678
H56   H     H_    0.764224 0.704888 0.542235 0.215728
O1    O     O_R   0.783100 0.287550 0.345460 -0.466509
O2    O     O_R   0.216900 0.287550 0.654540 -0.468146
O3    O     O_R   0.283100 0.787550 0.345460 -0.468437
O4    O     O_R   0.716900 0.787550 0.654540 -0.472786
O5    O     O_R   0.554710 0.081900 0.170950 -0.465539
O6    O     O_R   0.445290 0.081900 0.829050 -0.465238
O7    O     O_R   0.054710 0.581900 0.170950 -0.482560
O8    O     O_R   0.945290 0.581900 0.829050 -0.501610
O9    O     O_R   0.545650 0.284910 0.163740 -0.534478
O10   O     O_R   0.454350 0.284910 0.836260 -0.536246
O11   O     O_R   0.045650 0.784910 0.163740 -0.530930
O12   O     O_R   0.954350 0.784910 0.836260 -0.525472
O13   O     O_R   0.677950 0.374280 0.185410 -0.507534
O14   O     O_R   0.322050 0.374280 0.814590 -0.501340
O15   O     O_R   0.177950 0.874280 0.185410 -0.506005
O16   O     O_R   0.822050 0.874280 0.814590 -0.495978
O17   O     O_3   0.664670 0.164660 0.254930 -0.305865
O18   O     O_3   0.335330 0.164660 0.745070 -0.299825
O19   O     O_3   0.164670 0.664660 0.254930 -0.304171
O20   O     O_3   0.835330 0.664660 0.745070 -0.265374
O21   O     O_R   0.760020 0.037400 0.337700 -0.465307
O22   O     O_R   0.239980 0.037400 0.662300 -0.465272
O23   O     O_R   0.260020 0.537400 0.337700 -0.464912
O24   O     O_R   0.739980 0.537400 0.662300 -0.473458
O25   O     O_R   0.666600 0.921990 0.332020 -0.513453
O26   O     O_R   0.333400 0.921990 0.667980 -0.513864
O27   O     O_R   0.166600 0.421990 0.332020 -0.509937
O28   O     O_R   0.833400 0.421990 0.667980 -0.518462
O29   O     O_R   0.557260 0.082670 0.312540 -0.456599
O30   O     O_R   0.442740 0.082670 0.687460 -0.456726
O31   O     O_R   0.057260 0.582670 0.312540 -0.448153
O32   O     O_R   0.942740 0.582670 0.687460 -0.456606
O33   O     O_R   0.548410 0.285740 0.316480 -0.507452
O34   O     O_R   0.451590 0.285740 0.683520 -0.509275
O35   O     O_R   0.048410 0.785740 0.316480 -0.507579
O36   O     O_R   0.951590 0.785740 0.683520 -0.512919
O37   O     O_R   0.680500 0.375040 0.327000 -0.504758
O38   O     O_R   0.319500 0.375040 0.673000 -0.505101
O39   O     O_R   0.180500 0.875040 0.327000 -0.505962
O40   O     O_R   0.819500 0.875040 0.673000 -0.514233
O41   O     O_R   0.780350 0.286720 0.192720 -0.490530
O42   O     O_R   0.219650 0.286720 0.807280 -0.507613
O43   O     O_R   0.280350 0.786720 0.192720 -0.499323
O44   O     O_R   0.719650 0.786720 0.807280 -0.490328
O45   O     O_R   0.757470 0.036630 0.196110 -0.511245
O46   O     O_R   0.242530 0.036630 0.803890 -0.514121
O47   O     O_R   0.257470 0.536630 0.196110 -0.486092
O48   O     O_R   0.742530 0.536630 0.803890 -0.486965
O49   O     O_R   0.663840 0.921160 0.179280 -0.452526
O50   O     O_R   0.336160 0.921160 0.820720 -0.454747
O51   O     O_R   0.163840 0.421160 0.179280 -0.500103
O52   O     O_R   0.836160 0.421160 0.820720 -0.515070
Br1   Br    Br    0.891143 0.453553 0.409421 -0.497813
Br2   Br    Br    0.108926 0.452736 0.590777 -0.510231
Br3   Br    Br    0.391142 0.953557 0.409418 -0.507303
Br4   Br    Br    0.608929 0.952744 0.590780 -0.513150
F1    F     F_    0.571149 0.985666 0.049197 -0.604877
F2    F     F_    0.428452 0.985935 0.950373 -0.604560
F3    F     F_    0.956847 0.479156 0.068880 -0.615968
F4    F     F_    0.864568 0.683262 0.951600 -0.641346
F5    F     F_    0.639359 0.420282 0.565185 -0.634323
F6    F     F_    0.360572 0.421029 0.434777 -0.631059
F7    F     F_    0.139360 0.920282 0.565182 -0.632474
F8    F     F_    0.860572 0.921025 0.434777 -0.630614
F9    F     F_    0.350638 0.090436 0.556934 -0.694269
F10   F     F_    0.649295 0.089765 0.443531 -0.694863
F11   F     F_    0.850637 0.590434 0.556934 -0.694186
F12   F     F_    0.149295 0.589766 0.443531 -0.695429

loop_
_geom_bond_atom_site_label_1
_geom_bond_atom_site_label_2
_ccdc_geom_bond_type
Cr6   O6    S    
C39   C51   S    
C26   H44   S    
C58   C62   S    
C6    C22   S    
C16   H52   S    
C9    H9    S    
C14   C18   S    
C25   Br1   S    
C35   C36   S    
C8    C96   S    
C74   O50   A    
C9    F11   S    
C11   H11   S    
C15   C31   S    
C7    H35   S    
Cr4   O44   S    
C9    C25   S    
C8    H40   S    
C67   C83   S    
Cr2   O46   S    
C69   O1    A    
C11   C19   S    
Cr7   O31   S    
C74   O46   A    
C42   H25   S    
Cr7   O19   S    
C96   F8    S    
C38   F1    S    
C13   C29   S    
Cr4   O24   S    
C76   O48   A    
C37   F2    S    
C15   C19   S    
Cr5   O25   S    
C93   H1    S    
C70   O2    A    
C6    H38   S    
Cr1   O1    S    
C46   O34   A    
C66   C82   S    
Cr1   O21   S    
C33   C49   S    
Cr2   O22   S    
Cr8   O28   S    
Cr12  O12   S    
C78   O6    A    
C49   C78   S    
Cr12  O16   S    
C3    C18   S    
C28   Br4   S    
C13   H49   S    
C37   C42   S    
C84   O16   A    
C4    O28   A    
C51   C80   S    
Cr10  O18   S    
C83   O43   A    
C76   O52   A    
C10   F12   S    
C59   C67   T    
C12   H12   S    
C55   C74   S    
Cr9   O37   S    
C58   C66   T    
C40   C43   S    
Cr5   O49   S    
C6    C94   S    
C55   C63   T    
C16   H48   S    
C56   C64   T    
C43   H31   S    
C28   H42   S    
C23   C27   S    
C26   Br2   S    
C6    H34   S    
C52   C79   S    
C24   C28   S    
C25   H43   S    
Cr3   O19   S    
C36   C52   S    
C16   C20   S    
Cr10  O34   S    
C46   C85   S    
Cr11  O15   S    
C5    C93   S    
C44   C52   S    
C44   H27   S    
Cr9   O33   S    
C20   C96   S    
C34   H14   S    
Cr9   O9    S    
C87   C92   T    
C48   O32   A    
Cr7   O7    S    
C72   O4    A    
C47   O35   A    
C36   H20   S    
C53   C61   T    
C14   C30   S    
C27   Br3   S    
Cr6   O30   S    
C41   C49   S    
C41   H26   S    
Cr5   O29   S    
C46   O30   A    
Cr3   O3    S    
C11   F9    S    
C45   O29   A    
C69   O37   A    
C85   C90   T    
C31   H55   S    
C34   C50   S    
C5    H37   S    
Cr12  O20   S    
C40   F3    S    
Cr1   O17   S    
Cr6   O18   S    
C79   O11   A    
Cr6   O26   S    
Cr8   O52   S    
C38   C41   S    
C21   C25   S    
Cr9   O13   S    
C91   C92   S    
Cr3   O47   S    
C54   C62   T    
C96   H4    S    
C40   C52   S    
C21   C29   S    
C70   O38   A    
C94   H2    S    
C7    H39   S    
Cr4   O48   S    
C54   C75   S    
Cr11  O19   S    
Cr5   O5    S    
Cr6   O50   S    
C68   C84   S    
Cr12  O36   S    
C33   H13   S    
C71   O39   A    
C2    O22   A    
Cr11  O39   S    
C10   H10   S    
C3    O27   A    
Cr10  O38   S    
C37   C49   S    
C84   O44   A    
C65   C81   S    
C88   C91   T    
C11   C27   S    
C34   H18   S    
C75   O47   A    
C12   C20   S    
C22   C70   S    
C33   H17   S    
C33   C34   S    
Cr10  O10   S    
C48   C87   S    
C5    C21   S    
C8    H36   S    
C32   H8    S    
C35   H19   S    
C13   H45   S    
Cr4   O4    S    
Cr2   O2    S    
Cr1   O45   S    
C42   C50   S    
C4    C17   S    
C77   O5    A    
Cr8   O20   S    
C48   O36   A    
C35   C51   S    
C18   C94   S    
C39   F4    S    
C53   C76   S    
C17   C93   S    
C30   H54   S    
C50   C77   S    
Cr7   O51   S    
Cr8   O8    S    
C82   O42   A    
C19   C95   S    
C24   C72   S    
C81   O41   A    
C12   C28   S    
C30   H6    S    
Cr8   O32   S    
C73   O45   A    
C41   H29   S    
C29   H5    S    
C1    C20   S    
C77   O9    A    
C56   C73   S    
C22   C30   S    
C36   H16   S    
C2    C19   S    
C15   H47   S    
C5    H33   S    
C2    O26   A    
C57   C65   T    
C14   H50   S    
C86   C89   T    
C3    O23   A    
C15   H51   S    
C79   O7    A    
C12   F10   S    
C57   C61   S    
C39   C44   S    
C38   C50   S    
C1    O21   A    
Cr2   O18   S    
C16   C32   S    
C7    C95   S    
C83   O15   A    
C80   O12   A    
C38   H22   S    
C72   O40   A    
C60   C64   S    
Cr1   O41   S    
C47   C88   S    
C4    O24   A    
C35   H15   S    
C45   C86   S    
Cr3   O23   S    
C81   O13   A    
Cr12  O40   S    
C95   H3    S    
Cr11  O35   S    
C43   C51   S    
C24   C32   S    
C47   O31   A    
Cr11  O11   S    
C10   C18   S    
C7    C23   S    
C32   H56   S    
C10   C26   S    
C8    C24   S    
C37   H21   S    
C59   C63   S    
C44   H32   S    
C9    C17   S    
C31   H7    S    
C40   H24   S    
C43   H28   S    
Cr4   O20   S    
Cr5   O17   S    
C95   F7    S    
C39   H23   S    
C75   O51   A    
C94   F6    S    
C13   C17   S    
C93   F5    S    
Cr7   O27   S    
C60   C68   T    
C23   C71   S    
C27   H41   S    
C22   C26   S    
C21   C69   S    
C78   O10   A    
Cr3   O43   S    
C80   O8    A    
Cr2   O42   S    
C71   O3    A    
C42   H30   S    
C73   O49   A    
C29   H53   S    
Cr9   O17   S    
C89   C90   S    
C45   O33   A    
C82   O14   A    
Cr10  O14   S    
C14   H46   S    
C23   C31   S    
C1    O25   A    
