data_mof_unit_13589.cif
_audit_creation_date              2012-12-11T14:24:54-0500
_audit_creation_method            fapswitch 2.2
_symmetry_space_group_name_H-M    P1
_symmetry_Int_Tables_number       1
_space_group_crystal_system       triclinic
_cell_length_a                    19.236153
_cell_length_b                    11.119079
_cell_length_c                    18.595124
_cell_angle_alpha                 90.090546
_cell_angle_beta                  90.485649
_cell_angle_gamma                 90.170759
_cell_volume                      3977.11388742

loop_
_atom_site_label
_atom_site_type_symbol
_atom_type_description
_atom_site_fract_x
_atom_site_fract_y
_atom_site_fract_z
_atom_type_partial_charge
C1    C     C_R   0.728605 0.371728 0.143909 0.527140
C2    C     C_R   0.240945 0.896049 0.066458 -0.021331
C3    C     C_R   0.659028 0.573596 0.432454 -0.082111
C4    C     C_R   0.901836 0.106597 0.531129 -0.149422
C5    C     C_R   0.098899 0.107077 0.467004 -0.148385
C6    C     C_R   0.401830 0.606607 0.531101 -0.149441
C7    C     C_R   0.598904 0.607096 0.466990 -0.148378
C8    C     C_R   0.920319 0.051053 0.466708 -0.138600
C9    C     C_R   0.080035 0.051925 0.531341 -0.139271
C10   C     C_R   0.420318 0.551048 0.466687 -0.138581
C11   C     C_R   0.580035 0.551948 0.531326 -0.139272
C12   C     C_R   0.875298 0.971199 0.433820 -0.077985
C13   C     C_R   0.260280 0.393897 0.934271 -0.022938
C14   C     C_R   0.124972 0.973365 0.564947 -0.078071
C15   C     C_R   0.375303 0.471172 0.433809 -0.077976
C16   C     C_R   0.624971 0.473394 0.564940 -0.078067
C17   C     C_R   0.753285 0.910386 0.424987 -0.015060
C18   C     C_R   0.246622 0.911366 0.574564 -0.015113
C19   C     C_R   0.253289 0.410365 0.424980 -0.015065
C20   C     C_R   0.746620 0.411374 0.574563 -0.015112
C21   C     C_R   0.731713 0.381174 0.353410 0.539034
C22   C     C_R   0.268404 0.380975 0.646463 0.536078
C23   C     C_R   0.231713 0.881173 0.353410 0.539036
C24   C     C_R   0.740941 0.396050 0.066456 -0.021331
C25   C     C_R   0.768403 0.880978 0.646465 0.536084
C26   C     C_R   0.531016 0.158126 0.352352 0.551303
C27   C     C_R   0.468970 0.158205 0.647643 0.539928
C28   C     C_R   0.031014 0.658126 0.352351 0.551304
C29   C     C_R   0.968968 0.658204 0.647641 0.539927
C30   C     C_R   0.742919 0.966910 0.354885 0.541241
C31   C     C_R   0.257034 0.967133 0.644995 0.536068
C32   C     C_R   0.242919 0.466906 0.354883 0.541247
C33   C     C_R   0.757033 0.467134 0.644995 0.536064
C34   C     C_3   0.571565 0.197899 0.953901 -0.127332
C35   C     C_R   0.703568 0.844812 0.973443 -0.002104
C36   C     C_3   0.535195 0.267151 0.015392 -0.073620
C37   C     C_3   0.071563 0.697902 0.953902 -0.127337
C38   C     C_3   0.035194 0.767156 0.015393 -0.073625
C39   C     C_3   0.575860 0.085204 0.002273 -0.149951
C40   C     C_3   0.463459 0.223755 0.987580 -0.080713
C41   C     C_3   0.075857 0.585207 0.002273 -0.149951
C42   C     C_3   0.963458 0.723762 0.987581 -0.080721
C43   C     C_3   0.539051 0.154713 0.062091 0.047591
C44   C     C_3   0.500004 0.156193 0.927168 0.053448
C45   C     C_3   0.039049 0.654717 0.062092 0.047591
C46   C     C_R   0.295040 0.841173 0.026033 0.005532
C47   C     C_3   0.000002 0.656198 0.927169 0.053445
C48   C     C_3   0.035970 0.202851 0.161227 -0.009751
C49   C     C_3   0.057697 0.114101 0.219970 -0.226641
C50   C     C_3   0.022174 0.141557 0.290984 -0.492535
C51   C     C_3   0.957530 0.196885 0.835647 -0.005446
C52   C     C_3   0.940471 0.109583 0.774478 -0.221469
C53   C     C_3   0.978120 0.143422 0.705725 -0.497792
C54   C     C_3   0.535972 0.702851 0.161229 -0.009753
C55   C     C_3   0.557696 0.614096 0.219970 -0.226635
C56   C     C_3   0.522183 0.641567 0.290989 -0.492521
C57   C     C_R   0.203570 0.344812 0.973445 -0.002114
C58   C     C_3   0.457567 0.696903 0.835696 -0.005398
C59   C     C_3   0.440443 0.609770 0.774449 -0.221442
C60   C     C_3   0.478106 0.643732 0.705722 -0.497809
C61   C     C_R   0.795038 0.341184 0.026031 0.005535
C62   C     C_R   0.709389 0.835862 0.049160 -0.045259
C63   C     C_R   0.288225 0.835045 0.950273 -0.037830
C64   C     C_R   0.209389 0.335861 0.049162 -0.045254
C65   C     C_R   0.271704 0.371349 0.856394 0.533833
C66   C     C_R   0.788218 0.335045 0.950271 -0.037825
C67   C     C_R   0.820685 0.932714 0.048089 0.064697
C68   C     C_R   0.180856 0.944924 0.954264 0.062344
C69   C     C_R   0.320689 0.432692 0.048095 0.064682
C70   C     C_R   0.680850 0.444919 0.954262 0.062340
C71   C     C_R   0.818688 0.935812 0.973662 -0.139978
C72   C     C_R   0.184432 0.946867 0.028463 -0.135517
C73   C     C_R   0.318696 0.435787 0.973667 -0.139969
C74   C     C_R   0.684425 0.446862 0.028461 -0.135516
C75   C     C_R   0.640319 0.808083 0.941730 -0.129583
C76   C     C_R   0.228606 0.871728 0.143910 0.527145
C77   C     C_R   0.355761 0.792586 0.056873 -0.131075
C78   C     C_R   0.140321 0.308090 0.941731 -0.129572
C79   C     C_R   0.855765 0.292622 0.056867 -0.131081
C80   C     C_R   0.088733 0.254991 0.983951 -0.089533
C81   C     C_R   0.903394 0.231497 0.014009 -0.101609
C82   C     C_R   0.588731 0.754983 0.983953 -0.089534
C83   C     C_R   0.403381 0.731430 0.014020 -0.101622
C84   C     C_R   0.600261 0.729107 0.056559 0.274617
C85   C     C_R   0.392449 0.715334 0.940521 0.261065
C86   C     C_R   0.100261 0.229110 0.056559 0.274595
C87   C     C_R   0.771702 0.871353 0.856393 0.533837
C88   C     C_R   0.892460 0.215390 0.940510 0.261109
C89   C     C_R   0.662186 0.766697 0.088061 -0.070753
C90   C     C_R   0.332459 0.762286 0.909816 -0.074772
C91   C     C_R   0.162185 0.266697 0.088061 -0.070749
C92   C     C_R   0.832452 0.262289 0.909814 -0.074760
C93   C     C_R   0.561503 0.150750 0.137484 0.570020
C94   C     C_R   0.468930 0.154499 0.854557 0.555581
C95   C     C_R   0.061502 0.650751 0.137484 0.570015
C96   C     C_R   0.968930 0.654500 0.854558 0.555585
C97   C     C_R   0.761550 0.898472 0.085599 0.008018
C98   C     C_3   0.467824 0.110932 0.035215 -0.102353
C99   C     C_R   0.237741 0.903094 0.915299 -0.002551
C100  C     C_R   0.261551 0.398465 0.085603 0.008028
C101  C     C_R   0.737735 0.403090 0.915297 -0.002553
C102  C     C_R   0.500032 0.168727 0.575669 -0.014266
C103  C     C_R   0.499906 0.168595 0.424322 -0.015267
C104  C     C_R   0.000022 0.668721 0.575663 -0.014263
C105  C     C_R   0.999896 0.668597 0.424317 -0.015269
C106  C     C_R   0.509195 0.062777 0.536341 0.045007
C107  C     C_R   0.490633 0.062644 0.463528 0.044031
C108  C     C_R   0.009176 0.562770 0.536333 0.045008
C109  C     C_3   0.504175 0.042161 0.974264 -0.112421
C110  C     C_R   0.990615 0.562645 0.463519 0.044026
C111  C     C_R   0.503390 0.277857 0.462530 -0.145637
C112  C     C_R   0.496679 0.277909 0.537590 -0.145037
C113  C     C_R   0.003382 0.777856 0.462527 -0.145635
C114  C     C_R   0.996671 0.777904 0.537587 -0.145033
C115  C     C_R   0.530112 0.954814 0.568247 -0.082100
C116  C     C_R   0.469940 0.954367 0.431409 -0.081970
C117  C     C_R   0.030093 0.454802 0.568233 -0.082094
C118  C     C_R   0.969922 0.454371 0.431395 -0.081967
C119  C     C_R   0.017505 0.347800 0.532860 -0.145873
C120  C     C_3   0.967821 0.610939 0.035216 -0.102359
C121  C     C_R   0.983199 0.347535 0.466295 -0.145678
C122  C     C_R   0.517517 0.847808 0.532881 -0.145873
C123  C     C_R   0.483212 0.847536 0.466316 -0.145697
C124  C     C_R   0.748686 0.922462 0.574692 -0.013727
C125  C     C_R   0.251941 0.923622 0.424947 -0.014121
C126  C     C_R   0.248691 0.422449 0.574686 -0.013726
C127  C     C_R   0.751942 0.423624 0.424946 -0.014123
C128  C     C_R   0.799310 0.984099 0.535817 0.048536
C129  C     C_R   0.201769 0.986252 0.463650 0.047642
C130  C     C_R   0.299317 0.484076 0.535808 0.048541
C131  C     C_3   0.004172 0.542166 0.974265 -0.112423
C132  C     C_R   0.701774 0.486267 0.463646 0.047637
C133  C     C_R   0.810682 0.948884 0.465014 0.043438
C134  C     C_R   0.189798 0.951164 0.534307 0.044363
C135  C     C_R   0.310689 0.448852 0.465006 0.043432
C136  C     C_R   0.689799 0.451186 0.534303 0.044366
C137  C     C_R   0.695377 0.864391 0.461626 -0.141914
C138  C     C_R   0.304338 0.864647 0.538123 -0.141504
C139  C     C_R   0.195380 0.364374 0.461621 -0.141916
C140  C     C_R   0.804333 0.364644 0.538123 -0.141503
C141  C     C_R   0.744235 0.963965 0.151911 0.546436
C142  C     C_R   0.760275 0.893907 0.934267 -0.022938
C143  C     C_R   0.255620 0.964894 0.848237 0.550868
C144  C     C_R   0.244235 0.463964 0.151912 0.546441
C145  C     C_R   0.755619 0.464894 0.848236 0.550873
C146  C     C_R   0.695924 0.861585 0.536542 -0.140820
C147  C     C_R   0.304179 0.862235 0.463216 -0.140653
C148  C     C_R   0.195927 0.361572 0.536538 -0.140819
C149  C     C_R   0.804175 0.362229 0.463216 -0.140652
C150  C     C_R   0.842342 0.071978 0.566574 -0.082879
C151  C     C_R   0.159021 0.073580 0.432462 -0.082108
C152  C     C_R   0.342343 0.571968 0.566558 -0.082882
Cr1   Cr    Cr6+3 0.772820 0.169820 0.252640 1.013012
Cr2   Cr    Cr6+3 0.383280 0.011130 0.749340 0.983758
Cr3   Cr    Cr6+3 0.116720 0.511130 0.250660 0.979737
Cr4   Cr    Cr6+3 0.883280 0.511130 0.749340 0.983776
Cr5   Cr    Cr6+3 0.227180 0.169820 0.747360 1.020595
Cr6   Cr    Cr6+3 0.272820 0.669820 0.252640 1.013013
Cr7   Cr    Cr6+3 0.727180 0.669820 0.747360 1.020588
Cr8   Cr    Cr6+3 0.615040 0.323610 0.249150 1.001668
Cr9   Cr    Cr6+3 0.384960 0.323610 0.750850 1.005769
Cr10  Cr    Cr6+3 0.115040 0.823610 0.249150 1.001668
Cr11  Cr    Cr6+3 0.884960 0.823610 0.750850 1.005680
Cr12  Cr    Cr6+3 0.616720 0.011130 0.250660 0.979736
H1    H     H_    0.623127 0.031189 0.011626 0.127185
H2    H     H_    0.445818 0.951975 0.378544 0.122887
H3    H     H_    0.054144 0.452760 0.621128 0.120492
H4    H     H_    0.945803 0.451986 0.378529 0.122883
H5    H     H_    0.032679 0.266864 0.559520 0.102614
H6    H     H_    0.968426 0.266421 0.439300 0.102084
H7    H     H_    0.532682 0.766874 0.559551 0.102624
H8    H     H_    0.468431 0.766420 0.439328 0.102083
H9    H     H_    0.649601 0.834343 0.432622 0.144671
H10   H     H_    0.349632 0.833445 0.567285 0.143883
H11   H     H_    0.149602 0.334331 0.432618 0.144667
H12   H     H_    0.416248 0.277133 0.978422 0.146945
H13   H     H_    0.849625 0.333433 0.567286 0.143883
H14   H     H_    0.830639 0.112148 0.618203 0.116921
H15   H     H_    0.171106 0.113297 0.380841 0.118374
H16   H     H_    0.330639 0.612149 0.618184 0.116922
H17   H     H_    0.671116 0.613307 0.380831 0.118372
H18   H     H_    0.656304 0.811357 0.564432 0.145842
H19   H     H_    0.343544 0.811435 0.435444 0.146308
H20   H     H_    0.156303 0.311354 0.564428 0.145832
H21   H     H_    0.843537 0.311418 0.435446 0.146319
H22   H     H_    0.933647 0.173545 0.555923 0.102821
H23   H     H_    0.123124 0.531190 0.011626 0.127185
H24   H     H_    0.066921 0.172817 0.441616 0.101443
H25   H     H_    0.433631 0.673585 0.555882 0.102818
H26   H     H_    0.566929 0.672833 0.441597 0.101448
H27   H     H_    0.967696 0.071447 0.439795 0.100970
H28   H     H_    0.032314 0.071586 0.557548 0.101026
H29   H     H_    0.467695 0.571451 0.439772 0.100963
H30   H     H_    0.532309 0.571610 0.557528 0.101026
H31   H     H_    0.888673 0.933839 0.381873 0.125760
H32   H     H_    0.111049 0.936077 0.616718 0.122783
H33   H     H_    0.388677 0.433807 0.381862 0.125755
H34   H     H_    0.916248 0.777147 0.978423 0.146957
H35   H     H_    0.611044 0.436109 0.616710 0.122794
H36   H     H_    0.614593 0.227136 0.918703 0.137904
H37   H     H_    0.546694 0.358308 0.035983 0.187599
H38   H     H_    0.114591 0.727142 0.918703 0.137904
H39   H     H_    0.046696 0.858312 0.035985 0.187605
H40   H     H_    0.425436 0.075641 0.069502 0.131273
H41   H     H_    0.491262 0.949335 0.956563 0.127797
H42   H     H_    0.925433 0.575649 0.069503 0.131267
H43   H     H_    0.991259 0.449341 0.956564 0.127824
H44   H     H_    0.628646 0.824394 0.885683 0.137548
H45   H     H_    0.511372 0.361866 0.434582 0.144021
H46   H     H_    0.368733 0.804186 0.112990 0.142429
H47   H     H_    0.128649 0.324402 0.885684 0.137572
H48   H     H_    0.868736 0.304226 0.112984 0.142418
H49   H     H_    0.865867 0.963050 0.947107 0.214028
H50   H     H_    0.140051 0.982880 0.056149 0.202199
H51   H     H_    0.365878 0.463006 0.947114 0.214058
H52   H     H_    0.640043 0.482871 0.056148 0.202196
H53   H     H_    0.040404 0.230089 0.959373 0.176873
H54   H     H_    0.948507 0.193805 0.038248 0.206819
H55   H     H_    0.540400 0.730080 0.959379 0.176782
H56   H     H_    0.488854 0.361947 0.565637 0.143402
H57   H     H_    0.448486 0.693711 0.038261 0.206847
H58   H     H_    0.673427 0.743641 0.143492 0.113831
H59   H     H_    0.320558 0.743345 0.853866 0.110385
H60   H     H_    0.173424 0.243640 0.143493 0.113835
H61   H     H_    0.820535 0.243320 0.853871 0.110320
H62   H     H_    0.978577 0.212314 0.162070 0.152203
H63   H     H_    0.057103 0.294206 0.173473 0.139719
H64   H     H_    0.043431 0.021241 0.203293 0.230035
H65   H     H_    0.114929 0.117693 0.228000 0.156283
H66   H     H_    0.039365 0.230545 0.311881 0.137193
H67   H     H_    0.011368 0.861865 0.434580 0.144019
H68   H     H_    0.036196 0.070623 0.330272 0.150835
H69   H     H_    0.964738 0.141144 0.284189 0.154154
H70   H     H_    0.014558 0.211868 0.837367 0.153979
H71   H     H_    0.934628 0.286822 0.824043 0.131449
H72   H     H_    0.956520 0.017257 0.790117 0.228855
H73   H     H_    0.883496 0.109090 0.764189 0.160442
H74   H     H_    0.959259 0.231478 0.685387 0.138391
H75   H     H_    0.967743 0.072722 0.664974 0.147332
H76   H     H_    0.035189 0.148100 0.715103 0.153653
H77   H     H_    0.478579 0.712321 0.162072 0.152184
H78   H     H_    0.988850 0.861942 0.565635 0.143389
H79   H     H_    0.557108 0.794204 0.173476 0.139728
H80   H     H_    0.543416 0.521240 0.203295 0.230024
H81   H     H_    0.614930 0.617667 0.227992 0.156305
H82   H     H_    0.539399 0.730543 0.311891 0.137191
H83   H     H_    0.536191 0.570613 0.330270 0.150840
H84   H     H_    0.464744 0.641200 0.284200 0.154136
H85   H     H_    0.514612 0.711730 0.837442 0.154005
H86   H     H_    0.434751 0.786949 0.824161 0.131457
H87   H     H_    0.456444 0.517368 0.789999 0.228774
H88   H     H_    0.383463 0.609391 0.764160 0.160289
H89   H     H_    0.554160 0.952778 0.621143 0.120485
H90   H     H_    0.459300 0.731888 0.685461 0.138537
H91   H     H_    0.467678 0.573149 0.664905 0.147213
H92   H     H_    0.535182 0.648256 0.715097 0.153637
I1    I     I_    0.916980 0.958031 0.102915 -0.406617
I2    I     I_    0.084454 0.989489 0.903014 -0.406336
I3    I     I_    0.416981 0.457978 0.102934 -0.406652
I4    I     I_    0.584449 0.489470 0.903007 -0.406324
O1    O     O_R   0.788190 0.043000 0.172520 -0.477717
O2    O     O_R   0.454170 0.051610 0.669840 -0.523662
O3    O     O_R   0.045830 0.551610 0.330160 -0.520401
O4    O     O_R   0.954170 0.551610 0.669840 -0.523653
O5    O     O_R   0.681920 0.959720 0.327070 -0.509394
O6    O     O_R   0.318080 0.959720 0.672930 -0.510355
O7    O     O_R   0.181920 0.459720 0.327070 -0.509391
O8    O     O_R   0.818080 0.459720 0.672930 -0.510358
O9    O     O_3   0.668190 0.168190 0.250820 -0.265153
O10   O     O_3   0.331810 0.168190 0.749180 -0.247226
O11   O     O_3   0.168190 0.668190 0.250820 -0.265151
O12   O     O_R   0.211810 0.043000 0.827480 -0.476329
O13   O     O_3   0.831810 0.668190 0.749180 -0.247211
O14   O     O_R   0.766240 0.292300 0.176860 -0.506823
O15   O     O_R   0.233760 0.292300 0.823140 -0.500751
O16   O     O_R   0.266240 0.792300 0.176860 -0.506832
O17   O     O_R   0.733760 0.792300 0.823140 -0.500743
O18   O     O_R   0.670310 0.409160 0.168720 -0.542761
O19   O     O_R   0.329690 0.409160 0.831280 -0.530649
O20   O     O_R   0.170310 0.909160 0.168720 -0.542760
O21   O     O_R   0.829690 0.909160 0.831280 -0.530731
O22   O     O_R   0.556160 0.251900 0.173380 -0.489205
O23   O     O_R   0.288190 0.543000 0.172520 -0.477722
O24   O     O_R   0.443840 0.251900 0.826620 -0.491180
O25   O     O_R   0.056160 0.751900 0.173380 -0.489214
O26   O     O_R   0.943840 0.751900 0.826620 -0.491222
O27   O     O_R   0.545410 0.050140 0.168240 -0.534658
O28   O     O_R   0.454590 0.050140 0.831760 -0.541932
O29   O     O_R   0.045410 0.550140 0.168240 -0.534663
O30   O     O_R   0.954590 0.550140 0.831760 -0.541898
O31   O     O_R   0.681530 0.958350 0.176970 -0.541096
O32   O     O_R   0.318470 0.958350 0.823030 -0.522842
O33   O     O_R   0.181530 0.458350 0.176970 -0.541096
O34   O     O_R   0.711810 0.543000 0.827480 -0.476338
O35   O     O_R   0.818470 0.458350 0.823030 -0.522841
O36   O     O_R   0.788610 0.044480 0.334450 -0.514208
O37   O     O_R   0.211390 0.044480 0.665550 -0.516705
O38   O     O_R   0.288610 0.544480 0.334450 -0.514195
O39   O     O_R   0.711390 0.544480 0.665550 -0.516708
O40   O     O_R   0.766630 0.293670 0.326970 -0.502168
O41   O     O_R   0.233370 0.293670 0.673030 -0.503970
O42   O     O_R   0.266630 0.793670 0.326970 -0.502163
O43   O     O_R   0.733370 0.793670 0.673030 -0.503970
O44   O     O_R   0.670730 0.410640 0.330640 -0.526585
O45   O     O_R   0.556550 0.253260 0.323480 -0.495512
O46   O     O_R   0.329270 0.410640 0.669360 -0.529893
O47   O     O_R   0.170730 0.910640 0.330640 -0.526587
O48   O     O_R   0.829270 0.910640 0.669360 -0.529907
O49   O     O_3   0.054178 0.155717 0.092959 -0.581345
O50   O     O_3   0.937786 0.143949 0.901917 -0.567114
O51   O     O_3   0.554179 0.655717 0.092961 -0.581365
O52   O     O_3   0.437762 0.643875 0.901925 -0.567051
O53   O     O_R   0.443450 0.253260 0.676520 -0.502970
O54   O     O_R   0.056550 0.753260 0.323480 -0.495513
O55   O     O_R   0.943450 0.753260 0.676520 -0.502975
O56   O     O_R   0.545830 0.051610 0.330160 -0.520405

loop_
_geom_bond_atom_site_label_1
_geom_bond_atom_site_label_2
_ccdc_geom_bond_type
C105  C110  A    
C24   C61   A    
C21   O40   A    
C110  C118  A    
C56   H84   S    
Cr8   O22   S    
C99   C143  S    
C96   O30   A    
C117  C119  A    
C40   C98   S    
C15   H33   S    
C106  C107  A    
C41   H23   S    
C51   H71   S    
C4    H22   S    
C54   O51   S    
C38   C45   S    
C80   C86   A    
C31   O37   A    
C102  C112  A    
Cr11  O21   S    
C138  H10   S    
Cr3   O3    S    
C59   C60   S    
C98   C109  S    
Cr3   O29   S    
C31   O6    A    
C17   C30   S    
C116  H2    S    
C19   C32   S    
C53   H76   S    
C141  O31   A    
C79   H48   S    
Cr10  O11   S    
C55   H80   S    
C76   O20   A    
C51   C52   S    
Cr7   O13   S    
C137  C146  A    
C42   H34   S    
Cr8   O18   S    
C58   O52   S    
C100  C144  S    
C10   H29   S    
C41   C131  S    
Cr5   O12   S    
Cr6   O11   S    
C47   C131  S    
C39   H1    S    
C50   H69   S    
C6    C10   A    
C37   C38   S    
C48   H62   S    
C151  H15   S    
C115  H89   S    
C68   C72   A    
C60   H90   S    
C49   H64   S    
C20   C33   S    
C45   C120  S    
C128  C150  A    
C13   C73   A    
C92   H61   S    
C82   C84   A    
C130  C152  A    
C52   H72   S    
Cr12  O27   S    
Cr9   O46   S    
C141  O1    A    
C57   C78   A    
C46   C77   A    
C85   C90   A    
Cr9   O10   S    
C4    C150  A    
C5    C151  A    
C106  C115  A    
C22   O46   A    
C90   H59   S    
C56   H82   S    
C81   C88   A    
C44   C94   S    
C83   H57   S    
C69   C100  A    
C125  C129  A    
C39   C109  S    
C19   C139  A    
C41   C45   S    
C17   C137  A    
C18   C31   S    
C5    H24   S    
Cr5   O37   S    
C91   H60   S    
Cr2   O10   S    
Cr6   O42   S    
Cr12  O9    S    
C116  C123  A    
C111  C112  A    
C131  H43   S    
C111  H45   S    
C70   C101  A    
C5    C9    A    
C101  C145  S    
C105  C113  A    
C78   C80   A    
C13   C57   A    
C60   H92   S    
C118  H4    S    
Cr10  O54   S    
C63   C99   A    
Cr4   O4    S    
C82   H55   S    
C37   H38   S    
C7    H26   S    
C50   H68   S    
C37   C47   S    
Cr1   O1    S    
C123  H8    S    
C132  C136  A    
C51   O50   S    
C121  H6    S    
Cr11  O26   S    
C145  O35   A    
C66   C101  A    
Cr10  O47   S    
Cr7   O39   S    
C93   O22   A    
C85   O52   S    
C119  C121  A    
C139  C148  A    
C33   O8    A    
C34   C39   S    
Cr11  O55   S    
C80   H53   S    
C40   H12   S    
C32   O38   A    
C66   C92   A    
C27   O2    A    
C124  C146  A    
C29   C104  S    
C33   O39   A    
C70   C74   A    
C34   H36   S    
C62   C97   A    
Cr4   O8    S    
C8    C12   A    
C144  O23   A    
C112  H56   S    
Cr4   O30   S    
C30   O5    A    
C20   C136  A    
C109  H41   S    
C1    O14   A    
C77   H46   S    
C119  H5    S    
C114  H78   S    
C59   H87   S    
Cr7   O17   S    
C36   H37   S    
C16   C136  A    
C52   C53   S    
C54   C55   S    
Cr4   O35   S    
C108  C117  A    
C29   O55   A    
C103  C107  A    
C75   C82   A    
C28   O3    A    
C27   C102  S    
C64   C91   A    
C124  C128  A    
C46   C63   A    
C54   H79   S    
C127  C149  A    
C42   C120  S    
C61   C79   A    
C6    H25   S    
C108  C110  A    
C50   H66   S    
C34   C36   S    
C95   O29   A    
C37   C41   S    
C107  C116  A    
C35   C142  A    
C143  O32   A    
C40   C44   S    
C1    C24   S    
C122  H7    S    
C27   O53   A    
C58   H85   S    
C140  C149  A    
C84   O51   S    
C45   C95   S    
C86   O49   S    
C72   H50   S    
C55   C56   S    
C149  H21   S    
C65   O15   A    
C120  C131  S    
C23   O47   A    
C130  C135  A    
C53   H75   S    
C17   C133  A    
C30   O36   A    
Cr8   O9    S    
C129  C151  A    
C3    C7    A    
C145  O34   A    
Cr8   O45   S    
C126  C130  A    
C19   C135  A    
C62   C89   A    
C29   O4    A    
C32   O7    A    
C103  C111  A    
Cr11  O48   S    
C18   C138  A    
Cr6   O38   S    
C96   O26   A    
C47   C96   S    
Cr7   O34   S    
C69   C73   A    
C28   O54   A    
C69   I3    S    
C6    C152  A    
C44   C109  S    
C70   I4    S    
C2    C72   A    
C113  H67   S    
Cr1   O36   S    
C56   H83   S    
Cr9   O24   S    
C146  H18   S    
C3    C132  A    
C54   H77   S    
Cr9   O19   S    
C93   O27   A    
C126  C148  A    
C94   O28   A    
C58   C59   S    
C71   H49   S    
C9    C14   A    
Cr2   O2    S    
C26   C103  S    
C11   C16   A    
C144  O33   A    
C140  H13   S    
Cr7   O43   S    
Cr8   O44   S    
C97   C141  S    
Cr4   O13   S    
C67   I1    S    
C48   C49   S    
C83   C85   A    
C38   H39   S    
C125  C147  A    
C12   H31   S    
C81   H54   S    
C104  C108  A    
C2    C76   S    
C113  C114  A    
Cr11  O13   S    
Cr10  O20   S    
Cr5   O15   S    
Cr3   O11   S    
Cr6   O16   S    
C21   O44   A    
C20   C140  A    
C137  H9    S    
C1    O18   A    
C23   O42   A    
C95   O25   A    
C117  H3    S    
Cr2   O32   S    
C43   C93   S    
C67   C71   A    
C87   C142  S    
C49   H65   S    
C67   C97   A    
C129  C134  A    
Cr10  O25   S    
C64   C100  A    
C86   C91   A    
C73   H51   S    
C36   C43   S    
C78   H47   S    
Cr12  O56   S    
C152  H16   S    
C139  H11   S    
C11   H30   S    
C4    C8    A    
C13   C65   S    
C2    C46   A    
C7    C11   A    
C35   C75   A    
Cr3   O33   S    
C51   H70   S    
C98   H40   S    
C38   C42   S    
C10   C15   A    
C87   O17   A    
C22   C126  S    
C15   C135  A    
C77   C83   A    
C8    H27   S    
C76   O16   A    
C75   H44   S    
C127  C132  A    
C61   C66   A    
C88   C92   A    
C65   O19   A    
C18   C134  A    
Cr1   O14   S    
C21   C127  S    
C9    H28   S    
C28   C105  S    
C23   C125  S    
C25   O48   A    
C115  C122  A    
C143  O12   A    
C36   C40   S    
C22   O41   A    
C34   C44   S    
C89   H58   S    
C79   C81   A    
C48   H63   S    
C39   C43   S    
C14   C134  A    
C26   O56   A    
C60   H91   S    
C118  C121  A    
C87   O21   A    
C3    H17   S    
C138  C147  A    
C148  H20   S    
Cr2   O28   S    
C16   H35   S    
C52   H73   S    
C71   C142  A    
C104  C114  A    
Cr1   O40   S    
C49   C50   S    
C12   C133  A    
C43   C98   S    
C58   H86   S    
C84   C89   A    
C57   C64   A    
C94   O24   A    
C147  H19   S    
C14   H32   S    
Cr6   O23   S    
C74   H52   S    
Cr1   O9    S    
Cr5   O41   S    
Cr2   O6    S    
C53   H74   S    
Cr12  O31   S    
Cr12  O5    S    
C25   O43   A    
C88   O50   S    
C150  H14   S    
C120  H42   S    
C68   C99   A    
C128  C133  A    
C68   I2    S    
C24   C74   A    
Cr5   O10   S    
C63   C90   A    
C102  C106  A    
C35   C62   A    
C42   C47   S    
C48   O49   S    
C25   C124  S    
C55   H81   S    
C26   O45   A    
C59   H88   S    
Cr9   O53   S    
C122  C123  A    
Cr3   O7    S    
