data_mof_unit_8521.cif
_audit_creation_date              2012-12-10T19:04:12-0500
_audit_creation_method            fapswitch 2.2
_symmetry_space_group_name_H-M    P1
_symmetry_Int_Tables_number       1
_space_group_crystal_system       triclinic
_cell_length_a                    10.624294
_cell_length_b                    10.819243
_cell_length_c                    9.565538
_cell_angle_alpha                 90.064832
_cell_angle_beta                  89.977369
_cell_angle_gamma                 90.19876
_cell_volume                      1099.52075638

loop_
_atom_site_label
_atom_site_type_symbol
_atom_type_description
_atom_site_fract_x
_atom_site_fract_y
_atom_site_fract_z
_atom_type_partial_charge
C1    C     C_R   0.497576 0.262399 0.499896 0.790614
C2    C     C_3   0.958307 0.603089 0.562322 -0.143677
C3    C     C_3   0.042362 0.599398 0.430348 -0.185823
C4    C     C_3   0.122477 0.499903 0.500738 -0.006645
C5    C     C_R   0.485830 0.063817 0.625253 0.110762
C6    C     C_R   0.485126 0.129258 0.499659 -0.096229
C7    C     C_R   0.467139 0.064206 0.373856 -0.219453
C8    C     C_R   0.467575 0.935332 0.373906 -0.223211
C9    C     C_R   0.485960 0.870781 0.499767 -0.094131
C10   C     C_R   0.486437 0.936604 0.625296 0.133445
C11   C     C_3   0.576412 0.931148 0.745072 -0.491835
C12   C     C_R   0.259360 0.499960 0.500148 0.781460
C13   C     C_3   0.575236 0.071436 0.745432 -0.435617
C14   C     C_R   0.551256 0.596839 0.074173 0.184818
C15   C     C_R   0.436555 0.412249 0.074230 -0.047198
C16   C     C_R   0.435697 0.412839 0.925468 -0.043718
C17   C     C_R   0.556679 0.593509 0.927331 0.177829
C18   C     C_3   0.693169 0.630580 0.929911 0.181035
C19   C     C_3   0.681962 0.644677 0.087285 -0.504292
C20   C     C_R   0.498045 0.737637 0.499977 0.787548
C21   C     C_R   0.740688 0.499812 0.499824 0.797412
C22   C     C_3   0.041926 0.396359 0.437625 -0.193193
C23   C     C_3   0.959551 0.495815 0.367044 -0.136135
C24   C     C_3   0.877677 0.499564 0.499138 0.019083
C25   C     C_3   0.957828 0.400040 0.569538 -0.127089
C26   C     C_3   0.040743 0.503579 0.632843 -0.073272
Cu1   Cu    Cu3+1 0.499990 0.499980 0.640670 0.972097
Cu2   Cu    Cu3+1 0.500010 0.500020 0.359330 0.945927
H1    H     H_    0.924974 0.491780 0.257719 0.163844
H2    H     H_    0.669047 0.891744 0.714803 0.190421
H3    H     H_    0.530404 0.111318 0.840260 0.196095
H4    H     H_    0.667272 0.113395 0.716207 0.204114
H5    H     H_    0.387221 0.339725 0.129674 0.124523
H6    H     H_    0.385269 0.341074 0.869817 0.126041
H7    H     H_    0.712950 0.718698 0.874765 0.097621
H8    H     H_    0.744376 0.582835 0.147858 0.246968
H9    H     H_    0.683515 0.742682 0.122331 0.152513
H10   H     H_    0.079331 0.311858 0.386685 0.135276
H11   H     H_    0.920044 0.318586 0.626477 0.149404
H12   H     H_    0.076666 0.506752 0.741795 0.166044
H13   H     H_    0.920821 0.687480 0.613464 0.137501
H14   H     H_    0.080037 0.680869 0.373407 0.138290
H15   H     H_    0.458791 0.112205 0.275008 0.160733
H16   H     H_    0.459473 0.887008 0.275070 0.162908
H17   H     H_    0.532838 0.890054 0.840021 0.189653
N1    N     N_R   0.500800 0.500930 0.147930 -0.165998
N2    N     N_R   0.500800 0.500890 0.852020 -0.160780
O1    O     O_R   0.500000 0.319640 0.618810 -0.578283
O2    O     O_R   0.500010 0.319680 0.381230 -0.588588
O3    O     O_R   0.316850 0.499950 0.618770 -0.595498
O4    O     O_R   0.316860 0.499990 0.381190 -0.580183
O5    O     O_R   0.499990 0.680320 0.618770 -0.587804
O6    O     O_R   0.500000 0.680360 0.381190 -0.585752
O7    O     O_R   0.683140 0.500010 0.618810 -0.517779
O8    O     O_R   0.683150 0.500050 0.381230 -0.595038
Cl1   Cl    Cl    0.799017 0.507288 0.889400 -0.646758

loop_
_geom_bond_atom_site_label_1
_geom_bond_atom_site_label_2
_ccdc_geom_bond_type
Cu1   O1    S    
C12   O3    A    
C23   C24   S    
C3    H14   S    
C6    C7    A    
C7    H15   S    
C4    C12   S    
C4    C22   S    
C9    C10   A    
C9    C20   S    
C4    C26   S    
Cu1   O3    S    
C18   Cl1   S    
Cu2   O6    S    
C26   H12   S    
C17   C18   S    
Cu1   O7    S    
C5    C10   A    
C2    C26   S    
Cu1   O5    S    
C11   C13   S    
C14   C17   A    
Cu2   N1    S    
C5    C6    A    
C1    O2    A    
C15   C16   A    
C23   H1    S    
C16   N2    A    
Cu2   O8    S    
C15   H5    S    
C2    C3    S    
C19   H8    S    
C1    O1    A    
C2    C24   S    
C21   O7    A    
Cu2   O4    S    
C11   H17   S    
C10   C11   S    
C2    H13   S    
C1    C6    S    
C22   H10   S    
C17   N2    A    
C7    C8    A    
C12   O4    A    
C24   C25   S    
C18   H7    S    
C20   O5    A    
C18   C19   S    
Cu2   O2    S    
C21   C24   S    
Cu1   N2    S    
Cu1   Cu2   S    
C21   O8    A    
C3    C23   S    
C22   C23   S    
C20   O6    A    
C19   H9    S    
C15   N1    A    
C16   H6    S    
C25   C26   S    
C13   H4    S    
C5    C13   S    
C14   C19   S    
C13   H3    S    
C25   H11   S    
C3    C4    S    
C8    H16   S    
C11   H2    S    
C8    C9    A    
C14   N1    A    
C22   C25   S    
