data_mof_unit_28321.cif
_audit_creation_date              2012-12-10T17:43:24-0500
_audit_creation_method            fapswitch 2.2
_symmetry_space_group_name_H-M    P1
_symmetry_Int_Tables_number       1
_space_group_crystal_system       triclinic
_cell_length_a                    15.103064
_cell_length_b                    13.696489
_cell_length_c                    10.687994
_cell_angle_alpha                 90.632094
_cell_angle_beta                  89.647251
_cell_angle_gamma                 90.976558
_cell_volume                      2210.41217556

loop_
_atom_site_label
_atom_site_type_symbol
_atom_type_description
_atom_site_fract_x
_atom_site_fract_y
_atom_site_fract_z
_atom_type_partial_charge
C1    C     C_R   0.328814 0.499194 0.504000 0.801016
C2    C     C_R   0.671186 0.500806 0.495998 0.801019
C3    C     C_R   0.953275 0.500776 0.497371 0.040151
C4    C     C_R   0.046725 0.499228 0.502628 0.040155
C5    C     C_R   0.910272 0.541343 0.392893 0.088933
C6    C     C_R   0.089728 0.458661 0.607107 0.088937
C7    C     C_R   0.945418 0.424631 0.701363 -0.209635
C8    C     C_R   0.054582 0.575374 0.298637 -0.209647
C9    C     C_R   0.037164 0.423633 0.707158 -0.229523
C10   C     C_R   0.962836 0.576372 0.292842 -0.229515
C11   C     C_R   0.450144 0.793159 0.586327 0.009528
C12   C     C_R   0.549857 0.206841 0.413673 0.009522
C13   C     C_R   0.548636 0.793530 0.412353 -0.008383
C14   C     C_R   0.451362 0.206470 0.587645 -0.008385
C15   C     C_R   0.549945 0.896582 0.410389 0.003719
C16   C     C_R   0.450053 0.103417 0.589610 0.003720
C17   C     C_R   0.449496 0.896204 0.589061 -0.000843
C18   C     C_R   0.550504 0.103796 0.410938 -0.000844
C19   C     C_R   0.499922 0.948184 0.499932 0.089287
C20   C     C_R   0.500078 0.051815 0.500067 0.089287
C21   C     C_R   0.599877 0.949064 0.321503 -0.217658
C22   C     C_R   0.400122 0.050935 0.678496 -0.217655
C23   C     C_R   0.399781 0.948298 0.678270 -0.219696
C24   C     C_R   0.600219 0.051702 0.321729 -0.219692
C25   C     C_R   0.498369 0.499335 0.259274 0.784037
C26   C     C_R   0.501631 0.500665 0.740726 0.784039
C27   C     C_3   0.430477 0.550636 0.041216 0.117014
C28   C     C_3   0.569523 0.449363 0.958785 0.117017
C29   C     C_3   0.507792 0.593028 0.963141 0.123634
C30   C     C_3   0.492208 0.406971 0.036859 0.123647
C31   C     C_3   0.424582 0.459676 0.954504 -0.270678
C32   C     C_3   0.575417 0.540323 0.045497 -0.270670
C33   C     C_3   0.502524 0.502144 0.877210 -0.100810
C34   C     C_3   0.497476 0.497855 0.122790 -0.100803
C35   C     C_R   0.816283 0.545691 0.391592 0.033791
C36   C     C_R   0.183716 0.454313 0.608407 0.033789
C37   C     C_R   0.767762 0.502621 0.491486 -0.084962
C38   C     C_R   0.232238 0.497381 0.508512 -0.084961
C39   C     C_R   0.811308 0.460359 0.591354 -0.278889
C40   C     C_R   0.188692 0.539644 0.408645 -0.278893
C41   C     C_R   0.903153 0.461670 0.596846 0.115521
C42   C     C_R   0.096847 0.538334 0.403153 0.115520
Cu1   Cu    Cu3+1 0.500000 0.597420 0.500000 0.924371
Cu2   Cu    Cu3+1 0.500000 0.402580 0.500000 0.924372
H1    H     H_    0.362574 0.426739 0.917344 0.139840
H2    H     H_    0.637425 0.573261 0.082657 0.139824
H3    H     H_    0.773029 0.427914 0.666750 0.139413
H4    H     H_    0.226971 0.572089 0.333250 0.139409
H5    H     H_    0.907441 0.396773 0.779612 0.140496
H6    H     H_    0.092559 0.603234 0.220389 0.140511
H7    H     H_    0.065492 0.394428 0.791060 0.161063
H8    H     H_    0.934507 0.605577 0.208941 0.161070
H9    H     H_    0.410272 0.752158 0.652474 0.117119
H10   H     H_    0.589729 0.247842 0.347527 0.117119
H11   H     H_    0.585952 0.752773 0.343477 0.131206
H12   H     H_    0.414044 0.247226 0.656518 0.131211
H13   H     H_    0.638587 0.910776 0.251743 0.153725
H14   H     H_    0.361411 0.089223 0.748255 0.153727
H15   H     H_    0.360835 0.909711 0.748039 0.142580
H16   H     H_    0.639164 0.090289 0.251960 0.142581
N1    N     N_R   0.500000 0.743810 0.500000 -0.181552
N2    N     N_R   0.500000 0.256190 0.500000 -0.181551
O1    O     O_R   0.370260 0.582280 0.500030 -0.579560
O2    O     O_R   0.629740 0.417720 0.499970 -0.579559
O3    O     O_R   0.629740 0.582280 0.499970 -0.578874
O4    O     O_R   0.370260 0.417720 0.500030 -0.578873
O5    O     O_R   0.499980 0.582260 0.316850 -0.593818
O6    O     O_R   0.500020 0.417740 0.683150 -0.593816
O7    O     O_R   0.500020 0.582260 0.683150 -0.596970
O8    O     O_R   0.499980 0.417740 0.316850 -0.596971
C43   C     C_3   0.349322 0.604005 0.091059 -0.399533
C44   C     C_3   0.292358 0.642019 0.984058 -0.352041
C45   C     C_3   0.231289 0.722794 0.029179 -0.855986
H17   H     H_    0.190319 0.697555 0.109140 0.250521
H18   H     H_    0.270828 0.788024 0.058902 0.249292
H19   H     H_    0.186924 0.743931 0.951944 0.244170
H20   H     H_    0.334393 0.671605 0.907464 0.218229
H21   H     H_    0.251851 0.580728 0.944583 0.208886
H22   H     H_    0.309022 0.552195 0.147725 0.173711
H23   H     H_    0.371690 0.664442 0.153907 0.209020
C46   C     C_3   0.650681 0.395991 0.908954 -0.399543
C47   C     C_3   0.707626 0.357962 0.015967 -0.352038
C48   C     C_3   0.768714 0.277205 0.970845 -0.855984
H24   H     H_    0.729188 0.211992 0.941020 0.249295
H25   H     H_    0.809732 0.302483 0.890955 0.250515
H26   H     H_    0.813032 0.256022 0.048111 0.244169
H27   H     H_    0.748117 0.419250 0.055485 0.208890
H28   H     H_    0.665577 0.328353 0.092529 0.218228
H29   H     H_    0.628316 0.335561 0.846094 0.209012
H30   H     H_    0.690993 0.447802 0.852306 0.173726
C49   C     C_3   0.524079 0.698049 0.918705 -0.376324
C50   C     C_3   0.512241 0.774261 0.023335 -0.362946
C51   C     C_3   0.554046 0.872221 0.987133 -0.870017
H31   H     H_    0.626950 0.865637 0.977229 0.257526
H32   H     H_    0.526143 0.897531 0.897428 0.264430
H33   H     H_    0.539862 0.927491 0.060877 0.251952
H34   H     H_    0.440656 0.785688 0.040223 0.228549
H35   H     H_    0.541934 0.749108 0.111732 0.219798
H36   H     H_    0.592467 0.702729 0.879899 0.208455
H37   H     H_    0.477537 0.714720 0.842704 0.192014
C52   C     C_3   0.475913 0.301948 0.081290 -0.376352
C53   C     C_3   0.487775 0.225737 0.976666 -0.362951
C54   C     C_3   0.445960 0.127777 0.012849 -0.870013
H38   H     H_    0.473838 0.102468 0.102572 0.264433
H39   H     H_    0.373053 0.134360 0.022712 0.257524
H40   H     H_    0.460164 0.072507 0.939114 0.251953
H41   H     H_    0.458105 0.250890 0.888254 0.219804
H42   H     H_    0.559364 0.214308 0.959813 0.228552
H43   H     H_    0.522437 0.285278 0.157312 0.192023
H44   H     H_    0.407517 0.297267 0.120067 0.208457
C55   C     C_3   0.769003 0.595016 0.284516 -0.417353
C56   C     C_3   0.782624 0.706605 0.290788 -0.315124
C57   C     C_3   0.761201 0.753534 0.166156 -0.904543
H45   H     H_    0.804909 0.724606 0.090974 0.258126
H46   H     H_    0.691340 0.738293 0.141171 0.255351
H47   H     H_    0.772051 0.833744 0.173236 0.244834
H48   H     H_    0.739783 0.737442 0.365596 0.220679
H49   H     H_    0.851879 0.727007 0.315070 0.226323
H50   H     H_    0.793004 0.564382 0.194116 0.180088
H51   H     H_    0.696961 0.578822 0.284747 0.187306
C58   C     C_3   0.230997 0.404992 0.715485 -0.417355
C59   C     C_3   0.217380 0.293404 0.709216 -0.315117
C60   C     C_3   0.238830 0.246475 0.833839 -0.904563
H52   H     H_    0.308702 0.261700 0.858780 0.255347
H53   H     H_    0.195151 0.275418 0.909044 0.258132
H54   H     H_    0.227964 0.166269 0.826769 0.244833
H55   H     H_    0.148121 0.272999 0.684961 0.226318
H56   H     H_    0.260209 0.262570 0.634390 0.220685
H57   H     H_    0.303038 0.421190 0.715255 0.187315
H58   H     H_    0.206994 0.435625 0.805884 0.180081

loop_
_geom_bond_atom_site_label_1
_geom_bond_atom_site_label_2
_ccdc_geom_bond_type
C14   H12   S    
C52   C53   S    
C27   C29   S    
C45   H17   S    
Cu2   O4    S    
C55   C56   S    
C25   O5    A    
C58   H58   S    
C2    O3    A    
C10   H8    S    
C6    C9    A    
C43   H22   S    
C46   C47   S    
Cu1   O1    S    
C60   H52   S    
C39   C41   A    
Cu2   O2    S    
C23   H15   S    
C51   H31   S    
C18   C24   A    
C35   C37   A    
C8    C42   A    
C29   C32   S    
C30   C31   S    
C60   H53   S    
C52   H43   S    
C47   H27   S    
C14   N2    A    
C29   C33   S    
C55   H50   S    
C59   H55   S    
C51   H32   S    
C56   C57   S    
C44   H21   S    
C3    C41   A    
C19   C20   A    
C9    H7    S    
C31   C33   S    
Cu2   O8    S    
C49   H37   S    
C11   H9    S    
Cu1   O3    S    
C25   C34   S    
C57   H47   S    
C46   H29   S    
C40   C42   A    
Cu1   O7    S    
C38   C40   A    
C35   C55   S    
C45   H18   S    
C1    O1    A    
C43   H23   S    
C2    O2    A    
C50   H34   S    
C27   C34   S    
C30   C34   S    
C50   H35   S    
C28   C32   S    
C7    H5    S    
C4    C6    A    
C49   C50   S    
C60   H54   S    
Cu2   N2    S    
C52   H44   S    
C27   C31   S    
C55   H51   S    
C32   C34   S    
C15   C19   A    
Cu1   Cu2   S    
C21   H13   S    
C44   H20   S    
C12   N2    A    
C26   C33   S    
C48   H24   S    
C16   C20   A    
C1    O4    A    
C53   H41   S    
C54   H39   S    
C17   C23   A    
C53   H42   S    
C58   C59   S    
C1    C38   S    
C46   H30   S    
C8    C10   A    
C48   H25   S    
C28   C33   S    
C51   H33   S    
C13   C15   A    
C45   H19   S    
C14   C16   A    
Cu2   O6    S    
C13   H11   S    
C3    C4    A    
C8    H6    S    
C29   C49   S    
C27   C43   S    
Cu1   N1    S    
C39   H3    S    
C57   H45   S    
C40   H4    S    
C11   C17   A    
C16   C22   A    
C28   C46   S    
C32   H2    S    
C58   H57   S    
C44   C45   S    
C3    C5    A    
C22   H14   S    
C25   O8    A    
C26   O6    A    
C43   C44   S    
C28   C30   S    
C36   C58   S    
C5    C10   A    
C37   C39   A    
C56   H49   S    
C2    C37   S    
C56   H48   S    
C4    C42   A    
C47   H28   S    
C5    C35   A    
C30   C52   S    
C36   C38   A    
C50   C51   S    
C17   C19   A    
C6    C36   A    
C54   H40   S    
C18   C20   A    
C7    C41   A    
C11   N1    A    
C59   H56   S    
C53   C54   S    
C7    C9    A    
C15   C21   A    
C48   H26   S    
C13   N1    A    
Cu1   O5    S    
C47   C48   S    
C31   H1    S    
C21   C24   A    
C12   C18   A    
C54   H38   S    
C26   O7    A    
C22   C23   A    
C24   H16   S    
C49   H36   S    
C59   C60   S    
C12   H10   S    
C57   H46   S    
