data_mof_unit_31212.cif
_audit_creation_date              2012-10-26T20:43:33-0400
_audit_creation_method            fapswitch 2.2
_symmetry_space_group_name_H-M    P1
_symmetry_Int_Tables_number       1
_space_group_crystal_system       triclinic
_cell_length_a                    10.875023
_cell_length_b                    9.505314
_cell_length_c                    23.560207
_cell_angle_alpha                 90.000688
_cell_angle_beta                  90.260192
_cell_angle_gamma                 90.000329
_cell_volume                      2435.40546236

loop_
_atom_site_label
_atom_site_type_symbol
_atom_type_description
_atom_site_fract_x
_atom_site_fract_y
_atom_site_fract_z
_atom_type_partial_charge
C1    C     C_R   0.261967 0.500007 0.499986 0.547429
C2    C     C_R   0.553932 0.390193 0.700197 -0.141363
C3    C     C_R   0.443642 0.385736 0.240801 -0.051708
C4    C     C_R   0.556215 0.385618 0.759201 -0.051689
C5    C     C_R   0.502185 0.490575 0.209310 0.213418
C6    C     C_R   0.497867 0.490594 0.790695 0.213464
C7    C     C_R   0.063729 0.372271 0.499990 -0.128699
C8    C     C_R   0.936267 0.627790 0.499990 -0.130326
C9    C     C_R   0.936270 0.372271 0.500012 -0.128692
C10   C     C_R   0.063733 0.627790 0.500002 -0.130327
C11   C     C_R   0.871871 0.500026 0.500002 0.019710
C12   C     C_R   0.738033 0.500007 0.500013 0.547407
C13   C     C_R   0.128128 0.500026 0.499996 0.019710
C14   C     C_R   0.423204 0.074461 0.464768 0.024396
C15   C     C_R   0.576789 0.925532 0.535233 0.022399
C16   C     C_R   0.576795 0.074464 0.535232 0.024433
C17   C     C_R   0.423211 0.925529 0.464767 0.022348
C18   C     C_R   0.503680 0.500072 0.391016 0.533562
C19   C     C_R   0.496325 0.500074 0.608985 0.533595
C20   C     C_R   0.608186 0.492212 0.880036 0.398362
C21   C     C_R   0.391870 0.492323 0.119966 0.398352
C22   C     C_R   0.390076 0.473879 0.879881 0.396306
C23   C     C_R   0.564144 0.599636 0.237342 -0.019564
C24   C     C_R   0.609960 0.473736 0.120120 0.396289
C25   C     C_R   0.386690 0.482561 0.939798 0.029413
C26   C     C_R   0.613353 0.482448 0.060205 0.029421
C27   C     C_R   0.499765 0.480886 0.969942 -0.058571
C28   C     C_R   0.500280 0.480882 0.030060 -0.058567
C29   C     C_R   0.612341 0.479693 0.939859 0.029053
C30   C     C_R   0.387708 0.479789 0.060143 0.029062
C31   C     C_R   0.274464 0.489374 0.970227 0.014594
C32   C     C_R   0.725582 0.489191 0.029779 0.014614
C33   C     C_R   0.275099 0.471095 0.029693 0.014929
C34   C     C_R   0.436096 0.599796 0.762668 -0.019596
C35   C     C_R   0.724946 0.470922 0.970312 0.014907
C36   C     C_3   0.155416 0.530571 0.940911 -0.348351
C37   C     C_3   0.844635 0.530343 0.059100 -0.348369
C38   C     C_3   0.157062 0.428668 0.059092 -0.349654
C39   C     C_3   0.842978 0.428465 0.940915 -0.349633
C40   C     C_2   0.647259 0.714052 0.324340 0.240274
C41   C     C_2   0.353178 0.714418 0.675683 0.240308
C42   C     C_R   0.569832 0.604381 0.296858 -0.014261
C43   C     C_R   0.430397 0.604546 0.703154 -0.014249
C44   C     C_R   0.507504 0.499293 0.328522 -0.028870
C45   C     C_R   0.492513 0.499301 0.671482 -0.028899
C46   C     C_R   0.445906 0.390320 0.299805 -0.141388
Cu1   Cu    Cu3+1 0.500000 0.640660 0.500000 0.939089
Cu2   Cu    Cu3+1 0.500000 0.359340 0.500000 0.956635
H1    H     H_    0.610581 0.678827 0.212232 0.174924
H2    H     H_    0.111602 0.727729 0.500005 0.132044
H3    H     H_    0.361727 0.130694 0.436562 0.109598
H4    H     H_    0.638261 0.869295 0.563435 0.118718
H5    H     H_    0.638272 0.130698 0.563438 0.109598
H6    H     H_    0.361738 0.869291 0.436565 0.118707
H7    H     H_    0.172057 0.615021 0.909304 0.179054
H8    H     H_    0.113280 0.437325 0.920210 0.176433
H9    H     H_    0.088783 0.577154 0.970948 0.101661
H10   H     H_    0.828008 0.614753 0.090727 0.179050
H11   H     H_    0.886771 0.437069 0.079778 0.176431
H12   H     H_    0.389805 0.679096 0.787780 0.174849
H13   H     H_    0.911256 0.576968 0.029067 0.101647
H14   H     H_    0.175380 0.345862 0.091281 0.175659
H15   H     H_    0.113880 0.521851 0.079184 0.176252
H16   H     H_    0.090745 0.379773 0.029188 0.102846
H17   H     H_    0.824647 0.345634 0.908737 0.175689
H18   H     H_    0.886161 0.521630 0.920811 0.176243
H19   H     H_    0.909305 0.379592 0.970820 0.102861
H20   H     H_    0.679117 0.701936 0.367703 0.138608
H21   H     H_    0.321078 0.702250 0.632359 0.138586
H22   H     H_    0.398210 0.308831 0.323151 0.133813
H23   H     H_    0.601475 0.308588 0.676849 0.133894
H24   H     H_    0.396324 0.300439 0.219452 0.142921
H25   H     H_    0.603391 0.300219 0.780549 0.142919
H26   H     H_    0.111588 0.272328 0.499970 0.132989
H27   H     H_    0.888398 0.727729 0.499983 0.132050
H28   H     H_    0.888412 0.272327 0.500037 0.132989
N1    N     N_R   0.498842 0.485002 0.851700 -0.394256
N2    N     N_R   0.501206 0.484985 0.148304 -0.394258
N3    N     N_R   0.500000 0.852070 0.500000 -0.230460
N4    N     N_R   0.500000 0.147930 0.500000 -0.224801
O1    O     O_R   0.319640 0.618740 0.500000 -0.513917
O2    O     O_2   0.288625 0.517101 0.149843 -0.506027
O3    O     O_2   0.286609 0.449906 0.849623 -0.502130
O4    O     O_2   0.713407 0.449605 0.150373 -0.502089
O5    O     O_2   0.678768 0.819005 0.298272 -0.499397
O6    O     O_2   0.322128 0.819604 0.701717 -0.499452
O7    O     O_R   0.680360 0.381260 0.500000 -0.506436
O8    O     O_R   0.680360 0.618740 0.500000 -0.513936
O9    O     O_R   0.319640 0.381260 0.500000 -0.506433
O10   O     O_R   0.499960 0.618810 0.417880 -0.512428
O11   O     O_R   0.500040 0.381190 0.582120 -0.493635
O12   O     O_R   0.500040 0.618810 0.582120 -0.512408
O13   O     O_R   0.499960 0.381190 0.417880 -0.493634
O14   O     O_2   0.711450 0.516848 0.850154 -0.506042

loop_
_geom_bond_atom_site_label_1
_geom_bond_atom_site_label_2
_ccdc_geom_bond_type
C25   C31   A    
C26   C32   A    
C27   C29   A    
C39   H17   S    
Cu1   O12   S    
C2    C4    A    
Cu1   N3    S    
C41   O6    D    
C23   C42   A    
C20   N1    A    
C24   C26   A    
C23   H1    S    
C1    O1    A    
C15   C16   A    
C17   N3    A    
C16   H5    S    
C19   O12   A    
C15   N3    A    
C14   H3    S    
C22   C25   A    
C21   N2    A    
C31   C33   A    
C9    H28   S    
C14   N4    A    
C37   H10   S    
C30   C33   A    
C40   C42   S    
C34   H12   S    
C41   C43   S    
C14   C17   A    
C42   C44   A    
C44   C46   A    
C7    H26   S    
C38   H16   S    
C20   C29   A    
C2    C45   A    
Cu2   O13   S    
C12   O8    A    
C18   O10   A    
C32   C35   A    
C4    C6    A    
C36   H9    S    
C6    N1    S    
C15   H4    S    
Cu2   O11   S    
C8    H27   S    
C6    C34   A    
C16   N4    A    
C40   O5    D    
C35   C39   S    
C36   H8    S    
C18   C44   S    
C9    C11   A    
Cu1   Cu2   S    
C5    C23   A    
Cu2   O7    S    
C32   C37   S    
C43   C45   A    
C4    H25   S    
C37   H11   S    
C24   N2    A    
Cu2   O9    S    
C39   H18   S    
C1    C13   S    
C2    H23   S    
C10   H2    S    
C41   H21   S    
C38   H15   S    
C7    C9    A    
C20   O14   S    
C1    O9    A    
C12   O7    A    
C39   H19   S    
C34   C43   A    
C22   N1    A    
C3    C5    A    
C10   C13   A    
C37   H13   S    
C11   C12   S    
C19   C45   S    
C25   C27   A    
C21   C30   A    
C29   C35   A    
C3    C46   A    
C26   C28   A    
C33   C38   S    
Cu1   O8    S    
Cu2   N4    S    
C28   C30   A    
C3    H24   S    
C24   O4    S    
C36   H7    S    
C22   O3    S    
C8    C11   A    
Cu1   O10   S    
Cu1   O1    S    
C46   H22   S    
C19   O11   A    
C7    C13   A    
C21   O2    S    
C8    C10   A    
C40   H20   S    
C27   C28   A    
C18   O13   A    
C31   C36   S    
C5    N2    S    
C17   H6    S    
C38   H14   S    
