data_mof_unit_51913.cif
_audit_creation_date              2013-03-05T15:40:52-0500
_audit_creation_method            fapswitch 2.2
_symmetry_space_group_name_H-M    P1
_symmetry_Int_Tables_number       1
_space_group_crystal_system       triclinic
_cell_length_a                    16.948941
_cell_length_b                    16.703051
_cell_length_c                    16.70513
_cell_angle_alpha                 65.573381
_cell_angle_beta                  65.789962
_cell_angle_gamma                 65.753924
_cell_volume                      3758.05894047

loop_
_atom_site_label
_atom_site_type_symbol
_atom_site_description
_atom_site_fract_x
_atom_site_fract_y
_atom_site_fract_z
_atom_type_partial_charge
O1    O     O_R   0.982940 0.138950 0.510160 -0.622493
O2    O     O_R   0.017060 0.861050 0.489840 -0.653414
O3    O     O_R   0.138950 0.510160 0.982940 -0.661505
O4    O     O_R   0.861050 0.489840 0.017060 -0.636261
O5    O     O_R   0.510160 0.982940 0.138950 -0.647481
O6    O     O_R   0.489840 0.017060 0.861050 -0.645196
O7    O     O_R   0.489840 0.861050 0.017060 -0.641928
O8    O     O_R   0.510160 0.138950 0.982940 -0.641591
O9    O     O_R   0.017060 0.489840 0.861050 -0.661035
O10   O     O_R   0.982940 0.510160 0.138950 -0.638826
O11   O     O_R   0.861050 0.017060 0.489840 -0.646302
O12   O     O_R   0.138950 0.982940 0.510160 -0.696705
O13   O     O_R   0.867700 0.025880 0.612340 -0.555265
O14   O     O_R   0.132300 0.974120 0.387660 -0.560214
O15   O     O_R   0.025880 0.612340 0.867700 -0.560760
O16   O     O_R   0.974120 0.387660 0.132300 -0.546134
O17   O     O_R   0.612340 0.867700 0.025880 -0.565017
O18   O     O_R   0.387660 0.132300 0.974120 -0.549549
O19   O     O_R   0.387660 0.974120 0.132300 -0.548279
O20   O     O_R   0.612340 0.025880 0.867700 -0.565701
O21   O     O_R   0.132300 0.387660 0.974120 -0.579970
O22   O     O_R   0.867700 0.612340 0.025880 -0.552679
O23   O     O_R   0.974120 0.132300 0.387660 -0.545084
O24   O     O_R   0.025880 0.867700 0.612340 -0.573044
C1    C     C_R   0.406291 0.043149 0.662523 -0.215894
C2    C     C_R   0.602645 0.922003 0.347689 -0.201791
C3    C     C_R   0.988332 0.664922 0.440201 -0.207084
C4    C     C_R   0.091847 0.279809 0.554887 -0.201289
C5    C     C_R   0.690192 0.465169 0.928660 -0.199355
C6    C     C_R   0.310582 0.534366 0.070613 -0.197748
C7    C     C_R   0.328820 0.962180 0.597058 -0.229651
C8    C     C_R   0.696878 0.924274 0.461264 -0.204134
C9    C     C_R   0.599125 0.353282 0.919621 -0.196684
C10   C     C_R   0.401440 0.646643 0.079058 -0.197388
C11   C     C_R   0.040686 0.564003 0.312538 -0.213672
C12   C     C_R   0.108943 0.381820 0.654350 -0.198900
C13   C     C_R   0.011961 0.157097 0.423839 0.941963
C14   C     C_R   0.027182 0.820749 0.567889 0.904153
C15   C     C_R   0.177485 0.431058 0.976390 0.874740
C16   C     C_R   0.822751 0.569116 0.022971 0.959652
C17   C     C_R   0.438694 0.959848 0.179783 0.913043
C18   C     C_R   0.561127 0.039430 0.820393 0.902891
C19   C     C_R   0.560356 0.820519 0.041526 0.897636
C20   C     C_R   0.439791 0.179438 0.958128 0.912706
C21   C     C_R   0.048304 0.556758 0.821884 0.912700
C22   C     C_R   0.005244 0.424199 0.163491 0.917104
C23   C     C_R   0.822933 0.022679 0.568896 0.947479
C24   C     C_R   0.179437 0.961410 0.437989 0.895550
Zn1   Zn    Zn3+2 0.004880 0.004880 0.583590 1.046783
Zn2   Zn    Zn3+2 0.995120 0.995120 0.416410 1.076154
Zn3   Zn    Zn3+2 0.004880 0.583590 0.004880 1.062844
Zn4   Zn    Zn3+2 0.995120 0.416410 0.995120 1.066908
Zn5   Zn    Zn3+2 0.583590 0.004880 0.004880 1.061888
Zn6   Zn    Zn3+2 0.416410 0.995120 0.995120 1.085518
H1    H     H_    0.333298 0.061749 0.686075 0.146528
H2    H     H_    0.674249 0.912890 0.316028 0.150271
H3    H     H_    0.955429 0.702007 0.386350 0.147107
H4    H     H_    0.109446 0.237386 0.617737 0.138878
H5    H     H_    0.732670 0.420894 0.885597 0.146081
H6    H     H_    0.268142 0.578271 0.114077 0.141153
H7    H     H_    0.294062 0.963772 0.667245 0.151758
H8    H     H_    0.740262 0.886151 0.412412 0.141291
H9    H     H_    0.671848 0.329002 0.897583 0.151770
H10   H     H_    0.328707 0.670913 0.100994 0.151537
H11   H     H_    0.042231 0.634586 0.279107 0.148515
H12   H     H_    0.132025 0.308151 0.681453 0.149595
C25   C     C_R   0.448835 0.066055 0.702401 -0.104950
C26   C     C_R   0.556029 0.916155 0.299110 -0.102241
C27   C     C_R   0.983836 0.714099 0.492057 -0.146168
C28   C     C_R   0.082863 0.234897 0.506118 -0.139362
C29   C     C_R   0.733379 0.510470 0.943739 -0.147905
C30   C     C_R   0.267466 0.489161 0.055388 -0.137680
C31   C     C_R   0.287917 0.940288 0.555081 -0.119232
C32   C     C_R   0.738732 0.940722 0.506941 -0.151463
C33   C     C_R   0.554094 0.304414 0.911813 -0.101932
C34   C     C_R   0.446365 0.695573 0.086871 -0.106190
C35   C     C_R   0.045238 0.516254 0.259472 -0.153952
C36   C     C_R   0.109360 0.432984 0.702520 -0.103071
C37   C     C_R   0.550721 0.988511 0.557189 0.037723
C38   C     C_R   0.463375 0.952805 0.468192 0.041001
C39   C     C_R   0.056079 0.522797 0.541674 0.037143
C40   C     C_R   0.056795 0.424288 0.438383 0.035732
C41   C     C_R   0.544926 0.548364 0.010899 0.036252
C42   C     C_R   0.455740 0.451553 0.987882 0.039011
C43   C     C_R   0.602213 0.952173 0.481851 0.052153
C44   C     C_R   0.415187 0.974086 0.552309 0.050113
C45   C     C_R   0.081308 0.425279 0.573502 0.035811
C46   C     C_R   0.040672 0.520300 0.404213 0.050301
C47   C     C_R   0.449231 0.571656 0.041900 0.037477
C48   C     C_R   0.551433 0.428215 0.956894 0.038101
C49   C     C_R   0.557263 0.942355 0.432064 0.039464
C50   C     C_R   0.456513 0.001368 0.591493 0.042445
C51   C     C_R   0.404664 0.521004 0.032780 0.051661
C52   C     C_R   0.596041 0.478783 0.966154 0.050210
C53   C     C_R   0.076499 0.375816 0.523797 0.047875
C54   C     C_R   0.029880 0.569757 0.460409 0.051564
C55   C     C_R   0.543518 0.045784 0.674938 0.025848
C56   C     C_R   0.461587 0.930930 0.331909 0.023710
C57   C     C_R   0.027290 0.671605 0.561591 0.032913
C58   C     C_R   0.057669 0.283483 0.424126 0.032502
C59   C     C_R   0.685095 0.570344 0.998663 0.022852
C60   C     C_R   0.315518 0.429645 0.000242 0.028974
C61   C     C_R   0.326012 0.940970 0.461919 0.029108
C62   C     C_R   0.688529 0.992127 0.570409 0.027322
C63   C     C_R   0.459459 0.328854 0.939361 0.019907
C64   C     C_R   0.540992 0.671188 0.059398 0.021540
C65   C     C_R   0.040431 0.424792 0.297916 0.039990
C66   C     C_R   0.081885 0.529620 0.672456 0.015752
C67   C     C_R   0.590013 0.059288 0.720677 -0.210188
C68   C     C_R   0.410573 0.932141 0.280784 -0.229996
C69   C     C_R   0.043192 0.721460 0.602985 -0.248504
C70   C     C_R   0.040806 0.240671 0.376717 -0.236413
C71   C     C_R   0.727546 0.606521 0.029341 -0.261789
C72   C     C_R   0.272802 0.393585 0.969781 -0.216205
C73   C     C_R   0.278394 0.936832 0.410189 -0.218412
C74   C     C_R   0.728521 0.026341 0.606045 -0.254616
C75   C     C_R   0.411208 0.279751 0.933613 -0.216857
C76   C     C_R   0.589084 0.720244 0.065460 -0.210702
C77   C     C_R   0.029943 0.377404 0.249672 -0.250486
C78   C     C_R   0.077995 0.583681 0.721770 -0.213580
C79   C     C_R   0.676030 0.067086 0.676152 0.236321
C80   C     C_R   0.324814 0.920678 0.325304 0.252351
C81   C     C_R   0.078616 0.673779 0.677529 0.244223
C82   C     C_R   0.042053 0.283147 0.285460 0.221533
C83   C     C_R   0.676383 0.677002 0.069971 0.242007
C84   C     C_R   0.323803 0.323028 0.929252 0.263107
C85   C     C_R   0.594017 0.010169 0.599783 0.074136
C86   C     C_R   0.417088 0.941233 0.420703 0.073069
C87   C     C_R   0.056652 0.574444 0.591004 0.076907
C88   C     C_R   0.052041 0.377317 0.386655 0.081947
C89   C     C_R   0.590113 0.595622 0.024220 0.079531
C90   C     C_R   0.410475 0.404394 0.974528 0.075443
H13   H     H_    0.406424 0.102026 0.753444 0.194471
H14   H     H_    0.596504 0.895600 0.237565 0.200097
H15   H     H_    0.944190 0.784943 0.476670 0.159164
H16   H     H_    0.099017 0.160843 0.532336 0.166514
H17   H     H_    0.804862 0.499303 0.909176 0.172466
H18   H     H_    0.196285 0.499878 0.090014 0.148362
H19   H     H_    0.227967 0.919590 0.599402 0.205227
H20   H     H_    0.810857 0.910623 0.492075 0.156286
H21   H     H_    0.594220 0.249279 0.880703 0.197112
H22   H     H_    0.406131 0.750675 0.117988 0.201102
H23   H     H_    0.055649 0.553515 0.187814 0.167566
H24   H     H_    0.133803 0.396094 0.762410 0.198263
N1    N     N_R   0.707800 0.118316 0.701803 0.223428
O25   O     O_R   0.759784 0.075963 0.755581 -0.353666
O26   O     O_R   0.668855 0.206164 0.688086 -0.384409
N2    N     N_R   0.288238 0.884954 0.287508 0.218914
O27   O     O_R   0.318337 0.797781 0.294602 -0.402670
O28   O     O_R   0.235150 0.939768 0.235965 -0.321400
N3    N     N_R   0.117846 0.714186 0.707681 0.223186
O29   O     O_R   0.067016 0.765743 0.761766 -0.354967
O30   O     O_R   0.204686 0.684926 0.695351 -0.377156
N4    N     N_R   0.066707 0.228185 0.226661 0.213817
O31   O     O_R   0.005345 0.213138 0.211385 -0.331711
O32   O     O_R   0.151330 0.184715 0.196644 -0.376424
N5    N     N_R   0.710758 0.704741 0.117175 0.223813
O33   O     O_R   0.673823 0.693421 0.204926 -0.386765
O34   O     O_R   0.762747 0.758457 0.071175 -0.355398
N6    N     N_R   0.289097 0.295230 0.882409 0.208551
O35   O     O_R   0.237202 0.241431 0.928652 -0.342539
O36   O     O_R   0.325027 0.307366 0.794460 -0.410544

loop_
_geom_bond_atom_site_label_1
_geom_bond_atom_site_label_2
_geom_bond_distance
_ccdc_geom_bond_type
C46   C54   1.404846 A    
O9    C21   1.246993 A    
N5    O33   1.300698 A    
C56   C68   1.433321 A    
C82   N4    1.440933 S    
C59   C71   1.435640 A    
C7    H7    1.081160 S    
O11   C23   1.234197 A    
C1    C25   1.393376 A    
O12   C24   1.237381 A    
C4    H4    1.077657 S    
C35   H23   1.073406 S    
O12   Zn1   2.050429 S    
C43   C49   1.426236 A    
C29   H17   1.079717 S    
C77   C82   1.391045 A    
C6    C30   1.390426 A    
O4    Zn4   2.049847 S    
C4    C53   1.410080 A    
O5    Zn5   2.027055 S    
C25   H13   1.082158 S    
C18   C67   1.460141 S    
C60   C90   1.406400 A    
C70   C82   1.385342 A    
C6    C51   1.410587 A    
O18   C20   1.294524 A    
C8    C32   1.392246 A    
C5    C52   1.410839 A    
C72   C84   1.392018 A    
C58   C88   1.404354 A    
C7    C31   1.387449 A    
C71   C83   1.392207 A    
C11   H11   1.082274 S    
C36   C66   1.406581 A    
C66   C78   1.421310 A    
C13   C70   1.464035 S    
C38   C44   1.414685 A    
C33   H21   1.082723 S    
C62   C74   1.439045 A    
C9    C33   1.395411 A    
O4    C16   1.238596 A    
C6    H6    1.077570 S    
O10   C22   1.251810 A    
C32   C62   1.413613 A    
O24   C14   1.273128 A    
N3    O29   1.302253 A    
C48   C52   1.427377 A    
C76   C83   1.373068 A    
O7    C19   1.249424 A    
C40   C88   1.427753 A    
O2    Zn2   2.018931 S    
C75   C84   1.373999 A    
N4    O32   1.300654 A    
C3    C27   1.383436 A    
C78   C81   1.377630 A    
C55   C85   1.407436 A    
C56   C86   1.409128 A    
C29   C59   1.408037 A    
O17   Zn5   2.041829 S    
O22   C16   1.270873 A    
N5    O34   1.302190 A    
C7    C44   1.399939 A    
C64   C76   1.425108 A    
C28   H16   1.081168 S    
C63   C75   1.425184 A    
C3    C54   1.402973 A    
C64   C89   1.407376 A    
O9    Zn4   2.019481 S    
C42   C48   1.417577 A    
O6    Zn6   2.027055 S    
C65   C88   1.415579 A    
O10   Zn3   2.019481 S    
C65   C77   1.438165 A    
N1    O26   1.300669 A    
C28   C58   1.411642 A    
N1    O25   1.302094 A    
C63   C90   1.406787 A    
C12   C45   1.413905 A    
C23   C74   1.444307 S    
C41   C47   1.417636 A    
C81   N3    1.440747 S    
C74   C79   1.390550 A    
C57   C87   1.414420 A    
C69   C81   1.394881 A    
O16   Zn4   2.042065 S    
C35   C65   1.414492 A    
N2    O27   1.300456 A    
C3    H3    1.082050 S    
O16   C22   1.294254 A    
O13   C23   1.273690 A    
C39   C54   1.408191 A    
O3    Zn3   2.049847 S    
O23   Zn2   2.041507 S    
O14   C24   1.286164 A    
C31   H19   1.077006 S    
C2    C49   1.409319 A    
O23   C13   1.300498 A    
C41   C52   1.421405 A    
C32   H20   1.076242 S    
C42   C90   1.428580 A    
C45   C53   1.434167 A    
N6    O36   1.300665 A    
C61   C73   1.438805 A    
O17   C19   1.294876 A    
C41   C89   1.428543 A    
C60   C72   1.435147 A    
C36   H24   1.082895 S    
C55   C67   1.427599 A    
C11   C46   1.397671 A    
O2    C14   1.243074 A    
C12   H12   1.077643 S    
C39   C87   1.422938 A    
C16   C71   1.446233 S    
O21   C15   1.271170 A    
C9    H9    1.077035 S    
C15   C72   1.447156 S    
C57   C69   1.434453 A    
C10   H10   1.077129 S    
N4    O31   1.302040 A    
C61   C86   1.410062 A    
O8    C20   1.250114 A    
C66   C87   1.402357 A    
C39   C45   1.420164 A    
C24   C73   1.466485 S    
O13   Zn1   2.076835 S    
C59   C89   1.406864 A    
O19   Zn6   2.042470 S    
C33   C63   1.401186 A    
O15   Zn3   2.042065 S    
C17   C68   1.471032 S    
C79   N1    1.441069 S    
O15   C21   1.285072 A    
C27   C57   1.409224 A    
C37   C43   1.417684 A    
C21   C78   1.458097 S    
C37   C50   1.412000 A    
O24   Zn1   2.041509 S    
O5    C17   1.252885 A    
C1    C50   1.409997 A    
C34   C64   1.401124 A    
C40   C53   1.419949 A    
C4    C28   1.396685 A    
C1    H1    1.080775 S    
N2    O28   1.302334 A    
O20   Zn5   2.042470 S    
C2    H2    1.078978 S    
O8    Zn5   2.025917 S    
O20   C18   1.297112 A    
C58   C70   1.429033 A    
C84   N6    1.440923 S    
C38   C86   1.429671 A    
O18   Zn6   2.041831 S    
C2    C26   1.395399 A    
N6    O35   1.302170 A    
C38   C49   1.413610 A    
C26   H14   1.079604 S    
C10   C47   1.416880 A    
C37   C85   1.426472 A    
O11   Zn2   2.050429 S    
C12   C36   1.398674 A    
C9    C48   1.417194 A    
C68   C80   1.388054 A    
C67   C79   1.371920 A    
O14   Zn2   2.076835 S    
C62   C85   1.406671 A    
C30   C60   1.406169 A    
C20   C75   1.462307 S    
C40   C46   1.408270 A    
C8    C43   1.405577 A    
C30   H18   1.076132 S    
C11   C35   1.380574 A    
C22   C77   1.467548 S    
C83   N5    1.441048 S    
C42   C51   1.421262 A    
N3    O30   1.300540 A    
C47   C51   1.426682 A    
C26   C56   1.411170 A    
C25   C55   1.406697 A    
C19   C76   1.462268 S    
C8    H8    1.079444 S    
C80   N2    1.440620 S    
C31   C61   1.416425 A    
C27   H15   1.074650 S    
O6    C18   1.244432 A    
C73   C80   1.389125 A    
C5    H5    1.077341 S    
O22   Zn3   2.076753 S    
C44   C50   1.418300 A    
O7    Zn6   2.025919 S    
C14   C69   1.457555 S    
O1    Zn1   2.018931 S    
O21   Zn4   2.076754 S    
O3    C15   1.239536 A    
O19   C17   1.292725 A    
C10   C34   1.394862 A    
O1    C13   1.261908 A    
C5    C29   1.391249 A    
C34   H22   1.082494 S    
