data_mof_unit_40271.cif
_audit_creation_date              2012-12-11T14:30:21-0500
_audit_creation_method            fapswitch 2.2
_symmetry_space_group_name_H-M    P1
_symmetry_Int_Tables_number       1
_space_group_crystal_system       triclinic
_cell_length_a                    12.762232
_cell_length_b                    12.762304
_cell_length_c                    27.094978
_cell_angle_alpha                 90.002189
_cell_angle_beta                  89.999804
_cell_angle_gamma                 119.999966
_cell_volume                      3821.86465726

loop_
_atom_site_label
_atom_site_type_symbol
_atom_type_description
_atom_site_fract_x
_atom_site_fract_y
_atom_site_fract_z
_atom_type_partial_charge
C1    C     C_R   0.559817 0.454329 0.822672 0.536113
C2    C     C_R   0.455639 0.560424 0.177375 0.534532
C3    C     C_R   0.068034 0.342944 0.480649 0.012054
C4    C     C_R   0.274908 0.931966 0.019347 0.012071
C5    C     C_R   0.657054 0.725084 0.480656 0.012051
C6    C     C_R   0.286700 0.941240 0.532699 0.023818
C7    C     C_R   0.058737 0.345430 0.967298 0.023764
C8    C     C_R   0.654554 0.713301 0.532704 0.023776
C9    C     C_R   0.286692 0.941273 0.967300 0.023720
C10   C     C_R   0.058739 0.345431 0.532697 0.023740
C11   C     C_R   0.654586 0.713306 0.967306 0.023740
C12   C     C_2   0.080376 0.244371 0.044125 0.541521
C13   C     C_R   0.439577 0.895219 0.322624 0.534533
C14   C     C_2   0.163977 0.919585 0.455881 0.541549
C15   C     C_2   0.755631 0.836000 0.044138 0.541504
C16   C     C_2   0.080369 0.244370 0.455864 0.541489
C17   C     C_2   0.163997 0.919624 0.044131 0.541499
C18   C     C_2   0.755629 0.836000 0.455879 0.541494
C19   C     C_2   0.181731 0.913703 0.564523 0.625897
C20   C     C_2   0.086237 0.267965 0.935472 0.625981
C21   C     C_2   0.731995 0.818272 0.564532 0.626000
C22   C     C_2   0.181726 0.913782 0.935475 0.625917
C23   C     C_2   0.086232 0.267960 0.564520 0.626014
C24   C     C_R   0.104784 0.544358 0.177375 0.534532
C25   C     C_2   0.732074 0.818269 0.935485 0.625929
C26   C     C_R   0.975476 0.480918 0.975523 0.030197
C27   C     C_R   0.505447 0.024510 0.524478 0.030222
C28   C     C_R   0.519075 0.494561 0.975522 0.030203
C29   C     C_R   0.975487 0.480927 0.524478 0.030236
C30   C     C_R   0.505440 0.024520 0.975523 0.030203
C31   C     C_R   0.519071 0.494553 0.524477 0.030209
C32   C     C_R   0.492449 0.004682 0.473397 0.028679
C33   C     C_R   0.894510 0.440182 0.677327 0.536110
C34   C     C_R   0.995312 0.487755 0.026603 0.028672
C35   C     C_R   0.512236 0.507552 0.473397 0.028676
C36   C     C_R   0.492442 0.004678 0.026602 0.028675
C37   C     C_R   0.995323 0.487766 0.473398 0.028680
C38   C     C_R   0.512235 0.507557 0.026602 0.028673
C39   C     C_R   0.876564 0.600794 0.984794 -0.062195
C40   C     C_R   0.724235 0.123407 0.515213 -0.062260
C41   C     C_R   0.399173 0.275774 0.984783 -0.062251
C42   C     C_R   0.876589 0.600818 0.515215 -0.062319
C43   C     C_R   0.724229 0.123416 0.984791 -0.062222
C44   C     C_R   0.545673 0.105490 0.822673 0.536116
C45   C     C_R   0.399191 0.275766 0.515205 -0.062222
C46   C     C_R   0.711110 0.102016 0.464456 -0.091076
C47   C     C_R   0.897962 0.609066 0.035549 -0.091054
C48   C     C_R   0.390919 0.288893 0.464450 -0.091042
C49   C     C_R   0.711102 0.102020 0.035546 -0.091048
C50   C     C_R   0.897976 0.609079 0.464458 -0.091088
C51   C     C_R   0.390905 0.288898 0.035539 -0.091075
C52   C     C_R   0.900195 0.535192 0.903385 -0.088184
C53   C     C_R   0.634998 0.099784 0.596619 -0.088133
C54   C     C_R   0.464792 0.365010 0.903379 -0.088150
C55   C     C_R   0.559815 0.454325 0.677327 0.536107
C56   C     C_R   0.900206 0.535199 0.596619 -0.088074
C57   C     C_R   0.634995 0.099797 0.903384 -0.088181
C58   C     C_R   0.464800 0.364999 0.596614 -0.088173
C59   C     C_R   0.581281 0.005356 0.393359 -0.132813
C60   C     C_R   0.994638 0.575914 0.106643 -0.132812
C61   C     C_R   0.424077 0.418722 0.393357 -0.132816
C62   C     C_R   0.581275 0.005346 0.106639 -0.132815
C63   C     C_R   0.994650 0.575927 0.393362 -0.132810
C64   C     C_R   0.424068 0.418723 0.106637 -0.132817
C65   C     C_R   0.058405 0.523300 0.126619 -0.013813
C66   C     C_R   0.894512 0.440185 0.822673 0.536111
C67   C     C_R   0.464900 0.941603 0.373379 -0.013817
C68   C     C_R   0.476691 0.535103 0.126618 -0.013816
C69   C     C_R   0.058412 0.523309 0.373382 -0.013817
C70   C     C_R   0.464895 0.941586 0.126618 -0.013818
C71   C     C_R   0.476700 0.535102 0.373380 -0.013816
C72   C     C_R   0.532447 0.060473 0.626695 -0.009457
C73   C     C_R   0.939525 0.471974 0.873306 -0.009504
C74   C     C_R   0.528022 0.467547 0.626695 -0.009476
C75   C     C_R   0.532447 0.060477 0.873305 -0.009498
C76   C     C_R   0.939526 0.471970 0.626695 -0.009424
C77   C     C_R   0.545673 0.105489 0.677327 0.536119
C78   C     C_R   0.528029 0.467558 0.873304 -0.009489
C79   C     C_R   0.918152 0.540305 0.954399 0.047321
C80   C     C_R   0.622156 0.081826 0.545605 0.047329
C81   C     C_R   0.459676 0.377852 0.954392 0.047309
C82   C     C_R   0.918169 0.540319 0.545606 0.047338
C83   C     C_R   0.622151 0.081837 0.954397 0.047303
C84   C     C_R   0.459683 0.377843 0.545601 0.047306
C85   C     C_R   0.595675 0.037886 0.443480 0.023299
C86   C     C_R   0.962104 0.557774 0.056522 0.023303
C87   C     C_R   0.442215 0.404327 0.443478 0.023294
C88   C     C_R   0.455642 0.560426 0.322625 0.534532
C89   C     C_R   0.595668 0.037880 0.056520 0.023302
C90   C     C_R   0.962117 0.557786 0.443483 0.023311
C91   C     C_R   0.442207 0.404331 0.056516 0.023297
C92   C     C_R   0.999450 0.416727 0.894250 -0.116805
C93   C     C_R   0.417277 0.000562 0.605748 -0.116835
C94   C     C_R   0.583290 0.582728 0.894253 -0.116800
C95   C     C_R   0.999450 0.416723 0.605749 -0.116771
C96   C     C_R   0.417276 0.000559 0.894250 -0.116784
C97   C     C_R   0.583264 0.582718 0.605751 -0.116795
C98   C     C_R   0.364275 0.915000 0.403015 -0.087066
C99   C     C_R   0.439574 0.895213 0.177374 0.534532
C100  C     C_R   0.085020 0.449289 0.096981 -0.087043
C101  C     C_R   0.550717 0.635726 0.403019 -0.087045
C102  C     C_R   0.364269 0.914975 0.096981 -0.087042
C103  C     C_R   0.085023 0.449294 0.403017 -0.087038
C104  C     C_R   0.550707 0.635728 0.096984 -0.087045
C105  C     C_R   0.013837 0.415860 0.945508 -0.049508
C106  C     C_R   0.402028 0.986152 0.554490 -0.049513
C107  C     C_R   0.584149 0.597979 0.945511 -0.049506
C108  C     C_R   0.013841 0.415862 0.554490 -0.049487
C109  C     C_R   0.402022 0.986172 0.945508 -0.049494
C110  C     C_R   0.104786 0.544361 0.322626 0.534533
C111  C     C_R   0.584127 0.597971 0.554493 -0.049493
C112  C     C_R   0.376489 0.951174 0.452176 -0.035826
C113  C     C_R   0.048834 0.425317 0.047821 -0.035808
C114  C     C_R   0.574681 0.623511 0.452179 -0.035802
C115  C     C_R   0.376482 0.951159 0.047821 -0.035797
C116  C     C_R   0.048840 0.425324 0.452177 -0.035799
C117  C     C_R   0.574680 0.623515 0.047824 -0.035808
C118  C     C_R   0.068030 0.342940 0.019345 0.012060
C119  C     C_R   0.274914 0.931962 0.480653 0.012060
C120  C     C_R   0.657064 0.725088 0.019353 0.012065
Cr1   Cr    Cr6+3 0.487630 0.241180 0.750000 1.044037
Cr2   Cr    Cr6+3 0.753550 0.512370 0.750000 1.044058
Cr3   Cr    Cr6+3 0.758820 0.246450 0.750000 1.044048
Cr4   Cr    Cr6+3 0.241180 0.487630 0.250000 1.063389
Cr5   Cr    Cr6+3 0.512370 0.753550 0.250000 1.063389
Cr6   Cr    Cr6+3 0.246450 0.758820 0.250000 1.063389
H1    H     H_    0.972729 0.631959 0.129555 0.142206
H2    H     H_    0.724934 0.149288 0.887513 0.157349
H3    H     H_    0.850714 0.575645 0.612491 0.157321
H4    H     H_    0.424339 0.275073 0.887506 0.157398
H5    H     H_    0.866733 0.657857 0.058243 0.152584
H6    H     H_    0.791131 0.133243 0.441764 0.152599
H7    H     H_    0.342109 0.208877 0.058230 0.152593
H8    H     H_    0.866743 0.657867 0.441766 0.152590
H9    H     H_    0.791123 0.133250 0.058240 0.152586
H10   H     H_    0.342128 0.208873 0.441755 0.152583
H11   H     H_    0.814066 0.170062 0.530885 0.163229
H12   H     H_    0.659234 0.027256 0.370449 0.142211
H13   H     H_    0.829902 0.643963 0.969124 0.163240
H14   H     H_    0.356023 0.185935 0.530874 0.163221
H15   H     H_    0.814060 0.170075 0.969121 0.163224
H16   H     H_    0.829933 0.643993 0.530887 0.163181
H17   H     H_    0.355995 0.185944 0.969110 0.163248
H18   H     H_    0.141379 0.415701 0.111813 0.183649
H19   H     H_    0.274328 0.858652 0.388180 0.183667
H20   H     H_    0.584302 0.725675 0.111818 0.183650
H21   H     H_    0.141373 0.415697 0.388183 0.183647
H22   H     H_    0.274323 0.858625 0.111814 0.183647
H23   H     H_    0.368018 0.340770 0.129546 0.142214
H24   H     H_    0.584316 0.725672 0.388187 0.183652
H25   H     H_    0.339981 0.971654 0.629839 0.163293
H26   H     H_    0.028394 0.368378 0.870153 0.163373
H27   H     H_    0.631615 0.660010 0.629848 0.163372
H28   H     H_    0.339983 0.971617 0.870154 0.163420
H29   H     H_    0.028390 0.368371 0.629844 0.163373
H30   H     H_    0.631652 0.660021 0.870159 0.163385
H31   H     H_    0.125814 0.114951 0.039268 0.364461
H32   H     H_    0.989113 0.874120 0.460761 0.364478
H33   H     H_    0.885035 0.010863 0.039292 0.364473
H34   H     H_    0.972742 0.631973 0.370453 0.142216
H35   H     H_    0.125817 0.114957 0.460712 0.364497
H36   H     H_    0.989131 0.874162 0.039283 0.364468
H37   H     H_    0.885042 0.010860 0.460739 0.364476
H38   H     H_    0.099192 0.978194 0.608153 0.341096
H39   H     H_    0.021757 0.121098 0.891756 0.341081
H40   H     H_    0.878833 0.900675 0.608258 0.341044
H41   H     H_    0.099447 0.978272 0.891699 0.341037
H42   H     H_    0.021745 0.121142 0.608259 0.341063
H43   H     H_    0.878931 0.900611 0.891763 0.341079
H44   H     H_    0.659229 0.027251 0.129550 0.142207
H45   H     H_    0.368027 0.340769 0.370445 0.142200
H46   H     H_    0.724935 0.149270 0.612491 0.157348
H47   H     H_    0.850699 0.575635 0.887515 0.157362
H48   H     H_    0.424360 0.275061 0.612484 0.157265
O1    O     O_R   0.460870 0.120930 0.805240 -0.513193
O2    O     O_R   0.120930 0.460870 0.194760 -0.499026
O3    O     O_R   0.539130 0.660060 0.305240 -0.499030
O4    O     O_R   0.339940 0.879070 0.194760 -0.499027
O5    O     O_R   0.498910 0.350470 0.801870 -0.496482
O6    O     O_R   0.851560 0.501090 0.698130 -0.496477
O7    O     O_R   0.649530 0.148440 0.801870 -0.496484
O8    O     O_R   0.498910 0.350470 0.698130 -0.496494
O9    O     O_R   0.851560 0.501090 0.801870 -0.496483
O10   O     O_R   0.649530 0.148440 0.698130 -0.496483
O11   O     O_R   0.350470 0.498910 0.301870 -0.498169
O12   O     O_R   0.660060 0.539130 0.694760 -0.513215
O13   O     O_R   0.501090 0.851560 0.198130 -0.498171
O14   O     O_R   0.148440 0.649530 0.301870 -0.498166
O15   O     O_R   0.350470 0.498910 0.198130 -0.498169
O16   O     O_R   0.501090 0.851560 0.301870 -0.498164
O17   O     O_R   0.148440 0.649530 0.198130 -0.498169
O18   O     O_3   0.666667 0.333333 0.750000 -0.260387
O19   O     O_3   0.333333 0.666667 0.250000 -0.267413
O20   O     O_2   0.039363 0.210376 0.085591 -0.537066
O21   O     O_R   0.130329 0.183990 0.019292 -0.646874
O22   O     O_2   0.170963 0.960595 0.414418 -0.537055
O23   O     O_R   0.879070 0.339940 0.805240 -0.513210
O24   O     O_R   0.053655 0.869607 0.480726 -0.646900
O25   O     O_2   0.789635 0.828975 0.085601 -0.537062
O26   O     O_R   0.815997 0.946340 0.019312 -0.646843
O27   O     O_2   0.039333 0.210364 0.414402 -0.537051
O28   O     O_R   0.130342 0.184001 0.480691 -0.646786
O29   O     O_2   0.171025 0.960658 0.085594 -0.537057
O30   O     O_R   0.053654 0.869647 0.019304 -0.646805
O31   O     O_2   0.789640 0.828981 0.414416 -0.537040
O32   O     O_R   0.815996 0.946335 0.480713 -0.646854
O33   O     O_2   0.106575 0.808561 0.573493 -0.477441
O34   O     O_R   0.460870 0.120930 0.694760 -0.513255
O35   O     O_R   0.171753 0.008350 0.585510 -0.682075
O36   O     O_2   0.191335 0.297733 0.926598 -0.477254
O37   O     O_R   0.991620 0.163564 0.914374 -0.682357
O38   O     O_2   0.702193 0.893577 0.573409 -0.477271
O39   O     O_R   0.836406 0.828085 0.585630 -0.682425
O40   O     O_2   0.106285 0.808667 0.926661 -0.477071
O41   O     O_R   0.172064 0.008416 0.914311 -0.682538
O42   O     O_2   0.191327 0.297698 0.573381 -0.477185
O43   O     O_R   0.991612 0.163596 0.585634 -0.682434
O44   O     O_2   0.702345 0.893645 0.926626 -0.477174
O45   O     O_R   0.660060 0.539130 0.805240 -0.513211
O46   O     O_R   0.836447 0.827996 0.914373 -0.682371
O47   O     O_R   0.879070 0.339940 0.694760 -0.513224
O48   O     O_R   0.120930 0.460870 0.305240 -0.499030
O49   O     O_R   0.539130 0.660060 0.194760 -0.499030
O50   O     O_R   0.339940 0.879070 0.305240 -0.499040

loop_
_geom_bond_atom_site_label_1
_geom_bond_atom_site_label_2
_ccdc_geom_bond_type
C36   C89   A    
C66   O9    A    
C23   O43   S    
C56   C76   A    
C5    C114  A    
C44   C75   S    
C43   C83   A    
C4    C115  A    
C10   C108  A    
C42   C82   A    
C44   O1    A    
H41   O41   S    
C57   H2    S    
C99   O13   A    
C103  H21   S    
C88   O3    A    
Cr1   O5    S    
C37   C116  A    
C34   C113  A    
Cr2   O6    S    
C6    C19   S    
Cr3   O47   S    
C110  O14   A    
Cr3   O10   S    
C37   C90   A    
C18   O31   D    
C64   C68   A    
C41   H17   S    
C2    C68   S    
C3    C116  A    
C76   C95   A    
C46   H6    S    
Cr4   O11   S    
C97   C111  A    
Cr6   O50   S    
C9    C22   S    
Cr2   O12   S    
C11   C25   S    
C28   C107  A    
C62   C89   A    
C101  H24   S    
C77   O10   A    
C59   C67   A    
C15   C120  S    
C62   C70   A    
C35   C114  A    
C34   C86   A    
C20   O37   S    
C30   C83   A    
C17   O29   D    
C102  C115  A    
C61   C87   A    
C67   C98   A    
C102  H22   S    
C55   C74   S    
C35   C87   A    
C50   C90   A    
C43   H15   S    
C96   H28   S    
C63   C69   A    
Cr4   O19   S    
C92   H26   S    
C40   C80   A    
C29   C108  A    
Cr5   O16   S    
C61   H45   S    
C20   O36   D    
H42   O43   S    
C52   C79   A    
C53   C72   A    
C95   H29   S    
C56   H3    S    
C53   H46   S    
C48   H10   S    
C46   C85   A    
C51   C91   A    
C61   C71   A    
Cr5   O49   S    
C71   C101  A    
H31   O21   S    
C22   O41   S    
C33   O6    A    
C19   O33   D    
C101  C114  A    
C38   C117  A    
C7    C118  A    
C25   O44   D    
C58   H48   S    
C63   H34   S    
Cr1   O18   S    
C54   H4    S    
C11   C120  A    
C26   C105  A    
Cr4   O15   S    
C26   C34   A    
C75   C96   A    
C74   C97   A    
C23   O42   D    
C69   C103  A    
C9    C109  A    
C62   H44   S    
C28   C38   A    
C39   H13   S    
C94   C107  A    
C98   C112  A    
Cr2   O45   S    
C30   C109  A    
C1    C78   S    
C14   C119  S    
C47   C86   A    
C104  H20   S    
H35   O28   S    
C53   C80   A    
C65   C100  A    
C99   O4    A    
C1    O45   A    
C52   C73   A    
C50   H8    S    
C8    C111  A    
C60   C86   A    
H39   O37   S    
C5    C18   S    
C59   H12   S    
C66   C73   S    
C38   C91   A    
C45   H14   S    
C13   O16   A    
C71   C88   S    
C47   H5    S    
C16   O28   S    
C39   C79   A    
C17   O30   S    
C40   C46   A    
C59   C85   A    
C42   H16   S    
C72   C77   S    
C2    O15   A    
C58   C84   A    
C93   C106  A    
C5    C8    A    
C11   C107  A    
C15   O25   D    
C69   C110  S    
C33   C76   S    
Cr5   O19   S    
H38   O35   S    
C41   C81   A    
C40   H11   S    
C57   C83   A    
C8    C21   S    
C6    C106  A    
C48   C87   A    
C55   O12   A    
Cr2   O18   S    
C24   C65   S    
C42   C50   A    
C18   O32   S    
C12   C118  S    
C4    C17   S    
C88   O11   A    
C14   O24   S    
Cr4   O48   S    
C60   C65   A    
C27   C80   A    
C97   H27   S    
C22   O40   D    
C100  H18   S    
C51   H7    S    
C12   O21   S    
C31   C35   A    
C117  C120  A    
C45   C84   A    
C72   C93   A    
C13   O50   A    
C29   C37   A    
C16   O27   D    
C24   O2    A    
C6    C119  A    
C70   C99   S    
C58   C74   A    
C39   C47   A    
C104  C117  A    
C13   C67   S    
C45   C48   A    
C14   O22   D    
H33   O26   S    
C31   C111  A    
C32   C112  A    
C27   C32   A    
C19   O35   S    
C12   O20   D    
Cr3   O23   S    
C60   H1    S    
C43   C49   A    
C100  C113  A    
C68   C104  A    
C73   C92   A    
C49   C89   A    
Cr3   O18   S    
C112  C119  A    
C70   C102  A    
C56   C82   A    
Cr4   O2    S    
C98   H19   S    
C10   C23   S    
C96   C109  A    
H37   O32   S    
C26   C79   A    
C27   C106  A    
C21   O38   D    
C30   C36   A    
C64   H23   S    
Cr5   O13   S    
C57   C75   A    
Cr6   O14   S    
C103  C116  A    
C28   C81   A    
C29   C82   A    
Cr3   O7    S    
C3    C10   A    
Cr5   O3    S    
C15   O26   S    
C1    O5    A    
Cr6   O19   S    
Cr1   O1    S    
C78   C94   A    
C32   C85   A    
C44   O7    A    
C63   C90   A    
C2    O49   A    
H32   O24   S    
C55   O8    A    
C7    C105  A    
Cr6   O4    S    
C24   O17   A    
C21   O39   S    
C49   H9    S    
Cr6   O17   S    
C66   O23   A    
C93   H25   S    
C95   C108  A    
C31   C84   A    
H40   O39   S    
C113  C118  A    
C92   C105  A    
H43   O46   S    
C77   O34   A    
C94   H30   S    
C7    C20   S    
H36   O30   S    
Cr2   O9    S    
C25   O46   S    
C64   C91   A    
C4    C9    A    
C36   C115  A    
C52   H47   S    
C41   C51   A    
C54   C81   A    
C3    C16   S    
Cr1   O34   S    
C33   O47   A    
Cr1   O8    S    
C54   C78   A    
C110  O48   A    
