data_mof_unit_24121.cif
_audit_creation_date              2012-10-26T19:40:05-0400
_audit_creation_method            fapswitch 2.2
_symmetry_space_group_name_H-M    P1
_symmetry_Int_Tables_number       1
_space_group_crystal_system       triclinic
_cell_length_a                    15.033962
_cell_length_b                    8.725489
_cell_length_c                    7.498128
_cell_angle_alpha                 102.766152
_cell_angle_beta                  95.117253
_cell_angle_gamma                 93.663253
_cell_volume                      951.911522709

loop_
_atom_site_label
_atom_site_type_symbol
_atom_type_description
_atom_site_fract_x
_atom_site_fract_y
_atom_site_fract_z
_atom_type_partial_charge
C1    C     C_R   0.496057 0.200346 0.454445 0.580457
C2    C     C_R   0.176369 0.437048 0.338622 -0.063053
C3    C     C_R   0.767906 0.501876 0.498088 0.005670
C4    C     C_R   0.232094 0.498124 0.501912 0.005670
C5    C     C_R   0.804499 0.440705 0.334642 -0.071887
C6    C     C_R   0.195500 0.559295 0.665358 -0.071887
C7    C     C_R   0.897277 0.438108 0.332910 0.032932
C8    C     C_R   0.102722 0.561892 0.667090 0.032932
C9    C     C_R   0.953352 0.500388 0.498836 0.023276
C10   C     C_R   0.046648 0.499612 0.501164 0.023276
C11   C     C_R   0.916141 0.563264 0.662831 0.004481
C12   C     C_R   0.503942 0.799654 0.545555 0.580457
C13   C     C_R   0.083859 0.436736 0.337169 0.004481
C14   C     C_R   0.935511 0.374369 0.170430 0.228564
C15   C     C_R   0.064489 0.625631 0.829570 0.228564
C16   C     C_R   0.028316 0.374550 0.173778 -0.048306
C17   C     C_R   0.971684 0.625449 0.826222 -0.048306
C18   C     C_2   0.481951 0.033924 0.434199 0.208369
C19   C     C_2   0.518049 0.966076 0.565801 0.208369
C20   C     C_R   0.328853 0.499070 0.500761 0.541582
C21   C     C_R   0.671147 0.500930 0.499239 0.541582
C22   C     C_R   0.823631 0.562952 0.661378 -0.063053
Cl1   Cl    Cl    0.870187 0.291144 0.959745 -0.567514
Cl2   Cl    Cl    0.129813 0.708856 0.040255 -0.567514
Cl3   Cl    Cl    0.403782 0.934599 0.245596 -0.456375
Cl4   Cl    Cl    0.596218 0.065401 0.754404 -0.456375
Cl5   Cl    Cl    0.394344 0.317620 0.906810 -0.403428
Cl6   Cl    Cl    0.605656 0.682380 0.093190 -0.403428
Cu1   Cu    Cu3+1 0.510010 0.517380 0.684380 1.238295
Cu2   Cu    Cu3+1 0.489990 0.482620 0.315620 1.238295
H1    H     H_    0.760049 0.393482 0.210142 0.213651
H2    H     H_    0.239950 0.606518 0.789858 0.213651
H3    H     H_    0.057134 0.325997 0.048039 0.169456
H4    H     H_    0.942866 0.674003 0.951961 0.169456
H5    H     H_    0.795020 0.611214 0.787536 0.175714
H6    H     H_    0.204980 0.388786 0.212463 0.175714
N1    N     N_2   0.474890 0.456420 0.038520 0.079875
N2    N     N_2   0.525110 0.543580 0.961480 0.079875
O1    O     O_R   0.506510 0.286130 0.619770 -0.462093
O2    O     O_R   0.493490 0.713870 0.380230 -0.462093
O3    O     O_R   0.489600 0.256770 0.308360 -0.450657
O4    O     O_R   0.510400 0.743230 0.691640 -0.450657
O5    O     O_R   0.378710 0.514640 0.655720 -0.492860
O6    O     O_R   0.621290 0.485360 0.344280 -0.492860
O7    O     O_R   0.361800 0.485290 0.344300 -0.486150
O8    O     O_R   0.638200 0.514710 0.655700 -0.486150

loop_
_geom_bond_atom_site_label_1
_geom_bond_atom_site_label_2
_ccdc_geom_bond_type
Cu1   N2    S    
C12   O2    A    
C2    C4    A    
C8    C10   A    
Cu2   O3    S    
C15   C17   A    
N1    N2    D    
C16   H3    S    
C21   O6    A    
C9    C10   A    
Cu2   O7    S    
C6    H2    S    
C20   O7    A    
Cl6   N2    S    
Cu1   O8    S    
Cu1   O1    S    
Cu2   O2    S    
Cu1   O5    S    
C22   H5    S    
C9    C11   A    
Cu2   O6    S    
C1    C18   S    
Cu1   Cu2   S    
C18   Cl3   S    
Cl5   N1    S    
C12   C19   S    
C1    O3    A    
C15   Cl2   S    
C14   Cl1   S    
C21   O8    A    
C8    C15   A    
Cu1   O4    S    
C14   C16   A    
C3    C21   S    
C17   H4    S    
C1    O1    A    
C12   O4    A    
C4    C20   S    
C7    C9    A    
C20   O5    A    
C19   Cl4   S    
C4    C6    A    
C18   C19   D    
C13   C16   A    
C2    H6    S    
C5    C7    A    
C2    C13   A    
C11   C17   A    
C3    C22   A    
C6    C8    A    
C11   C22   A    
C3    C5    A    
C7    C14   A    
Cu2   N1    S    
C5    H1    S    
C10   C13   A    
