data_mof_unit_54064.cif
_audit_creation_date              2012-12-11T15:44:52-0500
_audit_creation_method            fapswitch 2.2
_symmetry_space_group_name_H-M    P1
_symmetry_Int_Tables_number       1
_space_group_crystal_system       triclinic
_cell_length_a                    6.929274
_cell_length_b                    16.825723
_cell_length_c                    17.068105
_cell_angle_alpha                 100.366909
_cell_angle_beta                  88.196124
_cell_angle_gamma                 91.867557
_cell_volume                      1955.78213449

loop_
_atom_site_label
_atom_site_type_symbol
_atom_type_description
_atom_site_fract_x
_atom_site_fract_y
_atom_site_fract_z
_atom_type_partial_charge
O1    O     O_R   0.494370 0.415690 0.413450 -0.540548
O2    O     O_R   0.819420 0.429360 0.578420 -0.541105
O3    O     O_R   0.994280 0.584310 0.586550 -0.540922
C1    C     C_R   0.645927 0.413198 0.604717 0.702838
O4    O     O_R   0.823790 0.406230 0.413570 -0.543160
O5    O     O_R   0.998670 0.561000 0.420530 -0.536343
C2    C     C_R   0.654905 0.383064 0.384935 0.686344
O6    O     O_R   0.489970 0.439000 0.579470 -0.540522
O7    O     O_3   0.662300 0.550810 0.502470 -0.368198
V1    V     V_3+5 0.935380 0.490570 0.499540 1.397690
O8    O     O_R   0.328650 0.570640 0.421580 -0.542636
C3    C     C_R   0.164168 0.586934 0.395060 0.698235
O9    O     O_R   0.324290 0.593770 0.586430 -0.543374
C4    C     C_R   0.155277 0.616510 0.615294 0.694315
V2    V     V_3+5 0.435930 0.509430 0.500460 1.398172
O10   O     O_3   0.159140 0.449190 0.497530 -0.368773
C5    C     C_R   0.300305 0.737134 0.705485 -0.169058
H1    H     H_    0.432926 0.731540 0.669847 0.125602
C6    C     C_R   0.286104 0.800180 0.770943 -0.197014
H2    H     H_    0.408402 0.841840 0.783117 0.122432
C7    C     C_R   0.116566 0.810638 0.819148 -0.062449
C8    C     C_R   0.959356 0.753695 0.800701 0.141425
C9    C     C_R   0.975360 0.692066 0.733249 -0.180963
H3    H     H_    0.856170 0.649077 0.719022 0.116668
C10   C     C_R   0.143977 0.683197 0.685225 -0.070105
C11   C     C_R   0.171206 0.640354 0.333940 -0.057471
C12   C     C_R   0.091621 0.860670 0.166973 -0.112675
C13   C     C_R   0.906516 0.813128 0.276465 0.118727
C14   C     C_R   0.931721 0.865267 0.220256 -0.157848
C15   C     C_R   0.230971 0.802994 0.170320 -0.257469
C16   C     C_R   0.208876 0.749183 0.224745 0.145921
C17   C     C_R   0.045867 0.753119 0.277873 0.092399
C18   C     C_R   0.028268 0.697244 0.331434 -0.243490
C19   C     C_R   0.331109 0.638223 0.280958 -0.176294
C20   C     C_R   0.348653 0.691186 0.226606 -0.172451
H4    H     H_    0.907328 0.698703 0.373219 0.116873
H5    H     H_    0.443962 0.595308 0.281666 0.123293
H6    H     H_    0.474107 0.687599 0.186691 0.120066
H7    H     H_    0.826932 0.910681 0.217186 0.137430
H8    H     H_    0.354313 0.798652 0.129216 0.127826
C21   C     C_R   0.617438 0.359231 0.664604 -0.070976
C22   C     C_R   0.647415 0.141024 0.835605 -0.070669
C23   C     C_R   0.865096 0.197977 0.743137 -0.202320
C24   C     C_R   0.827669 0.143721 0.795142 -0.164094
C25   C     C_R   0.503575 0.193484 0.821745 -0.240750
C26   C     C_R   0.541192 0.248894 0.769848 0.160553
C27   C     C_R   0.723681 0.251401 0.730404 0.160872
C28   C     C_R   0.761286 0.306790 0.678489 -0.241113
C29   C     C_R   0.437205 0.356565 0.705088 -0.163143
C30   C     C_R   0.399786 0.302327 0.757115 -0.202169
H9    H     H_    0.900290 0.307649 0.647618 0.125096
H10   H     H_    0.323188 0.396307 0.696160 0.130971
H11   H     H_    0.005329 0.198398 0.713238 0.120704
H12   H     H_    0.259557 0.301914 0.787017 0.120912
H13   H     H_    0.941691 0.103976 0.804055 0.131044
H14   H     H_    0.364562 0.192609 0.852606 0.125347
C31   C     C_R   0.811371 0.275913 0.282440 -0.156262
H15   H     H_    0.951836 0.294917 0.306225 0.116554
C32   C     C_R   0.800232 0.212113 0.217359 -0.152432
H16   H     H_    0.932667 0.183852 0.193199 0.118656
C33   C     C_R   0.621041 0.185166 0.184078 -0.047427
C34   C     C_R   0.453282 0.223789 0.217863 -0.155956
H17   H     H_    0.312818 0.204781 0.194079 0.116578
C35   C     C_R   0.464419 0.287588 0.282947 -0.151785
H18   H     H_    0.331983 0.315843 0.307112 0.118535
C36   C     C_R   0.643629 0.314584 0.316184 -0.047173
O11   O     O_R   0.774880 0.061150 0.920630 -0.540408
O12   O     O_R   0.440980 0.093710 0.086500 -0.542859
O13   O     O_R   0.266190 0.938890 0.079390 -0.534612
C37   C     C_R   0.609824 0.116805 0.115217 0.687406
O14   O     O_R   0.445420 0.070740 0.921670 -0.540378
O15   O     O_R   0.270660 0.915760 0.913380 -0.541427
C38   C     C_R   0.618914 0.086976 0.895420 0.702016
O16   O     O_R   0.770400 0.084270 0.086640 -0.540380
O17   O     O_3   0.602590 0.949210 0.997500 -0.367269
V3    V     V_3+5 0.329470 0.009420 0.000470 1.396198
O18   O     O_R   0.940650 0.906250 0.913470 -0.541388
C39   C     C_R   0.108931 0.881398 0.886260 0.687788
O19   O     O_R   0.936210 0.929220 0.078300 -0.543585
C40   C     C_R   0.100539 0.913001 0.104883 0.705453
V4    V     V_3+5 0.828930 0.990510 0.999490 1.392259
O20   O     O_3   0.105680 0.050790 0.002500 -0.367362
C41   C     C_3   0.774893 0.753570 0.851390 -0.355384
C42   C     C_3   0.811491 0.729417 0.931696 -0.704493
H19   H     H_    0.868263 0.667339 0.922279 0.213627
H20   H     H_    0.916609 0.771437 0.966678 0.216879
H21   H     H_    0.673741 0.730251 0.966862 0.206241
H22   H     H_    0.703343 0.812463 0.859195 0.196004
H23   H     H_    0.666332 0.709420 0.820943 0.167277
C43   C     C_3   0.734414 0.820640 0.335240 -0.366234
C44   C     C_3   0.593177 0.887468 0.330185 -0.754786
H24   H     H_    0.667245 0.947748 0.343261 0.221636
H25   H     H_    0.528933 0.878294 0.270410 0.231566
H26   H     H_    0.473975 0.885764 0.374950 0.224114
H27   H     H_    0.651125 0.762395 0.326293 0.190222
H28   H     H_    0.789909 0.831860 0.396759 0.178935

loop_
_geom_bond_atom_site_label_1
_geom_bond_atom_site_label_2
_ccdc_geom_bond_type
C33   C37   S    
C12   C14   A    
C19   H5    S    
C6    H2    S    
C42   H21   S    
C31   C36   A    
O15   V3    S    
V4    O20   S    
C31   H15   S    
C43   H27   S    
O18   C39   A    
C30   H12   S    
C41   C42   S    
C13   C14   A    
C6    C7    A    
C42   H20   S    
O5    C3    A    
O14   V3    S    
C31   C32   A    
C1    C21   S    
V2    O10   S    
C18   H4    S    
O13   V3    S    
C19   C20   A    
C34   C35   A    
O8    V2    S    
C11   C19   A    
C28   H9    S    
C27   C28   A    
C25   H14   S    
C7    C39   S    
C37   O16   A    
O15   C39   A    
C9    H3    S    
O11   C38   A    
O7    V1    S    
C1    O6    A    
C41   H22   S    
C32   H16   S    
O9    C4    A    
C12   C15   A    
C22   C24   A    
C21   C29   A    
C23   H11   S    
C41   H23   S    
C32   C33   A    
C13   C17   A    
C20   H6    S    
C42   H19   S    
C12   C40   S    
V3    O20   S    
C44   H24   S    
O4    C2    A    
O17   V4    S    
C25   C26   A    
C3    C11   S    
C22   C25   A    
C35   C36   A    
O2    C1    A    
O17   V3    S    
C34   H17   S    
C44   H25   S    
C11   C18   A    
C16   C17   A    
O18   V4    S    
C29   H10   S    
C14   H7    S    
C5    H1    S    
C15   H8    S    
O3    C4    A    
O1    V2    S    
O11   V4    S    
O6    V2    S    
O9    V2    S    
C23   C24   A    
C16   C20   A    
O16   V4    S    
O2    V1    S    
O19   V4    S    
C26   C27   A    
C22   C38   S    
O1    C2    A    
O5    V1    S    
O8    C3    A    
C43   H28   S    
O12   V3    S    
C26   C30   A    
C5    C10   A    
C17   C18   A    
O7    V2    S    
O4    V1    S    
O3    V1    S    
V1    O10   S    
C8    C41   S    
C44   H26   S    
C24   H13   S    
C43   C44   S    
C15   C16   A    
C35   H18   S    
C5    C6    A    
C21   C28   A    
C9    C10   A    
C4    C10   S    
C33   C34   A    
O19   C40   A    
O12   C37   A    
C29   C30   A    
O14   C38   A    
C8    C9    A    
O13   C40   A    
C13   C43   S    
C7    C8    A    
C23   C27   A    
C2    C36   S    
