data_mof_unit_28017.cif
_audit_creation_date              2012-12-10T17:47:05-0500
_audit_creation_method            fapswitch 2.2
_symmetry_space_group_name_H-M    P1
_symmetry_Int_Tables_number       1
_space_group_crystal_system       triclinic
_cell_length_a                    9.985215
_cell_length_b                    10.61934
_cell_length_c                    13.55371
_cell_angle_alpha                 92.86641
_cell_angle_beta                  81.570784
_cell_angle_gamma                 90.565152
_cell_volume                      1419.87823671

loop_
_atom_site_label
_atom_site_type_symbol
_atom_type_description
_atom_site_fract_x
_atom_site_fract_y
_atom_site_fract_z
_atom_type_partial_charge
C1    C     C_R   0.500866 0.739018 0.497645 0.879703
C2    C     C_R   0.554564 0.940679 0.565247 -0.201488
C3    C     C_R   0.554048 0.069206 0.565093 -0.192952
C4    C     C_R   0.474684 0.498253 0.685707 0.899606
C5    C     C_R   0.500299 0.127702 0.490146 -0.084727
C6    C     C_R   0.835715 0.686769 0.610423 -0.268185
C7    C     C_R   0.891962 0.794610 0.649506 0.423081
C8    C     C_R   0.030587 0.803269 0.642868 -0.373398
C9    C     C_R   0.109923 0.694848 0.615874 0.446061
C10   C     C_R   0.060539 0.594679 0.555419 0.052649
C11   C     C_R   0.916540 0.593260 0.554140 0.056838
C12   C     C_1   0.455332 0.495098 0.790265 -0.215105
C13   C     C_R   0.938621 0.411387 0.447229 -0.093614
C14   C     C_R   0.081126 0.411427 0.447182 -0.112069
C15   C     C_R   0.500123 0.260635 0.496373 0.853391
C16   C     C_R   0.525723 0.500326 0.314215 0.853818
C17   C     C_1   0.546778 0.506598 0.209903 -0.192924
C18   C     C_2   0.558796 0.516836 0.017877 -0.156360
C19   C     C_2   0.442878 0.495685 0.982959 -0.172721
C20   C     C_1   0.444453 0.494420 0.878677 -0.013478
C21   C     C_1   0.558053 0.512367 0.121803 0.009066
C22   C     C_3   0.769921 0.853931 0.798901 0.050863
C23   C     C_R   0.401816 0.855976 0.333568 -0.319435
C24   C     C_3   0.681280 0.957822 0.855973 -0.330856
C25   C     C_3   0.636459 0.925219 0.964361 -0.934198
C26   C     C_3   0.209561 0.709479 0.761538 0.079758
C27   C     C_3   0.306726 0.814358 0.787103 -0.373022
C28   C     C_3   0.293602 0.842544 0.899580 -0.917996
C29   C     C_3   0.214095 0.741952 0.218487 0.086123
C30   C     C_3   0.113999 0.704103 0.147079 -0.343959
C31   C     C_3   0.026804 0.592346 0.184386 -0.949415
C32   C     C_R   0.343455 0.914885 0.259299 0.546591
C33   C     C_R   0.346810 0.046222 0.258465 -0.195658
C34   C     C_R   0.399211 0.117947 0.333159 -0.287193
C35   C     C_R   0.448648 0.059203 0.411939 0.102721
C36   C     C_R   0.450346 0.927433 0.411849 0.048501
C37   C     C_R   0.502908 0.870901 0.490040 -0.072661
H1    H     H_    0.348853 0.477368 0.031688 0.155764
H2    H     H_    0.859746 0.840851 0.837472 0.140047
H3    H     H_    0.709606 0.764928 0.800126 0.132295
H4    H     H_    0.738910 0.047963 0.854586 0.233164
H5    H     H_    0.590425 0.970770 0.819020 0.217876
H6    H     H_    0.579143 0.834947 0.967694 0.278753
H7    H     H_    0.570046 0.001019 0.003441 0.271087
H8    H     H_    0.725899 0.916549 0.003558 0.261632
H9    H     H_    0.232207 0.622631 0.797512 0.165733
H10   H     H_    0.104310 0.733351 0.796680 0.099305
H11   H     H_    0.412623 0.785813 0.758266 0.213100
H12   H     H_    0.073259 0.885642 0.677186 0.182469
H13   H     H_    0.284475 0.901442 0.750419 0.222383
H14   H     H_    0.186849 0.864036 0.931340 0.259732
H15   H     H_    0.356692 0.925696 0.915088 0.276303
H16   H     H_    0.328877 0.760614 0.936450 0.275270
H17   H     H_    0.410249 0.754742 0.329076 0.143312
H18   H     H_    0.155283 0.762153 0.294201 0.143583
H19   H     H_    0.283432 0.661217 0.220834 0.159660
H20   H     H_    0.047240 0.785313 0.139997 0.229731
H21   H     H_    0.170413 0.677793 0.072175 0.221435
H22   H     H_    0.091539 0.509493 0.190756 0.258820
H23   H     H_    0.142088 0.338785 0.403786 0.143463
H24   H     H_    0.955626 0.566705 0.130862 0.264902
H25   H     H_    0.967013 0.617027 0.258491 0.276858
H26   H     H_    0.307632 0.093319 0.199692 0.155465
H27   H     H_    0.652912 0.534865 0.969177 0.151121
H28   H     H_    0.591554 0.895177 0.625595 0.179831
H29   H     H_    0.400766 0.219252 0.328125 0.165403
H30   H     H_    0.592791 0.123435 0.624808 0.163621
H31   H     H_    0.893584 0.338654 0.403830 0.145083
H32   H     H_    0.728927 0.678716 0.627583 0.217542
N1    N     N_R   0.857120 0.501200 0.500900 -0.092494
N2    N     N_R   0.142720 0.501280 0.500940 -0.095937
O1    O     O_R   0.385310 0.683220 0.500000 -0.565122
O2    O     O_3   0.228044 0.684518 0.656067 -0.580716
O3    O     O_3   0.289692 0.848308 0.183000 -0.653424
O4    O     O_R   0.614640 0.683250 0.500010 -0.634724
O5    O     O_R   0.368830 0.499960 0.640340 -0.547565
O6    O     O_R   0.598160 0.499980 0.640350 -0.634444
O7    O     O_R   0.385360 0.316750 0.499990 -0.619398
O8    O     O_R   0.614690 0.316780 0.500000 -0.610187
O9    O     O_R   0.401840 0.500020 0.359650 -0.636918
O10   O     O_R   0.631170 0.500040 0.359660 -0.598751
O11   O     O_3   0.811181 0.889108 0.699798 -0.634984
Zn1   Zn    Zn3+2 0.346870 0.499980 0.499990 0.970047
Zn2   Zn    Zn3+2 0.653130 0.500020 0.500010 0.942519

loop_
_geom_bond_atom_site_label_1
_geom_bond_atom_site_label_2
_ccdc_geom_bond_type
C27   H11   S    
C6    H32   S    
C18   C21   S    
C24   H5    S    
C14   N2    A    
C31   H24   S    
C35   C36   A    
C2    H28   S    
C25   H6    S    
C11   N1    A    
C7    C8    A    
C26   C27   S    
C22   O11   S    
C36   C37   A    
C18   C19   D    
C32   O3    S    
O8    Zn2   S    
C28   H14   S    
O4    Zn2   S    
C15   O7    A    
C13   N1    A    
C30   H20   S    
C30   H21   S    
C26   O2    S    
C25   H7    S    
C34   C35   A    
C31   H22   S    
O7    Zn1   S    
C15   O8    A    
C19   C20   S    
C8    C9    A    
C4    C12   S    
N1    Zn2   S    
C9    C10   A    
C27   H13   S    
C1    C37   S    
C10   N2    A    
C13   C14   A    
C24   H4    S    
C31   H25   S    
C34   H29   S    
C9    O2    S    
O9    Zn1   S    
O5    Zn1   S    
N2    Zn1   S    
C1    O1    A    
C4    O5    A    
C1    O4    A    
C24   C25   S    
C6    C11   A    
C16   C17   S    
C29   O3    S    
C29   H18   S    
O6    Zn2   S    
C17   C21   T    
C16   O9    A    
C29   C30   S    
C19   H1    S    
C33   H26   S    
C22   H3    S    
C12   C20   T    
C33   C34   A    
C26   H10   S    
C22   C24   S    
C25   H8    S    
O10   Zn2   S    
C23   H17   S    
C3    H30   S    
C3    C5    A    
C28   H16   S    
C6    C7    A    
C29   H19   S    
C14   H23   S    
C23   C32   A    
C2    C3    A    
C4    O6    A    
C32   C33   A    
C28   H15   S    
C2    C37   A    
C18   H27   S    
C30   C31   S    
C22   H2    S    
C5    C35   A    
C16   O10   A    
C5    C15   S    
O1    Zn1   S    
C10   C11   A    
C26   H9    S    
C7    O11   S    
C23   C36   A    
C27   C28   S    
C8    H12   S    
C13   H31   S    
