data_mof_unit_10442.cif
_audit_creation_date              2012-12-10T20:46:51-0500
_audit_creation_method            fapswitch 2.2
_symmetry_space_group_name_H-M    P1
_symmetry_Int_Tables_number       1
_space_group_crystal_system       triclinic
_cell_length_a                    12.847958
_cell_length_b                    8.934438
_cell_length_c                    8.118956
_cell_angle_alpha                 90.024196
_cell_angle_beta                  97.788778
_cell_angle_gamma                 89.987965
_cell_volume                      923.371082265

loop_
_atom_site_label
_atom_site_type_symbol
_atom_type_description
_atom_site_fract_x
_atom_site_fract_y
_atom_site_fract_z
_atom_type_partial_charge
C1    C     C_R   0.500003 0.218033 0.499982 0.922565
C2    C     C_R   0.866609 0.407465 0.675231 -0.277464
C3    C     C_R   0.131524 0.415780 0.554315 0.392484
C4    C     C_R   0.868475 0.584208 0.445678 0.392472
C5    C     C_R   0.026173 0.448425 0.558073 0.053112
C6    C     C_R   0.973826 0.551563 0.441920 0.053108
C7    C     C_1   0.499998 0.065198 0.499972 -0.179954
C8    C     C_1   0.500002 0.934802 0.500027 -0.179955
C9    C     C_R   0.499997 0.781967 0.500018 0.922567
C10   C     C_R   0.297760 0.496253 0.466663 0.870738
C11   C     C_R   0.702240 0.503746 0.533337 0.870744
C12   C     C_R   0.814449 0.504152 0.556624 -0.154313
C13   C     C_R   0.185551 0.495843 0.443375 -0.154312
C14   C     C_R   0.027682 0.619943 0.323394 -0.139747
C15   C     C_R   0.972317 0.380045 0.676599 -0.139748
C16   C     C_R   0.133391 0.592529 0.324766 -0.277461
H1    H     H_    0.824315 0.346896 0.760928 0.186248
H2    H     H_    0.175684 0.653100 0.239069 0.186247
H3    H     H_    0.989328 0.697784 0.232436 0.210938
H4    H     H_    0.010671 0.302203 0.767553 0.210938
H5    H     H_    0.759399 0.733746 0.386126 0.333703
H6    H     H_    0.240608 0.266252 0.613866 0.333707
N1    N     N_1   0.500020 0.500000 0.073640 -0.018451
N2    N     N_1   0.499980 0.500000 0.926360 -0.018452
O1    O     O_R   0.499990 0.285340 0.636850 -0.617705
O2    O     O_3   0.179887 0.308388 0.661509 -0.767783
O3    O     O_R   0.500010 0.714660 0.363150 -0.617703
O4    O     O_R   0.500010 0.285340 0.363150 -0.611834
O5    O     O_R   0.499990 0.714660 0.636850 -0.611833
O6    O     O_R   0.346350 0.500000 0.614250 -0.596254
O7    O     O_R   0.653650 0.500000 0.385750 -0.596243
O8    O     O_R   0.346360 0.500000 0.340500 -0.618636
O9    O     O_R   0.653640 0.500000 0.659500 -0.618637
O10   O     O_3   0.820110 0.691592 0.338470 -0.767773
Zn1   Zn    Zn3+2 0.499990 0.500000 0.682780 1.012342
Zn2   Zn    Zn3+2 0.500010 0.500000 0.317220 1.012345

loop_
_geom_bond_atom_site_label_1
_geom_bond_atom_site_label_2
_ccdc_geom_bond_type
C1    O4    A    
C11   C12   S    
O3    Zn2   S    
C4    C12   A    
C10   O6    A    
C3    C13   A    
C9    O5    A    
N1    N2    T    
C2    C12   A    
C11   O7    A    
C7    C8    T    
C2    H1    S    
C1    O1    A    
C2    C15   A    
O4    Zn2   S    
C5    C6    A    
O6    Zn1   S    
O1    Zn1   S    
O8    Zn2   S    
C16   H2    S    
O9    Zn1   S    
C4    O10   S    
C15   H4    S    
C14   C16   A    
C5    C15   A    
N2    Zn1   S    
C6    C14   A    
C10   O8    A    
C11   O9    A    
C9    O3    A    
C4    C6    A    
N1    Zn2   S    
H6    O2    S    
C13   C16   A    
O5    Zn1   S    
O7    Zn2   S    
H5    O10   S    
C1    C7    S    
C14   H3    S    
C3    O2    S    
C8    C9    S    
C3    C5    A    
C10   C13   S    
