data_mof_unit_52460.cif
_audit_creation_date              2012-10-26T20:50:29-0400
_audit_creation_method            fapswitch 2.2
_symmetry_space_group_name_H-M    P1
_symmetry_Int_Tables_number       1
_space_group_crystal_system       triclinic
_cell_length_a                    19.450922
_cell_length_b                    18.25606
_cell_length_c                    10.83133
_cell_angle_alpha                 89.797129
_cell_angle_beta                  91.230282
_cell_angle_gamma                 90.100966
_cell_volume                      3845.25873406

loop_
_atom_site_label
_atom_site_type_symbol
_atom_type_description
_atom_site_fract_x
_atom_site_fract_y
_atom_site_fract_z
_atom_type_partial_charge
C1    C     C_R   0.367595 0.499904 0.500221 0.539030
C2    C     C_R   0.035339 0.539165 0.410355 -0.117456
C3    C     C_R   0.072237 0.496931 0.497343 0.029741
C4    C     C_R   0.928022 0.497357 0.496467 0.031480
C5    C     C_R   0.036768 0.454638 0.583542 -0.117173
C6    C     C_R   0.965180 0.455121 0.583540 -0.117287
C7    C     C_R   0.440704 0.722057 0.470823 0.361547
C8    C     C_R   0.558567 0.723930 0.527243 0.357423
C9    C     C_R   0.437392 0.798747 0.483630 -0.127923
C10   C     C_R   0.558120 0.801159 0.523284 -0.126545
C11   C     C_R   0.496868 0.840363 0.505820 -0.042558
C12   C     C_R   0.632342 0.499995 0.499400 0.537867
C13   C     C_R   0.537859 0.963693 0.591894 0.218553
C14   C     C_R   0.453545 0.963962 0.422419 0.223276
C15   C     C_R   0.498414 0.500073 0.262273 0.538191
C16   C     C_R   0.498900 0.499928 0.737796 0.539259
C17   C     C_R   0.540845 0.040982 0.586797 0.230625
C18   C     C_R   0.451234 0.041423 0.427225 0.229391
C19   C     C_R   0.496831 0.080513 0.505791 -0.066015
C20   C     C_R   0.495735 0.923561 0.507042 -0.044234
C21   C     C_R   0.520252 0.201095 0.399368 -0.130335
C22   C     C_R   0.477079 0.202871 0.605976 -0.131966
C23   C     C_R   0.816070 0.563432 0.474320 -0.131375
C24   C     C_R   0.521562 0.278104 0.399894 0.031253
C25   C     C_R   0.477482 0.279704 0.601643 0.033129
C26   C     C_R   0.498179 0.162549 0.503696 0.056926
C27   C     C_R   0.493773 0.565952 0.063335 0.005568
C28   C     C_R   0.494275 0.565779 0.936159 0.027159
C29   C     C_R   0.491320 0.500200 0.129064 0.002851
C30   C     C_R   0.492106 0.499973 0.870769 0.009142
C31   C     C_R   0.479634 0.434574 0.064204 -0.160169
C32   C     C_R   0.480019 0.434471 0.935426 -0.160679
C33   C     C_3   0.545850 0.626355 0.932368 -0.273761
C34   C     C_R   0.183342 0.564296 0.494695 -0.129167
C35   C     C_3   0.545227 0.626675 0.072077 -0.266496
C36   C     C_R   0.743892 0.433979 0.519751 -0.132807
C37   C     C_R   0.256117 0.432435 0.504838 -0.132480
C38   C     C_R   0.815442 0.433233 0.518738 -0.122520
C39   C     C_R   0.184505 0.431650 0.504540 -0.123135
C40   C     C_R   0.852205 0.498030 0.496603 0.034764
C41   C     C_R   0.147732 0.497576 0.498780 0.032209
C42   C     C_3   0.388802 0.682190 0.292293 0.033347
C43   C     C_3   0.338418 0.735024 0.228590 -0.298383
C44   C     C_3   0.345384 0.732988 0.088523 -0.486897
C45   C     C_R   0.744505 0.563980 0.474048 -0.140602
C46   C     C_3   0.638507 0.688613 0.674092 0.018707
C47   C     C_3   0.709166 0.723676 0.695729 -0.283071
C48   C     C_3   0.735327 0.711169 0.828038 -0.489643
C49   C     C_3   0.548956 0.916702 0.786473 0.022016
C50   C     C_3   0.600334 0.880512 0.876144 -0.256166
C51   C     C_3   0.568187 0.861471 0.999234 -0.502259
C52   C     C_3   0.435351 0.931176 0.219200 0.034793
C53   C     C_3   0.375396 0.946780 0.129144 -0.244610
C54   C     C_3   0.397203 0.942697 0.994993 -0.501053
C55   C     C_3   0.644452 0.100725 0.606880 0.027627
C56   C     C_R   0.254894 0.565156 0.496406 -0.136464
C57   C     C_3   0.702411 0.044973 0.626809 -0.247968
C58   C     C_3   0.770223 0.073626 0.577208 -0.504258
C59   C     C_3   0.348490 0.103053 0.415061 0.020661
C60   C     C_3   0.290696 0.045908 0.410934 -0.253055
C61   C     C_3   0.226327 0.074356 0.472856 -0.501371
C62   C     C_R   0.707824 0.499470 0.498028 0.008624
C63   C     C_R   0.291989 0.499255 0.500526 0.009375
C64   C     C_R   0.963763 0.539110 0.409492 -0.116756
Cu1   Cu    Cu3+1 0.500000 0.573360 0.500000 1.002000
Cu2   Cu    Cu3+1 0.500000 0.426640 0.500000 0.924324
H1    H     H_    0.473509 0.382988 0.112465 0.131175
H2    H     H_    0.523465 0.677940 0.109539 0.121465
H3    H     H_    0.716892 0.383236 0.537690 0.126600
H4    H     H_    0.283276 0.380709 0.508386 0.125693
H5    H     H_    0.841952 0.381780 0.534014 0.100317
H6    H     H_    0.157774 0.379578 0.507074 0.102300
H7    H     H_    0.843101 0.614348 0.458091 0.100248
H8    H     H_    0.155743 0.615785 0.491834 0.105859
H9    H     H_    0.718071 0.614797 0.454022 0.170050
H10   H     H_    0.280826 0.617465 0.494819 0.178633
H11   H     H_    0.936408 0.571088 0.339927 0.100646
H12   H     H_    0.474060 0.382864 0.887375 0.124511
H13   H     H_    0.061951 0.571471 0.342167 0.102717
H14   H     H_    0.064507 0.422356 0.652273 0.102809
H15   H     H_    0.938955 0.423384 0.652887 0.100105
H16   H     H_    0.374676 0.625456 0.264790 0.163599
H17   H     H_    0.441660 0.692308 0.257898 0.127868
H18   H     H_    0.284973 0.719984 0.252879 0.161784
H19   H     H_    0.348631 0.791595 0.261198 0.185144
H20   H     H_    0.398007 0.750002 0.062405 0.140073
H21   H     H_    0.307816 0.771301 0.044739 0.147273
H22   H     H_    0.335049 0.676873 0.053301 0.156155
H23   H     H_    0.387996 0.825117 0.471429 0.165686
H24   H     H_    0.641396 0.630227 0.702588 0.165376
H25   H     H_    0.600629 0.716031 0.734450 0.101001
H26   H     H_    0.746650 0.699737 0.631332 0.171199
H27   H     H_    0.705766 0.783470 0.677108 0.159900
H28   H     H_    0.698471 0.733379 0.895181 0.142372
H29   H     H_    0.785590 0.739187 0.841939 0.148324
H30   H     H_    0.742452 0.651680 0.845954 0.149086
H31   H     H_    0.503518 0.880031 0.773497 0.124876
H32   H     H_    0.532382 0.969824 0.826411 0.160321
H33   H     H_    0.619824 0.829623 0.834111 0.163905
H34   H     H_    0.606654 0.829731 0.533297 0.164824
H35   H     H_    0.644668 0.917990 0.892655 0.169790
H36   H     H_    0.549999 0.912023 0.044595 0.139757
H37   H     H_    0.607246 0.834933 0.060730 0.145716
H38   H     H_    0.524652 0.822736 0.985220 0.134534
H39   H     H_    0.457936 0.876949 0.197556 0.130325
H40   H     H_    0.475842 0.973783 0.205546 0.136022
H41   H     H_    0.333357 0.906660 0.144094 0.158208
H42   H     H_    0.355086 0.002482 0.146779 0.193592
H43   H     H_    0.439172 0.982489 0.977795 0.143715
H44   H     H_    0.352776 0.956377 0.933143 0.142483
H45   H     H_    0.537173 0.171775 0.318795 0.103058
H46   H     H_    0.414649 0.886516 0.972883 0.140546
H47   H     H_    0.660743 0.153794 0.648115 0.149070
H48   H     H_    0.636241 0.111137 0.505995 0.108132
H49   H     H_    0.708949 0.032982 0.727070 0.182844
H50   H     H_    0.688977 0.993248 0.578250 0.189019
H51   H     H_    0.765009 0.085140 0.476663 0.143998
H52   H     H_    0.810964 0.031794 0.592086 0.145307
H53   H     H_    0.785939 0.124538 0.626166 0.144876
H54   H     H_    0.329549 0.154013 0.369571 0.148446
H55   H     H_    0.360923 0.117770 0.512900 0.112630
H56   H     H_    0.459246 0.175047 0.687788 0.104088
H57   H     H_    0.277689 0.032075 0.313430 0.169968
H58   H     H_    0.307943 0.995281 0.459491 0.187784
H59   H     H_    0.237777 0.087442 0.571262 0.142494
H60   H     H_    0.185532 0.031760 0.468699 0.145884
H61   H     H_    0.206992 0.124296 0.424705 0.144574
H62   H     H_    0.523907 0.677075 0.890499 0.129110
H63   H     H_    0.594840 0.609171 0.115720 0.143117
H64   H     H_    0.539841 0.306942 0.319701 0.122187
H65   H     H_    0.459312 0.309717 0.680174 0.120017
H66   H     H_    0.595949 0.608325 0.895929 0.119043
N1    N     N_R   0.500000 0.683620 0.500000 -0.213169
N2    N     N_R   0.500000 0.316380 0.500000 -0.222702
O1    O     O_R   0.400190 0.561980 0.499980 -0.453799
O2    O     O_3   0.621183 0.690489 0.546592 -0.564396
O3    O     O_3   0.581917 0.927782 0.673326 -0.582086
O4    O     O_3   0.409830 0.927922 0.340434 -0.589387
O5    O     O_3   0.584528 0.077647 0.668223 -0.556684
O6    O     O_3   0.406071 0.078533 0.348731 -0.562461
O7    O     O_R   0.599810 0.561980 0.500020 -0.453367
O8    O     O_R   0.400190 0.438070 0.500040 -0.510500
O9    O     O_R   0.599810 0.438070 0.499960 -0.506801
O10   O     O_R   0.500000 0.561960 0.319660 -0.509349
O11   O     O_R   0.500000 0.561960 0.680340 -0.502423
O12   O     O_R   0.500000 0.438060 0.319720 -0.517752
O13   O     O_R   0.500000 0.438060 0.680280 -0.520634
O14   O     O_3   0.383414 0.687389 0.422238 -0.570943

loop_
_geom_bond_atom_site_label_1
_geom_bond_atom_site_label_2
_ccdc_geom_bond_type
C59   H55   S    
C38   C40   A    
C21   C26   A    
C34   C56   A    
C59   H54   S    
C56   H10   S    
C48   H29   S    
C49   O3    S    
C27   C29   A    
C64   H11   S    
C14   C18   A    
C42   H16   S    
C42   O14   S    
C39   C41   A    
C53   C54   S    
C52   C53   S    
C51   H36   S    
C31   H1    S    
C50   H33   S    
C48   H28   S    
C16   O13   A    
C23   C45   A    
C59   O6    S    
C57   H49   S    
C7    N1    A    
C5    C6    A    
C36   C62   A    
C8    O2    S    
C12   C62   S    
C16   C30   S    
C23   C40   A    
C45   C62   A    
C58   H52   S    
C55   O5    S    
C12   O7    A    
C54   H44   S    
C18   C19   A    
C47   H26   S    
C60   H58   S    
C19   C26   S    
C2    H13   S    
C21   H45   S    
C49   H32   S    
Cu2   N2    S    
C14   O4    S    
C22   C25   A    
C52   O4    S    
C39   H6    S    
C22   H56   S    
C61   H60   S    
C1    O8    A    
C44   H21   S    
C35   H63   S    
C52   H40   S    
C59   C60   S    
C6    H15   S    
C37   H4    S    
C43   H18   S    
C38   H5    S    
C34   C41   A    
C23   H7    S    
C44   H20   S    
C1    C63   S    
C37   C63   A    
C2    C64   A    
C15   C29   S    
C57   H50   S    
C11   C20   S    
C43   H19   S    
C4    C40   S    
C4    C6    A    
C9    H23   S    
Cu1   O10   S    
C17   C19   A    
C46   H25   S    
C55   H47   S    
C27   C35   S    
C51   H38   S    
C49   H31   S    
C33   H62   S    
C54   H43   S    
C60   C61   S    
C13   O3    S    
C60   H57   S    
C18   O6    S    
C43   C44   S    
C14   C20   A    
Cu1   O7    S    
C53   H41   S    
C47   C48   S    
C50   C51   S    
C47   H27   S    
C56   C63   A    
C54   H46   S    
C17   O5    S    
C5    H14   S    
C10   H34   S    
C25   N2    A    
C9    C11   A    
Cu2   O13   S    
Cu1   O1    S    
C34   H8    S    
Cu2   O8    S    
C33   H66   S    
C8    C10   A    
C55   H48   S    
C32   H12   S    
C52   H39   S    
Cu1   Cu2   S    
C55   C57   S    
C42   C43   S    
Cu1   O11   S    
C25   H65   S    
C36   H3    S    
C7    O14   S    
C24   N2    A    
C7    C9    A    
C46   C47   S    
C3    C41   S    
C48   H30   S    
C13   C20   A    
C8    N1    A    
C31   C32   A    
C42   H17   S    
C3    C5    A    
C28   C33   S    
C15   O12   A    
C46   H24   S    
C61   H61   S    
C4    C64   A    
C12   O9    A    
C13   C17   A    
C45   H9    S    
C28   C30   A    
C2    C3    A    
C29   C31   A    
C1    O1    A    
C30   C32   A    
C53   H42   S    
C57   C58   S    
C35   H2    S    
C36   C38   A    
C58   H53   S    
C33   C35   S    
C58   H51   S    
Cu2   O12   S    
C10   C11   A    
C46   O2    S    
C15   O10   A    
C24   H64   S    
C50   H35   S    
C37   C39   A    
C49   C50   S    
C22   C26   A    
C21   C24   A    
C27   C28   A    
C16   O11   A    
C61   H59   S    
C44   H22   S    
C51   H37   S    
Cu2   O9    S    
Cu1   N1    S    
