data_mof_unit_54413.cif
_audit_creation_date              2012-12-10T16:49:27-0500
_audit_creation_method            fapswitch 2.2
_symmetry_space_group_name_H-M    P1
_symmetry_Int_Tables_number       1
_space_group_crystal_system       triclinic
_cell_length_a                    7.768857
_cell_length_b                    8.635032
_cell_length_c                    12.845298
_cell_angle_alpha                 89.606083
_cell_angle_beta                  87.97784
_cell_angle_gamma                 93.093546
_cell_volume                      859.893332145

loop_
_atom_site_label
_atom_site_type_symbol
_atom_type_description
_atom_site_fract_x
_atom_site_fract_y
_atom_site_fract_z
_atom_type_partial_charge
C1    C     C_R   0.455684 0.205943 0.498005 0.880852
C2    C     C_R   0.716987 0.525481 0.140285 -0.181029
C3    C     C_R   0.592894 0.530679 0.868565 -0.255936
C4    C     C_R   0.407107 0.469324 0.131435 -0.255935
C5    C     C_R   0.581344 0.517494 0.975201 0.181419
C6    C     C_R   0.418657 0.482509 0.024799 0.181419
C7    C     C_2   0.433254 0.044735 0.512622 -0.259602
C8    C     C_2   0.566746 0.955265 0.487378 -0.259602
C9    C     C_1   0.276762 0.991241 0.571287 0.300779
C10   C     C_1   0.723238 0.008759 0.428713 0.300780
C11   C     C_R   0.544316 0.794057 0.501995 0.880851
C12   C     C_R   0.466108 0.504308 0.699731 0.855257
C13   C     C_R   0.533892 0.495693 0.300269 0.855259
C14   C     C_R   0.554868 0.494004 0.189117 -0.051779
C15   C     C_R   0.445132 0.505998 0.810883 -0.051779
C16   C     C_R   0.269821 0.462574 0.967196 -0.219600
C17   C     C_R   0.730180 0.537429 0.032803 -0.219600
C18   C     C_R   0.283013 0.474522 0.859715 -0.181029
F1    F     F_    0.984318 0.637266 0.405164 -0.576019
F2    F     F_    0.015682 0.362733 0.594836 -0.576019
H1    H     H_    0.282003 0.442449 0.169497 0.171573
H2    H     H_    0.717997 0.557554 0.830502 0.171573
H3    H     H_    0.831735 0.544803 0.184998 0.193935
H4    H     H_    0.168266 0.455199 0.815002 0.193934
H5    H     H_    0.144708 0.436065 0.005047 0.143966
H6    H     H_    0.855293 0.563938 0.994953 0.143966
N1    N     N_2   0.054030 0.541640 0.471970 0.253855
N2    N     N_2   0.945970 0.458360 0.528030 0.253855
N3    N     N_1   0.152451 0.949237 0.617832 -0.152224
N4    N     N_1   0.847549 0.050762 0.382168 -0.152224
O1    O     O_R   0.609680 0.261530 0.506880 -0.608970
O2    O     O_R   0.390320 0.738470 0.493120 -0.608970
O3    O     O_R   0.323330 0.288220 0.488910 -0.578133
O4    O     O_R   0.676670 0.711780 0.511090 -0.578133
O5    O     O_R   0.619510 0.488830 0.661140 -0.615909
O6    O     O_R   0.380490 0.511170 0.338860 -0.615909
O7    O     O_R   0.333160 0.515520 0.643180 -0.592269
O8    O     O_R   0.666840 0.484480 0.356820 -0.592269
Zn1   Zn    Zn3+2 0.691200 0.482180 0.511990 1.109833
Zn2   Zn    Zn3+2 0.308800 0.517820 0.488010 1.109833

loop_
_geom_bond_atom_site_label_1
_geom_bond_atom_site_label_2
_ccdc_geom_bond_type
C15   C18   A    
O5    Zn1   S    
C8    C10   S    
F1    N1    S    
C10   N4    T    
C12   C15   S    
C9    N3    T    
N1    Zn2   S    
C2    H3    S    
C1    O3    A    
C7    C8    D    
C13   C14   S    
C2    C17   A    
C4    H1    S    
C13   O8    A    
C5    C6    A    
C8    C11   S    
C18   H4    S    
C17   H6    S    
C4    C6    A    
O1    Zn1   S    
C11   O2    A    
O7    Zn2   S    
O2    Zn2   S    
C1    O1    A    
C4    C14   A    
O8    Zn1   S    
C2    C14   A    
C12   O5    A    
O3    Zn2   S    
C5    C17   A    
C6    C16   A    
O4    Zn1   S    
O6    Zn2   S    
C3    C15   A    
C13   O6    A    
C16   C18   A    
C12   O7    A    
C16   H5    S    
C7    C9    S    
C3    H2    S    
F2    N2    S    
N2    Zn1   S    
C3    C5    A    
C1    C7    S    
C11   O4    A    
N1    N2    D    
