data_mof_unit_34251.cif
_audit_creation_date              2013-03-05T15:43:42-0500
_audit_creation_method            fapswitch 2.2
_symmetry_space_group_name_H-M    P1
_symmetry_Int_Tables_number       1
_space_group_crystal_system       triclinic
_cell_length_a                    14.966371
_cell_length_b                    10.705169
_cell_length_c                    10.043843
_cell_angle_alpha                 91.002781
_cell_angle_beta                  90.542114
_cell_angle_gamma                 90.081787
_cell_volume                      1608.87921082

loop_
_atom_site_label
_atom_site_type_symbol
_atom_site_description
_atom_site_fract_x
_atom_site_fract_y
_atom_site_fract_z
_atom_type_partial_charge
O1    O     O_R   0.499990 0.319060 0.613040 -0.594004
O2    O     O_R   0.500010 0.319100 0.386900 -0.630132
C1    C     C_R   0.504327 0.262928 0.498679 0.774809
O3    O     O_R   0.367830 0.499950 0.613080 -0.620919
O4    O     O_R   0.367860 0.499990 0.386940 -0.607714
C2    C     C_R   0.326988 0.502893 0.499374 0.927301
Zn1   Zn    Zn3+2 0.499980 0.499970 0.650990 0.973091
Zn2   Zn    Zn3+2 0.500020 0.500030 0.349010 1.033508
O5    O     O_R   0.499990 0.680900 0.613100 -0.620818
O6    O     O_R   0.500010 0.680940 0.386960 -0.609475
O7    O     O_R   0.632140 0.500010 0.613060 -0.636164
O8    O     O_R   0.632170 0.500050 0.386920 -0.570999
C3    C     C_R   0.495093 0.737129 0.501027 0.925395
C4    C     C_R   0.672862 0.501815 0.500549 0.899227
C5    C     C_R   0.811255 0.589546 0.413705 0.497069
C6    C     C_R   0.768164 0.509110 0.501289 -0.177257
C7    C     C_R   0.815248 0.434939 0.589214 -0.296650
C8    C     C_R   0.907336 0.435512 0.588068 0.075844
C9    C     C_R   0.952767 0.509781 0.495285 -0.017703
C10   C     C_R   0.904790 0.585214 0.404137 -0.108140
C11   C     C_R   0.954125 0.361527 0.678037 -0.271086
C12   C     C_R   0.046994 0.358957 0.677140 0.533272
C13   C     C_R   0.093127 0.434711 0.587616 0.018078
C14   C     C_R   0.046169 0.509198 0.495220 -0.013585
C15   C     C_R   0.092647 0.584189 0.404264 -0.027741
C16   C     C_R   0.044945 0.657524 0.313966 -0.225483
C17   C     C_R   0.952062 0.656013 0.309935 0.302238
C18   C     C_R   0.185592 0.436374 0.588097 -0.259881
C19   C     C_R   0.231300 0.509215 0.497906 -0.201024
C20   C     C_R   0.186138 0.584333 0.405930 0.292001
H1    H     H_    0.779821 0.375593 0.657607 0.163706
H2    H     H_    0.918704 0.305574 0.749487 0.170226
H3    H     H_    0.222862 0.378903 0.656987 0.209153
H4    H     H_    0.079267 0.714618 0.242784 0.229346
C21   C     C_2   0.477885 0.932163 0.391789 -0.089155
C22   C     C_2   0.479109 0.867938 0.503991 -0.212325
H5    H     H_    0.480822 0.887327 0.294030 0.184687
H6    H     H_    0.467931 0.912514 0.600486 0.191825
C23   C     C_2   0.473197 0.066221 0.399535 -0.279266
C24   C     C_2   0.518940 0.130888 0.493207 0.396296
H7    H     H_    0.432247 0.112593 0.325321 0.146497
C25   C     C_2   0.562621 0.551342 0.927100 -0.080574
N1    N     N_2   0.500970 0.501330 0.852150 -0.176775
H8    H     H_    0.621957 0.588159 0.880518 0.159159
H9    H     H_    0.439688 0.486524 0.894315 0.219870
C26   C     C_2   0.553757 0.567928 0.075984 0.090999
N2    N     N_2   0.500990 0.501360 0.147810 0.076832
H10   H     H_    0.594135 0.639601 0.125079 0.123391
O9    O     O_3   0.761026 0.671851 0.338959 -0.569619
C27   C     C_3   0.747503 0.782002 0.415359 -0.229331
H11   H     H_    0.708727 0.763264 0.506883 0.134266
H12   H     H_    0.708043 0.848330 0.354932 0.205067
H13   H     H_    0.812105 0.828127 0.441992 0.161609
O10   O     O_3   0.577602 0.072348 0.581136 -0.614178
C28   C     C_3   0.659040 0.138602 0.593315 -0.291640
H14   H     H_    0.652134 0.219182 0.663637 0.191626
H15   H     H_    0.684129 0.170112 0.495213 0.144371
H16   H     H_    0.710221 0.075282 0.635501 0.190910
O11   O     O_3   0.477358 0.390737 0.091285 -0.544791
C29   C     C_3   0.387206 0.368694 0.121778 -0.108269
H17   H     H_    0.346113 0.455235 0.118727 0.183515
H18   H     H_    0.381026 0.322846 0.219021 0.179714
H19   H     H_    0.359077 0.303152 0.045519 0.140630
O12   O     O_3   0.092635 0.288602 0.769803 -0.602657
C30   C     C_3   0.093656 0.163172 0.724578 -0.288950
H20   H     H_    0.133734 0.107721 0.795722 0.212779
H21   H     H_    0.125758 0.153880 0.625285 0.158899
H22   H     H_    0.025123 0.122731 0.721042 0.170393
N3    N     N_R   0.235266 0.663506 0.318590 0.198956
O13   O     O_R   0.285566 0.752510 0.367660 -0.413529
O14   O     O_R   0.233994 0.641933 0.190708 -0.412782
N4    N     N_R   0.907922 0.721560 0.204763 0.242312
O15   O     O_R   0.930809 0.835997 0.179670 -0.389975
O16   O     O_R   0.859751 0.659517 0.117597 -0.336273

loop_
_geom_bond_atom_site_label_1
_geom_bond_atom_site_label_2
_geom_bond_distance
_ccdc_geom_bond_type
C18   H3    1.084893 S    
O4    Zn2   2.017848 S    
C27   H12   1.109412 S    
C13   C14   1.416374 A    
C19   C20   1.404517 A    
C10   C17   1.416479 A    
Zn1   N1    2.020130 S    
C8    C11   1.396026 A    
O10   C28   1.412528 S    
C21   C23   1.437710 S    
C21   C22   1.330343 D    
Zn2   O8    2.010581 S    
C30   H22   1.112768 S    
O12   C30   1.410098 S    
C2    C19   1.433739 S    
C28   H14   1.110832 S    
C22   H6    1.087255 S    
C7    C8    1.378378 A    
Zn2   N2    2.021310 S    
N3    O14   1.300989 A    
O11   C29   1.406899 S    
C23   H7    1.087582 S    
C28   H15   1.115304 S    
O1    Zn1   1.967270 S    
C11   C12   1.390335 A    
N4    O15   1.301114 A    
C30   H20   1.109282 S    
Zn1   O7    2.017845 S    
N1    H9    1.027110 S    
C16   C17   1.390398 A    
N3    O13   1.300757 A    
C25   H8    1.084513 S    
C29   H19   1.109250 S    
O4    C2    1.289298 A    
N4    O16   1.301420 A    
C18   C19   1.389804 A    
C21   H5    1.086634 S    
O8    C4    1.288336 A    
C1    C24   1.430832 S    
C27   H11   1.112767 S    
C24   O10   1.396328 S    
O3    Zn1   2.010584 S    
C5    C10   1.404860 A    
C7    H1    1.085278 S    
O7    C4    1.289412 A    
C4    C6    1.428288 S    
C27   H13   1.113245 S    
C26   H10   1.084823 S    
C25   N1    1.294613 D    
C17   N4    1.434808 S    
N2    O11   1.349555 S    
C5    C6    1.402444 A    
C11   H2    1.084502 S    
C23   C24   1.340420 D    
C20   N3    1.436993 S    
C14   C15   1.413869 A    
C3    C22   1.420800 S    
C29   H18   1.105324 S    
O9    C27   1.411458 S    
C25   C26   1.509893 S    
C28   H16   1.109579 S    
C15   C20   1.399163 A    
Zn1   O5    1.980444 S    
O5    C3    1.287269 A    
C26   N2    1.295799 D    
C8    C9    1.413950 A    
O2    C1    1.283970 A    
C12   O12   1.383470 S    
C30   H21   1.114012 S    
C15   C16   1.401001 A    
C13   C18   1.383912 A    
O3    C2    1.291127 A    
C9    C14   1.397921 A    
C16   H4    1.081613 S    
Zn2   O6    1.967269 S    
O2    Zn2   1.980442 S    
C12   C13   1.406606 A    
C9    C10   1.421574 A    
C6    C7    1.386102 A    
C5    O9    1.385427 S    
C29   H17   1.113434 S    
O1    C1    1.289180 A    
O6    C3    1.287395 A    
