data_mof_unit_46641.cif
_audit_creation_date              2012-12-11T14:42:01-0500
_audit_creation_method            fapswitch 2.2
_symmetry_space_group_name_H-M    P1
_symmetry_Int_Tables_number       1
_space_group_crystal_system       triclinic
_cell_length_a                    19.057984
_cell_length_b                    10.879799
_cell_length_c                    18.826487
_cell_angle_alpha                 90.294384
_cell_angle_beta                  90.510198
_cell_angle_gamma                 89.514972
_cell_volume                      3903.27160907

loop_
_atom_site_label
_atom_site_type_symbol
_atom_type_description
_atom_site_fract_x
_atom_site_fract_y
_atom_site_fract_z
_atom_type_partial_charge
C1    C     C_R   0.727194 0.956467 0.853580 0.546078
C2    C     C_R   0.274885 0.959949 0.144436 0.546932
C3    C     C_R   0.227194 0.456467 0.853580 0.546078
C4    C     C_R   0.774884 0.459949 0.144436 0.546932
C5    C     C_R   0.696775 0.454920 0.038358 -0.151234
C6    C     C_R   0.294259 0.489379 0.964994 -0.130493
C7    C     C_R   0.196774 0.954912 0.038359 -0.151236
C8    C     C_R   0.794259 0.989378 0.964994 -0.130493
C9    C     C_R   0.762809 0.435706 0.069663 0.034974
C10   C     C_R   0.247646 0.417407 0.924218 0.030023
C11   C     C_R   0.262809 0.935707 0.069663 0.034974
C12   C     C_R   0.747646 0.917407 0.924218 0.030024
C13   C     C_R   0.821644 0.413415 0.027056 -0.128444
C14   C     C_R   0.209591 0.324087 0.955967 -0.141310
C15   C     C_R   0.321645 0.913425 0.027055 -0.128442
C16   C     C_R   0.709590 0.824088 0.955968 -0.141311
C17   C     C_R   0.814427 0.405614 0.954437 -0.132197
C18   C     C_R   0.213355 0.309203 0.028331 -0.126013
C19   C     C_R   0.314427 0.905622 0.954436 -0.132198
C20   C     C_R   0.713353 0.809205 0.028332 -0.126013
C21   C     C_R   0.747851 0.415291 0.923262 0.031123
C22   C     C_R   0.256646 0.385410 0.070156 0.034918
C23   C     C_R   0.247850 0.915291 0.923262 0.031122
C24   C     C_R   0.756646 0.885411 0.070156 0.034919
C25   C     C_R   0.559710 0.272031 0.520099 -0.130603
C26   C     C_R   0.541836 0.269424 0.449098 -0.131059
C27   C     C_R   0.059710 0.772032 0.520099 -0.130603
C28   C     C_R   0.041836 0.769424 0.449098 -0.131059
C29   C     C_R   0.510303 0.164626 0.420319 0.027907
C30   C     C_R   0.547970 0.169823 0.562369 0.038271
C31   C     C_R   0.010303 0.664626 0.420319 0.027907
C32   C     C_R   0.047970 0.669823 0.562369 0.038271
C33   C     C_R   0.503398 0.058178 0.461136 -0.143416
C34   C     C_R   0.521624 0.061124 0.532392 -0.136938
C35   C     C_R   0.003398 0.558178 0.461136 -0.143416
C36   C     C_R   0.021624 0.561124 0.532392 -0.136938
C37   C     C_R   0.812685 0.375272 0.541417 -0.147239
C38   C     C_R   0.186554 0.404942 0.455618 -0.151655
C39   C     C_R   0.312685 0.875272 0.541417 -0.147239
C40   C     C_R   0.686554 0.904942 0.455618 -0.151655
C41   C     C_R   0.815779 0.382235 0.468870 -0.187123
C42   C     C_R   0.180637 0.410681 0.528197 -0.192903
C43   C     C_R   0.315779 0.882235 0.468870 -0.187123
C44   C     C_R   0.680637 0.910681 0.528197 -0.192902
C45   C     C_R   0.557444 0.181739 0.858792 0.567845
C46   C     C_R   0.472148 0.177116 0.150702 0.554753
C47   C     C_R   0.057444 0.681739 0.858792 0.567844
C48   C     C_R   0.972147 0.677116 0.150702 0.554754
C49   C     C_R   0.760372 0.434830 0.429609 0.051428
C50   C     C_R   0.239676 0.431442 0.571626 0.051418
C51   C     C_R   0.260372 0.934830 0.429609 0.051428
C52   C     C_R   0.739676 0.931442 0.571626 0.051418
C53   C     C_R   0.701047 0.484866 0.464725 0.258670
C54   C     C_R   0.306106 0.448334 0.541393 0.260519
C55   C     C_R   0.201047 0.984866 0.464725 0.258670
C56   C     C_R   0.806106 0.948334 0.541393 0.260519
C57   C     C_R   0.699032 0.476282 0.539673 -0.142777
C58   C     C_R   0.312136 0.433704 0.467420 -0.131704
C59   C     C_R   0.199032 0.976282 0.539673 -0.142777
C60   C     C_R   0.812136 0.933704 0.467420 -0.131704
C61   C     C_R   0.752595 0.415014 0.576887 -0.001470
C62   C     C_R   0.252470 0.410369 0.425071 -0.006812
C63   C     C_R   0.252595 0.915014 0.576887 -0.001470
C64   C     C_R   0.752470 0.910369 0.425071 -0.006812
C65   C     C_R   0.738166 0.365356 0.852434 0.544703
C66   C     C_R   0.263160 0.357500 0.145090 0.546856
C67   C     C_R   0.238166 0.865356 0.852434 0.544703
C68   C     C_R   0.763159 0.857500 0.145090 0.546856
C69   C     C_R   0.726475 0.957831 0.646131 0.573759
C70   C     C_R   0.273797 0.959366 0.354615 0.572866
C71   C     C_R   0.226475 0.457831 0.646131 0.573759
C72   C     C_R   0.773797 0.459366 0.354615 0.572866
C73   C     C_R   0.563267 0.179688 0.637430 0.569187
C74   C     C_R   0.472026 0.175614 0.354174 0.549359
C75   C     C_R   0.063267 0.679688 0.637430 0.569187
C76   C     C_R   0.972026 0.675614 0.354174 0.549360
C77   C     C_R   0.739910 0.364830 0.647178 0.547206
C78   C     C_R   0.261099 0.362800 0.353646 0.552358
C79   C     C_R   0.239910 0.864830 0.647178 0.547206
C80   C     C_R   0.761099 0.862800 0.353646 0.552358
C81   C     C_2   0.532527 0.174704 0.931821 -0.111243
C82   C     C_2   0.514539 0.168971 0.086547 -0.107845
C83   C     C_2   0.032526 0.674704 0.931821 -0.111243
C84   C     C_2   0.014539 0.668971 0.086547 -0.107844
C85   C     C_2   0.516244 0.068134 0.045344 -0.159757
C86   C     C_2   0.541508 0.073218 0.971560 -0.165284
C87   C     C_2   0.016242 0.568134 0.045344 -0.159755
C88   C     C_2   0.041508 0.573218 0.971560 -0.165283
C89   C     C_R   0.689159 0.444002 0.965101 -0.146804
C90   C     C_R   0.298990 0.472856 0.038023 -0.139309
C91   C     C_R   0.189158 0.943994 0.965102 -0.146804
C92   C     C_R   0.798990 0.972855 0.038023 -0.139309
Cr1   Cr    Cr6+3 0.769270 0.163730 0.750710 1.025995
Cr2   Cr    Cr6+3 0.230730 0.163730 0.249290 1.040490
Cr3   Cr    Cr6+3 0.269270 0.663730 0.750710 1.025995
Cr4   Cr    Cr6+3 0.730730 0.663730 0.249290 1.040490
Cr5   Cr    Cr6+3 0.612620 0.009790 0.748780 1.008012
Cr6   Cr    Cr6+3 0.387380 0.009790 0.251220 1.007592
Cr7   Cr    Cr6+3 0.112620 0.509790 0.748780 1.008012
Cr8   Cr    Cr6+3 0.887380 0.509790 0.251220 1.007592
Cr9   Cr    Cr6+3 0.614160 0.322500 0.747710 1.003868
Cr10  Cr    Cr6+3 0.385840 0.322500 0.252290 1.015259
Cr11  Cr    Cr6+3 0.114160 0.822500 0.747710 1.003868
Cr12  Cr    Cr6+3 0.885840 0.822500 0.252290 1.015259
H1    H     H_    0.495497 0.981755 0.064240 0.139530
H2    H     H_    0.563843 0.990125 0.948473 0.154697
H3    H     H_    0.995495 0.481755 0.064239 0.139531
H4    H     H_    0.063842 0.490125 0.948473 0.154697
H5    H     H_    0.862850 0.347150 0.443764 0.131711
H6    H     H_    0.128969 0.399796 0.550279 0.133973
H7    H     H_    0.362850 0.847150 0.443764 0.131711
H8    H     H_    0.628969 0.899796 0.550279 0.133973
H9    H     H_    0.654593 0.509753 0.569475 0.098506
H10   H     H_    0.363505 0.432999 0.443446 0.127842
H11   H     H_    0.154592 0.009753 0.569475 0.098505
H12   H     H_    0.863505 0.932998 0.443446 0.127842
H13   H     H_    0.538493 0.253484 0.068627 0.104730
H14   H     H_    0.507452 0.256302 0.953776 0.112460
H15   H     H_    0.038494 0.753483 0.068627 0.104728
H16   H     H_    0.007453 0.756302 0.953776 0.112460
H17   H     H_    0.637071 0.450983 0.941900 0.127638
H18   H     H_    0.334277 0.529401 0.069292 0.125459
H19   H     H_    0.137069 0.950968 0.941902 0.127638
H20   H     H_    0.834278 0.029398 0.069291 0.125459
H21   H     H_    0.651365 0.476430 0.070466 0.117163
H22   H     H_    0.324049 0.562657 0.941261 0.139637
H23   H     H_    0.151364 0.976416 0.070468 0.117162
H24   H     H_    0.824050 0.062655 0.941260 0.139635
H25   H     H_    0.873825 0.403572 0.049632 0.131332
H26   H     H_    0.174009 0.266797 0.925457 0.131880
H27   H     H_    0.373826 0.903589 0.049630 0.131332
H28   H     H_    0.674007 0.766799 0.925458 0.131879
H29   H     H_    0.860458 0.384592 0.923075 0.134252
H30   H     H_    0.182362 0.236709 0.051280 0.142193
H31   H     H_    0.360458 0.884607 0.923073 0.134252
H32   H     H_    0.682360 0.736712 0.051281 0.142192
H33   H     H_    0.579238 0.355608 0.543248 0.119551
H34   H     H_    0.547715 0.352166 0.418108 0.166005
H35   H     H_    0.079238 0.855608 0.543248 0.119551
H36   H     H_    0.047715 0.852166 0.418108 0.166005
H37   H     H_    0.479085 0.976218 0.439673 0.121440
H38   H     H_    0.512104 0.980524 0.564305 0.123212
H39   H     H_    0.979085 0.476218 0.439673 0.121440
H40   H     H_    0.012104 0.480524 0.564305 0.123212
H41   H     H_    0.856005 0.331172 0.569189 0.139699
H42   H     H_    0.140007 0.388216 0.423765 0.136281
H43   H     H_    0.356005 0.831172 0.569189 0.139699
H44   H     H_    0.640007 0.888217 0.423765 0.136281
O1    O     O_R   0.784320 0.290430 0.830510 -0.522698
O2    O     O_R   0.215680 0.290430 0.169490 -0.530571
O3    O     O_R   0.284320 0.790430 0.830510 -0.522697
O4    O     O_R   0.715680 0.790430 0.169490 -0.530572
O5    O     O_R   0.554640 0.080370 0.673500 -0.501314
O6    O     O_R   0.445360 0.080370 0.326500 -0.509844
O7    O     O_R   0.054640 0.580370 0.673500 -0.501314
O8    O     O_R   0.945360 0.580370 0.326500 -0.509844
O9    O     O_R   0.543920 0.282180 0.666790 -0.502538
O10   O     O_R   0.456080 0.282180 0.333210 -0.528222
O11   O     O_R   0.043920 0.782180 0.666790 -0.502538
O12   O     O_R   0.956080 0.782180 0.333210 -0.528223
O13   O     O_R   0.679040 0.374160 0.674430 -0.528630
O14   O     O_R   0.320960 0.374160 0.325570 -0.509588
O15   O     O_R   0.179040 0.874160 0.674430 -0.528630
O16   O     O_R   0.820960 0.874160 0.325570 -0.509588
O17   O     O_3   0.665350 0.165340 0.749070 -0.289981
O18   O     O_3   0.334650 0.165340 0.250930 -0.252571
O19   O     O_3   0.165350 0.665340 0.749070 -0.289982
O20   O     O_3   0.834650 0.665340 0.250930 -0.252571
O21   O     O_R   0.762640 0.040960 0.825200 -0.502368
O22   O     O_R   0.237360 0.040960 0.174800 -0.507512
O23   O     O_R   0.262640 0.540960 0.825200 -0.502368
O24   O     O_R   0.737360 0.540960 0.174800 -0.507512
O25   O     O_R   0.667400 0.923970 0.829950 -0.532077
O26   O     O_R   0.332600 0.923970 0.170050 -0.526755
O27   O     O_R   0.167400 0.423970 0.829950 -0.532077
O28   O     O_R   0.832600 0.423970 0.170050 -0.526755
O29   O     O_R   0.553960 0.081340 0.821780 -0.481629
O30   O     O_R   0.446040 0.081340 0.178220 -0.500580
O31   O     O_R   0.053960 0.581340 0.821780 -0.481628
O32   O     O_R   0.946040 0.581340 0.178220 -0.500580
O33   O     O_R   0.543180 0.283240 0.826740 -0.506024
O34   O     O_R   0.456820 0.283240 0.173260 -0.515194
O35   O     O_R   0.043180 0.783240 0.826740 -0.506025
O36   O     O_R   0.956820 0.783240 0.173260 -0.515195
O37   O     O_R   0.678360 0.375140 0.822710 -0.519118
O38   O     O_R   0.321640 0.375140 0.177290 -0.501319
O39   O     O_R   0.178360 0.875140 0.822710 -0.519118
O40   O     O_R   0.821640 0.875140 0.177290 -0.501319
O41   O     O_R   0.785050 0.289380 0.670560 -0.519228
O42   O     O_R   0.214950 0.289380 0.329440 -0.507732
O43   O     O_R   0.285050 0.789380 0.670560 -0.519228
O44   O     O_R   0.714950 0.789380 0.329440 -0.507732
O45   O     O_R   0.763320 0.039990 0.676930 -0.452875
O46   O     O_R   0.236680 0.039990 0.323070 -0.440039
O47   O     O_R   0.263320 0.539990 0.676930 -0.452875
O48   O     O_R   0.736680 0.539990 0.323070 -0.440039
O49   O     O_R   0.668130 0.922920 0.670000 -0.548850
O50   O     O_R   0.331870 0.922920 0.330000 -0.542542
O51   O     O_R   0.168130 0.422920 0.670000 -0.548850
O52   O     O_R   0.831870 0.422920 0.330000 -0.542542
O53   O     O_3   0.645982 0.531674 0.422940 -0.546955
C93   C     C_3   0.597954 0.607027 0.460133 -0.016808
H45   H     H_    0.625580 0.680085 0.490464 0.141725
H46   H     H_    0.565956 0.551267 0.496447 0.102993
C94   C     C_3   0.547555 0.667099 0.407419 -0.367867
H47   H     H_    0.516062 0.595589 0.379800 0.148032
H48   H     H_    0.511431 0.730586 0.435936 0.070899
H49   H     H_    0.577056 0.719708 0.367308 0.176998
O54   O     O_3   0.363767 0.466383 0.586195 -0.531621
C95   C     C_3   0.413830 0.545647 0.556296 -0.003660
H50   H     H_    0.388746 0.622522 0.526164 0.113485
H51   H     H_    0.449076 0.492332 0.520740 0.127676
C96   C     C_3   0.458222 0.601480 0.615523 -0.357482
H52   H     H_    0.486871 0.527871 0.644715 0.177204
H53   H     H_    0.496884 0.665816 0.592788 0.065942
H54   H     H_    0.424164 0.652978 0.653101 0.171315
O55   O     O_3   0.145982 0.031674 0.422940 -0.546955
C97   C     C_3   0.097954 0.107027 0.460133 -0.016809
H55   H     H_    0.125580 0.180085 0.490464 0.141725
H56   H     H_    0.065956 0.051267 0.496447 0.102993
C98   C     C_3   0.047555 0.167099 0.407419 -0.367868
H57   H     H_    0.016062 0.095589 0.379801 0.148032
H58   H     H_    0.011431 0.230586 0.435936 0.070899
H59   H     H_    0.077056 0.219707 0.367307 0.176998
O56   O     O_3   0.863767 0.966383 0.586195 -0.531621
C99   C     C_3   0.913830 0.045647 0.556296 -0.003659
H60   H     H_    0.888746 0.122522 0.526164 0.113485
H61   H     H_    0.949076 0.992332 0.520740 0.127676
C100  C     C_3   0.958222 0.101479 0.615523 -0.357482
H62   H     H_    0.986871 0.027871 0.644715 0.177204
H63   H     H_    0.996884 0.165816 0.592788 0.065942
H64   H     H_    0.924163 0.152977 0.653101 0.171315

loop_
_geom_bond_atom_site_label_1
_geom_bond_atom_site_label_2
_ccdc_geom_bond_type
C58   C62   A    
C87   C88   S    
Cr6   O6    S    
Cr11  O19   S    
C55   C59   A    
C80   O44   A    
O53   C93   S    
C14   C18   A    
Cr1   O1    S    
C35   C36   A    
C78   O42   A    
C84   C87   D    
Cr11  O11   S    
Cr2   O18   S    
C32   C75   S    
C97   H55   S    
C45   O33   A    
C55   O55   S    
C21   C89   A    
C96   H52   S    
C15   C19   A    
Cr1   O21   S    
C50   C54   A    
C93   H46   S    
C56   O56   S    
C37   C41   A    
Cr11  O35   S    
C32   C36   A    
C56   C60   A    
O56   C99   S    
C66   O2    A    
C100  H64   S    
C92   H20   S    
C85   C86   S    
Cr6   O26   S    
C85   H1    S    
C96   H54   S    
Cr12  O20   S    
C19   H31   S    
Cr4   O4    S    
C73   O9    A    
C74   O6    A    
Cr7   O31   S    
C23   C67   S    
C57   C61   A    
C59   H11   S    
C9    C13   A    
C22   C66   S    
C47   O31   A    
C52   C69   S    
C46   C82   S    
Cr5   O29   S    
C8    H24   S    
C54   O54   S    
C38   H42   S    
C12   C16   A    
C46   O30   A    
C61   C77   S    
C49   C72   S    
Cr7   O7    S    
Cr8   O28   S    
Cr4   O20   S    
C8    C92   A    
C51   C70   S    
Cr5   O5    S    
Cr6   O30   S    
C18   C22   A    
C51   C55   A    
C81   C86   D    
C2    O26   A    
C16   C20   A    
C71   O47   A    
C88   H4    S    
C70   O46   A    
C44   C52   A    
C42   H6    S    
C96   H53   S    
C83   C88   D    
Cr1   O17   S    
C70   O50   A    
C98   H58   S    
C91   H19   S    
C69   O49   A    
C64   C80   S    
Cr10  O10   S    
C86   H2    S    
C1    C12   S    
C11   C15   A    
Cr12  O12   S    
Cr9   O37   S    
C2    C11   S    
C24   C92   A    
C41   C49   A    
C67   O39   A    
C60   C64   A    
O54   C95   S    
Cr7   O19   S    
C94   H48   S    
C77   O13   A    
Cr12  O40   S    
C65   O37   A    
Cr5   O25   S    
C93   H45   S    
C30   C34   A    
C67   O3    A    
Cr10  O34   S    
Cr5   O49   S    
C28   C31   A    
Cr11  O39   S    
C6    H22   S    
C47   O35   A    
C10   C14   A    
C48   O36   A    
C30   C73   S    
Cr6   O50   S    
C19   C23   A    
C57   H9    S    
C29   C74   S    
C41   H5    S    
C33   H37   S    
C25   C26   A    
C6    C90   A    
C81   H14   S    
C93   C94   S    
C80   O16   A    
C25   H33   S    
C48   C84   S    
Cr3   O19   S    
Cr12  O16   S    
C83   H16   S    
C7    C11   A    
C50   C71   S    
Cr2   O42   S    
C95   C96   S    
C5    C9    A    
C100  H62   S    
C68   O4    A    
C72   O52   A    
C98   H57   S    
C34   H38   S    
C97   H56   S    
Cr4   O48   S    
C8    C12   A    
C1    O25   A    
C17   C21   A    
C69   O45   A    
C33   C34   A    
C22   C90   A    
Cr7   O27   S    
Cr10  O38   S    
C20   H32   S    
C74   O10   A    
Cr9   O17   S    
C68   O40   A    
Cr6   O18   S    
C37   H41   S    
C42   C50   A    
Cr8   O52   S    
C3    O27   A    
Cr12  O36   S    
C2    O22   A    
C78   O14   A    
C99   H61   S    
C66   O38   A    
C17   H29   S    
C54   C58   A    
C23   C91   A    
C59   C63   A    
C60   H12   S    
Cr3   O3    S    
Cr8   O8    S    
C73   O5    A    
C99   C100  S    
C44   H8    S    
C7    C91   A    
C48   O32   A    
Cr9   O33   S    
Cr10  O14   S    
C97   C98   S    
C14   H26   S    
C94   H49   S    
C75   O11   A    
C25   C30   A    
C94   H47   S    
C76   O12   A    
C40   H44   S    
Cr3   O47   S    
Cr3   O43   S    
C4    O24   A    
C21   C65   S    
C27   C32   A    
Cr2   O46   S    
Cr11  O15   S    
C53   O53   S    
C62   C78   S    
C29   C33   A    
Cr1   O45   S    
C79   O15   A    
C28   H36   S    
C26   H34   S    
C87   H3    S    
C53   C57   A    
Cr4   O24   S    
C72   O48   A    
C37   C61   A    
C71   O51   A    
C63   C79   S    
Cr1   O41   S    
C98   H59   S    
C82   C85   D    
C39   C63   A    
C39   H43   S    
C95   H51   S    
C40   C64   A    
C13   C17   A    
C90   H18   S    
Cr8   O20   S    
C77   O41   A    
C46   O34   A    
Cr9   O13   S    
O55   C97   S    
C100  H63   S    
C3    C10   S    
Cr2   O22   S    
C45   O29   A    
C3    O23   A    
C31   C76   S    
C89   H17   S    
C43   C51   A    
C84   H15   S    
Cr5   O17   S    
C31   C35   A    
C1    O21   A    
C76   O8    A    
C5    H21   S    
C18   H30   S    
C45   C81   S    
C95   H50   S    
C65   O1    A    
Cr4   O44   S    
C16   H28   S    
C27   H35   S    
C49   C53   A    
C6    C10   A    
C24   C68   S    
Cr9   O9    S    
C47   C83   S    
C43   H7    S    
C38   C42   A    
C75   O7    A    
Cr2   O2    S    
C40   C44   A    
C15   H27   S    
C39   C43   A    
C26   C29   A    
Cr10  O18   S    
C99   H60   S    
C4    O28   A    
Cr7   O51   S    
C27   C28   A    
C58   H10   S    
C13   H25   S    
C79   O43   A    
C82   H13   S    
C7    H23   S    
C4    C9    S    
C36   H40   S    
Cr3   O23   S    
C20   C24   A    
C5    C89   A    
C52   C56   A    
C35   H39   S    
C38   C62   A    
Cr8   O32   S    
