data_mof_unit_19816.cif
_audit_creation_date              2012-12-10T18:44:20-0500
_audit_creation_method            fapswitch 2.2
_symmetry_space_group_name_H-M    P1
_symmetry_Int_Tables_number       1
_space_group_crystal_system       triclinic
_cell_length_a                    12.82676
_cell_length_b                    10.694543
_cell_length_c                    9.900756
_cell_angle_alpha                 89.729985
_cell_angle_beta                  97.428265
_cell_angle_gamma                 91.215732
_cell_volume                      1346.44535553

loop_
_atom_site_label
_atom_site_type_symbol
_atom_type_description
_atom_site_fract_x
_atom_site_fract_y
_atom_site_fract_z
_atom_type_partial_charge
C1    C     C_R   0.500326 0.260355 0.500248 0.983807
C2    C     C_R   0.701211 0.502205 0.526993 0.853323
C3    C     C_R   0.812934 0.515850 0.543249 -0.144940
C4    C     C_R   0.187156 0.487321 0.455819 -0.097559
C5    C     C_R   0.034860 0.351697 0.416552 0.072876
C6    C     C_R   0.963861 0.654510 0.575467 0.141179
C7    C     C_R   0.140648 0.374731 0.408113 0.024318
C8    C     C_R   0.858504 0.631553 0.583827 0.020078
C9    C     C_R   0.130288 0.583513 0.503493 -0.006857
C10   C     C_R   0.870675 0.419385 0.497591 0.021339
C11   C     C_R   0.023908 0.562008 0.518735 0.021506
C12   C     C_R   0.499165 0.739674 0.499723 0.953479
C13   C     C_R   0.976004 0.442540 0.477989 0.055069
C14   C     C_R   0.439901 0.064142 0.394147 0.568843
C15   C     C_R   0.558239 0.936054 0.606677 0.569815
C16   C     C_R   0.438200 0.935287 0.393158 -0.089457
C17   C     C_R   0.560507 0.064820 0.607169 -0.090569
C18   C     C_R   0.498278 0.872146 0.499515 -0.284852
C19   C     C_R   0.500588 0.127949 0.500720 -0.291949
C20   C     C_R   0.562316 0.582939 0.081912 -0.069367
C21   C     C_R   0.438723 0.415623 0.920743 -0.086180
C22   C     C_R   0.561785 0.582994 0.937795 0.615814
C23   C     C_R   0.437892 0.417954 0.063295 0.680090
C24   C     C_R   0.298867 0.498405 0.472929 0.896260
F1    F     F_    0.380464 0.126490 0.293036 -0.618365
F2    F     F_    0.616482 0.873992 0.709045 -0.629715
F3    F     F_    0.624254 0.665388 0.879795 -0.620114
F4    F     F_    0.375206 0.336211 0.122147 -0.579419
H1    H     H_    0.791550 0.268635 0.563138 0.189968
H2    H     H_    0.971769 0.176601 0.438310 0.220412
H3    H     H_    0.027845 0.827405 0.543948 0.212414
H4    H     H_    0.067301 0.761830 0.702769 0.211126
H5    H     H_    0.295670 0.896090 0.286903 0.208756
H6    H     H_    0.397344 0.894871 0.193658 0.235710
H7    H     H_    0.601828 0.105561 0.806554 0.231968
H8    H     H_    0.703296 0.103457 0.713027 0.217079
H9    H     H_    0.705958 0.655943 0.148113 0.206020
H10   H     H_    0.607732 0.760187 0.131848 0.214794
H11   H     H_    0.324752 0.358212 0.769398 0.230697
H12   H     H_    0.760065 0.302525 0.394840 0.203278
H13   H     H_    0.425864 0.255927 0.809667 0.227034
H14   H     H_    0.240868 0.693402 0.616444 0.209052
H15   H     H_    0.215189 0.734389 0.449144 0.185394
H16   H     H_    0.736617 0.750655 0.552886 0.196600
H17   H     H_    0.765322 0.698499 0.715961 0.293744
H18   H     H_    0.171378 0.260663 0.255564 0.258432
H19   H     H_    0.199618 0.199955 0.414502 0.200487
H20   H     H_    0.926496 0.252587 0.287372 0.216373
N1    N     N_R   0.499970 0.499970 0.857200 -0.179107
N2    N     N_3   0.625672 0.131403 0.713086 -0.418622
N3    N     N_3   0.628168 0.669847 0.164596 -0.362801
N4    N     N_3   0.376543 0.319712 0.847140 -0.382971
N5    N     N_R   0.500030 0.500030 0.142800 -0.175676
N6    N     N_3   0.821692 0.297771 0.474677 -0.484451
N7    N     N_3   0.181677 0.702744 0.534224 -0.491754
N8    N     N_3   0.797477 0.729954 0.629981 -0.379836
N9    N     N_3   0.203336 0.281086 0.355780 -0.354939
N10   N     N_3   0.991058 0.235589 0.360445 -0.471365
N11   N     N_3   0.005441 0.773990 0.624441 -0.419861
N12   N     N_3   0.373431 0.868617 0.286964 -0.413771
O1    O     O_R   0.499990 0.316750 0.614620 -0.639897
O2    O     O_R   0.500010 0.683250 0.385380 -0.601522
O3    O     O_R   0.499990 0.316780 0.385290 -0.532939
O4    O     O_R   0.500010 0.683220 0.614710 -0.537783
O5    O     O_R   0.346360 0.499970 0.595710 -0.662558
O6    O     O_R   0.653640 0.500030 0.404290 -0.617956
O7    O     O_R   0.346360 0.499990 0.366380 -0.559390
O8    O     O_R   0.653640 0.500010 0.633620 -0.583441
Zn1   Zn    Zn3+2 0.500000 0.499980 0.653120 0.997397
Zn2   Zn    Zn3+2 0.500000 0.500020 0.346880 1.035451

loop_
_geom_bond_atom_site_label_1
_geom_bond_atom_site_label_2
_ccdc_geom_bond_type
C17   N2    S    
C15   C18   A    
C5    C7    A    
H20   N10   S    
C1    O1    A    
C9    N7    S    
H14   N7    S    
H19   N9    S    
C11   C13   A    
H16   N8    S    
H13   N4    S    
C5    C13   A    
C24   O7    A    
O3    Zn2   S    
O7    Zn2   S    
C8    N8    S    
H7    N2    S    
C21   N1    A    
C2    C3    S    
O4    Zn1   S    
H8    N2    S    
C20   N3    S    
C14   F1    S    
C3    C10   A    
N1    Zn1   S    
C23   F4    S    
O5    Zn1   S    
H6    N12   S    
C9    C11   A    
C20   N5    A    
O6    Zn2   S    
C5    N10   S    
C4    C7    A    
H9    N3    S    
N5    Zn2   S    
C24   O5    A    
C6    N11   S    
H15   N7    S    
C17   C19   A    
C20   C22   A    
C23   N5    A    
H5    N12   S    
H12   N6    S    
C22   F3    S    
C22   N1    A    
H18   N9    S    
C4    C24   S    
C14   C16   A    
C1    C19   S    
H1    N6    S    
C10   N6    S    
O1    Zn1   S    
C1    O3    A    
C12   O2    A    
O2    Zn2   S    
C16   C18   A    
C3    C8    A    
C16   N12   S    
H3    N11   S    
C6    C11   A    
C15   C17   A    
C12   O4    A    
C14   C19   A    
C15   F2    S    
C6    C8    A    
H10   N3    S    
H4    N11   S    
C4    C9    A    
H2    N10   S    
C2    O8    A    
C21   C23   A    
C7    N9    S    
C21   N4    S    
H17   N8    S    
H11   N4    S    
O8    Zn1   S    
C2    O6    A    
C10   C13   A    
C12   C18   S    
