data_mof_unit_51302.cif
_audit_creation_date              2013-03-05T16:01:47-0500
_audit_creation_method            fapswitch 2.2
_symmetry_space_group_name_H-M    P1
_symmetry_Int_Tables_number       1
_space_group_crystal_system       triclinic
_cell_length_a                    14.757177
_cell_length_b                    14.845975
_cell_length_c                    27.752748
_cell_angle_alpha                 75.351434
_cell_angle_beta                  102.067086
_cell_angle_gamma                 115.644583
_cell_volume                      5268.41229185

loop_
_atom_site_label
_atom_site_type_symbol
_atom_site_description
_atom_site_fract_x
_atom_site_fract_y
_atom_site_fract_z
_atom_type_partial_charge
O1    O     O_R   0.977900 0.338120 0.517190 -0.584424
O2    O     O_R   0.022100 0.661880 0.482810 -0.580129
O3    O     O_R   0.839850 0.379180 0.495160 -0.552288
O4    O     O_R   0.160150 0.620820 0.504840 -0.575336
C1    C     C_R   0.880118 0.312336 0.508864 0.856302
C2    C     C_R   0.119653 0.687648 0.492538 0.867525
O5    O     O_R   0.069030 0.479490 0.580750 -0.582255
O6    O     O_R   0.930970 0.520510 0.419250 -0.589939
O7    O     O_R   0.930970 0.520550 0.558720 -0.566366
O8    O     O_R   0.069030 0.479450 0.441280 -0.535734
C3    C     C_R   0.997772 0.497372 0.592328 0.878108
C4    C     C_R   0.002188 0.502561 0.407697 0.883400
Cu1   Cu    Cu3+1 0.081740 0.475690 0.513040 1.009673
Cu2   Cu    Cu3+1 0.918260 0.524310 0.486960 1.004847
C5    C     C_R   0.908728 0.456294 0.817606 0.591136
C6    C     C_R   0.089813 0.533241 0.183434 0.586793
O9    O     O_2   0.822084 0.407164 0.789914 -0.510186
O10   O     O_2   0.178120 0.569985 0.212733 -0.516306
N1    N     N_R   0.997105 0.505471 0.796463 -0.461550
N2    N     N_R   0.000540 0.496151 0.203094 -0.461124
C7    C     C_R   0.086376 0.557176 0.822862 0.618365
C8    C     C_R   0.909404 0.457199 0.174994 0.623168
C9    C     C_R   0.978813 0.574439 0.707051 -0.134238
C10   C     C_R   0.016413 0.424433 0.292322 -0.137572
C11   C     C_R   0.977372 0.570882 0.657365 -0.245422
C12   C     C_R   0.018483 0.427531 0.342160 -0.236134
C13   C     C_R   0.008316 0.415675 0.683889 -0.078862
C14   C     C_R   0.995830 0.587220 0.316579 -0.082491
C15   C     C_R   0.011488 0.421132 0.734281 0.223580
C16   C     C_R   0.992391 0.582529 0.266049 0.224884
C17   C     C_R   0.996510 0.500597 0.745475 0.303300
C18   C     C_R   0.002493 0.500824 0.254280 0.301856
C19   C     C_R   0.998808 0.507078 0.896667 -0.083080
C20   C     C_R   0.997391 0.496698 0.102439 -0.083416
C21   C     C_R   0.907850 0.455846 0.867970 -0.010130
C22   C     C_R   0.090045 0.534298 0.132915 -0.009296
C23   C     C_R   0.818029 0.403580 0.890172 -0.118035
C24   C     C_R   0.181217 0.572396 0.112515 -0.118571
C25   C     C_R   0.089831 0.559854 0.873869 -0.101826
C26   C     C_R   0.905073 0.457011 0.123571 -0.101359
C27   C     C_R   0.993602 0.493303 0.645272 -0.071543
C28   C     C_R   0.006498 0.507079 0.354749 -0.068950
H1    H     H_    0.747711 0.362160 0.869052 0.196331
H2    H     H_    0.253202 0.599490 0.135513 0.196045
C29   C     C_R   0.904959 0.457874 0.020662 -0.008792
C30   C     C_R   0.090209 0.552238 0.977583 -0.007895
C31   C     C_R   0.090750 0.543573 0.029831 0.074776
C32   C     C_R   0.905709 0.454995 0.969906 0.074122
C33   C     C_R   0.997622 0.499285 0.050835 0.080526
C34   C     C_R   0.998282 0.504907 0.948186 0.080558
C35   C     C_R   0.814084 0.421648 0.042113 -0.220751
C36   C     C_R   0.178832 0.608347 0.953568 -0.219556
C37   C     C_R   0.812978 0.420571 0.092275 0.321209
C38   C     C_R   0.179803 0.612656 0.902995 0.319536
O11   O     O_2   0.824250 0.419463 0.197218 -0.456040
O12   O     O_2   0.170767 0.604178 0.799537 -0.457065
C39   C     C_R   0.816816 0.402728 0.940079 -0.181913
C40   C     C_R   0.181786 0.576686 0.062114 -0.180902
H3    H     H_    0.027279 0.366333 0.371022 0.167236
H4    H     H_    0.965491 0.630183 0.628210 0.166060
H5    H     H_    0.024838 0.362023 0.283090 0.160163
H6    H     H_    0.966768 0.635171 0.715866 0.160387
H7    H     H_    0.741238 0.395998 0.020251 0.174825
H8    H     H_    0.249247 0.652927 0.973000 0.175209
H9    H     H_    0.744963 0.357624 0.954473 0.155671
H10   H     H_    0.255349 0.604175 0.049898 0.156969
C41   C     C_R   0.811442 0.204277 0.517601 -0.039443
C42   C     C_R   0.186551 0.795562 0.491695 -0.037753
C43   C     C_R   0.780545 0.026584 0.549571 0.004184
C44   C     C_R   0.212114 0.972840 0.479270 0.008798
C45   C     C_R   0.847550 0.128631 0.539185 -0.226457
C46   C     C_R   0.147969 0.870586 0.478950 -0.243819
C47   C     C_R   0.707731 0.177976 0.505929 -0.204881
C48   C     C_R   0.289735 0.822550 0.506029 -0.220772
C49   C     C_R   0.637248 0.078148 0.519319 0.064407
C50   C     C_R   0.356965 0.923804 0.507085 0.066037
C51   C     C_R   0.674333 0.001028 0.541351 0.132721
C52   C     C_R   0.318339 0.000623 0.490926 0.150767
C53   C     C_R   0.530960 0.053391 0.511104 0.086587
C54   C     C_R   0.462542 0.950260 0.521197 0.088508
C55   C     C_R   0.501408 0.876750 0.546166 -0.229033
C56   C     C_R   0.490602 0.128217 0.493775 -0.246885
C57   C     C_R   0.604588 0.901796 0.556380 -0.153033
C58   C     C_R   0.387145 0.102439 0.484667 -0.143577
H11   H     H_    0.628256 0.842091 0.577154 0.197159
H12   H     H_    0.362827 0.164107 0.470359 0.198340
H13   H     H_    0.317070 0.763350 0.514316 0.148175
H14   H     H_    0.683963 0.237673 0.486112 0.162295
H15   H     H_    0.067203 0.849348 0.469309 0.162445
H16   H     H_    0.928408 0.148901 0.547239 0.162303
H17   H     H_    0.453408 0.799194 0.560350 0.143458
H18   H     H_    0.536523 0.208496 0.487619 0.148322
N3    N     N_R   0.795430 0.560780 0.467350 -0.202033
N4    N     N_R   0.204570 0.439220 0.532650 -0.203229
C59   C     C_R   0.702602 0.635778 0.401788 -0.248275
C60   C     C_R   0.267588 0.314008 0.577002 -0.227285
C61   C     C_R   0.790272 0.620427 0.421951 0.040695
C62   C     C_R   0.194761 0.354119 0.567487 0.031544
C63   C     C_R   0.713845 0.513684 0.494756 0.129222
C64   C     C_R   0.287307 0.488409 0.505982 0.133060
C65   C     C_R   0.618707 0.519428 0.473890 -0.092013
C66   C     C_R   0.359484 0.445195 0.510856 -0.095177
C67   C     C_R   0.616043 0.587203 0.427555 0.136556
C68   C     C_R   0.349575 0.357113 0.548190 0.155755
C69   C     C_R   0.526685 0.461229 0.497355 0.068733
C70   C     C_R   0.442667 0.487970 0.481050 0.073218
C71   C     C_R   0.440364 0.548715 0.433223 -0.291199
C72   C     C_R   0.510781 0.369594 0.531953 -0.331064
C73   C     C_R   0.525231 0.600313 0.407069 -0.009570
C74   C     C_R   0.422876 0.315595 0.555963 0.009607
H19   H     H_    0.129380 0.316612 0.587990 0.165659
H20   H     H_    0.854491 0.655371 0.400729 0.162769
H21   H     H_    0.703116 0.682500 0.365023 0.200104
H22   H     H_    0.258298 0.249379 0.607068 0.195322
H23   H     H_    0.370376 0.553112 0.414258 0.182307
H24   H     H_    0.561937 0.332977 0.537000 0.173124
C75   C     C_2   0.015623 0.326567 0.672553 0.405765
H25   H     H_    0.062449 0.290834 0.697760 0.114216
O13   O     O_2   0.966325 0.289541 0.635949 -0.549246
C76   C     C_2   0.992768 0.677850 0.328570 0.399988
H26   H     H_    0.948976 0.716968 0.303322 0.115928
O14   O     O_2   0.042058 0.712122 0.365869 -0.539829
C77   C     C_2   0.826517 0.951003 0.568225 0.347939
H27   H     H_    0.900440 0.972644 0.590049 0.093653
O15   O     O_2   0.786442 0.866933 0.556840 -0.547429
C78   C     C_2   0.163133 0.045884 0.467755 0.358197
H28   H     H_    0.092075 0.029798 0.443515 0.080418
O16   O     O_2   0.197174 0.120590 0.487428 -0.518456
C79   C     C_2   0.513747 0.668421 0.358928 0.388541
H29   H     H_    0.441912 0.646828 0.335271 0.106078
O17   O     O_2   0.580675 0.751776 0.346888 -0.516072
C80   C     C_2   0.412125 0.215575 0.588040 0.376792
H30   H     H_    0.479399 0.202755 0.606005 0.096080
O18   O     O_2   0.329660 0.144729 0.592116 -0.504915
C81   C     C_2   0.310482 0.593618 0.478809 0.392934
H31   H     H_    0.378606 0.654577 0.491388 0.036958
O19   O     O_2   0.259264 0.612317 0.440203 -0.507137
C82   C     C_2   0.729663 0.471628 0.548467 0.401763
H32   H     H_    0.723372 0.507945 0.576246 0.063848
O20   O     O_2   0.743158 0.393073 0.562142 -0.526592
Br1   Br    Br    0.031215 0.318507 0.788687 -0.448522
Br2   Br    Br    0.979751 0.689485 0.212296 -0.442074
Br3   Br    Br    0.680000 0.368822 0.113083 -0.356745
Br4   Br    Br    0.309153 0.694906 0.878122 -0.361845

loop_
_geom_bond_atom_site_label_1
_geom_bond_atom_site_label_2
_geom_bond_distance
_ccdc_geom_bond_type
C38   Br4   1.928290 S    
C78   H28   1.085701 S    
C13   C15   1.411119 A    
C47   C49   1.401854 A    
C43   C51   1.425564 A    
C1    C41   1.469081 S    
N1    C17   1.433070 S    
C77   H27   1.085782 S    
C31   C33   1.421203 A    
O5    C3    1.305965 A    
C10   H5    1.082898 S    
C48   C50   1.401441 A    
C20   C26   1.418316 A    
C50   C52   1.422596 A    
N1    C7    1.366424 A    
C58   H12   1.079619 S    
C75   O13   1.220942 D    
C77   O15   1.220566 D    
C25   C38   1.414787 A    
C44   C52   1.424041 A    
C70   C71   1.406575 A    
N4    C62   1.354369 A    
C42   C48   1.391651 A    
C30   C36   1.410377 A    
C56   H18   1.074797 S    
C5    O9    1.350159 S    
C14   C28   1.420363 A    
O4    Cu1   1.933162 S    
C43   C45   1.399165 A    
C4    C28   1.467431 S    
C24   C40   1.385678 A    
C40   H10   1.077229 S    
C9    H6    1.082970 S    
C59   C67   1.409545 A    
C80   H30   1.085806 S    
C60   C62   1.391092 A    
O6    Cu2   1.944137 S    
C63   C82   1.475220 S    
C74   C80   1.486327 S    
C41   C47   1.392546 A    
C11   H4    1.083752 S    
N4    C64   1.380040 A    
C48   H13   1.074204 S    
C16   C18   1.406250 A    
C81   H31   1.084942 S    
C12   H3    1.083726 S    
N3    C63   1.379183 A    
Cu2   N3    2.040325 S    
C20   C22   1.411066 A    
C57   H11   1.079525 S    
C64   C81   1.474787 S    
C6    N2    1.362780 A    
C44   C78   1.485632 S    
C32   C34   1.421582 A    
C15   Br1   1.929369 S    
C65   C67   1.423477 A    
Cu1   Cu2   2.716251 S    
C71   C73   1.396648 A    
C60   H22   1.079212 S    
O2    C2    1.305653 A    
C5    C21   1.398819 A    
C55   C57   1.385583 A    
C76   O14   1.220958 D    
C13   C75   1.486195 S    
C65   C69   1.443720 A    
C69   C72   1.408877 A    
C32   C39   1.413491 A    
C35   H7    1.076363 S    
O4    C2    1.309437 A    
C36   H8    1.076834 S    
C11   C27   1.401576 A    
C61   H20   1.080469 S    
C19   C34   1.423549 A    
C51   C57   1.399955 A    
C37   Br3   1.928508 S    
C9    C17   1.395432 A    
C23   H1    1.083597 S    
C5    N1    1.362852 A    
O7    Cu2   1.949661 S    
C10   C18   1.395843 A    
C47   H14   1.073701 S    
C24   H2    1.083578 S    
C7    O12   1.346595 S    
C49   C51   1.425684 A    
C13   C27   1.420754 A    
C7    C25   1.415815 A    
C29   C33   1.415280 A    
C42   C46   1.398302 A    
C8    C26   1.415808 A    
C64   C66   1.432392 A    
C36   C38   1.391556 A    
C19   C25   1.418515 A    
C66   C68   1.420366 A    
O7    C3    1.306535 A    
C71   H23   1.077818 S    
O3    Cu2   1.933161 S    
O8    C4    1.306214 A    
C80   O18   1.220444 D    
C63   C65   1.432637 A    
N2    C8    1.366658 A    
C56   C58   1.386759 A    
C60   C68   1.410056 A    
C43   C77   1.485110 S    
C14   C76   1.486106 S    
O1    C1    1.307417 A    
O1    Cu1   1.943850 S    
N3    C61   1.353270 A    
C76   H26   1.084238 S    
C12   C28   1.401202 A    
C79   H29   1.085763 S    
N2    C18   1.433388 S    
C29   C32   1.422494 A    
C81   O19   1.220197 D    
C30   C31   1.421568 A    
C20   C33   1.423611 A    
C78   O16   1.220594 D    
C62   H19   1.081201 S    
C21   C23   1.395747 A    
C50   C54   1.424105 A    
C39   H9    1.076814 S    
C54   C55   1.411841 A    
O3    C1    1.306759 A    
O8    Cu1   1.949659 S    
C53   C56   1.415170 A    
C59   C61   1.388125 A    
C8    O11   1.346602 S    
C82   O20   1.220387 D    
C69   C70   1.414298 A    
C30   C34   1.414845 A    
C16   Br2   1.929636 S    
Cu1   N4    2.040328 S    
C67   C73   1.417144 A    
C72   H24   1.075885 S    
C22   C24   1.395873 A    
C14   C16   1.410864 A    
C15   C17   1.406048 A    
C75   H25   1.084340 S    
C6    C22   1.398876 A    
C31   C40   1.413168 A    
C68   C74   1.417352 A    
C46   H15   1.084274 S    
C10   C12   1.389031 A    
C45   H16   1.084444 S    
C59   H21   1.078422 S    
C2    C42   1.470899 S    
C19   C21   1.410754 A    
C72   C74   1.400204 A    
C66   C70   1.441722 A    
C41   C45   1.395792 A    
C9    C11   1.388623 A    
O2    Cu2   1.943850 S    
C82   H32   1.084957 S    
C53   C54   1.416097 A    
C55   H17   1.078797 S    
C52   C58   1.399453 A    
O5    Cu1   1.944137 S    
C6    O10   1.350165 S    
C26   C37   1.414852 A    
C3    C27   1.468361 S    
C29   C35   1.410576 A    
C44   C46   1.400047 A    
C35   C37   1.391595 A    
C73   C79   1.485436 S    
C49   C53   1.428683 A    
C23   C39   1.385702 A    
O6    C4    1.305714 A    
C79   O17   1.220424 D    
