data_mof_unit_7309.cif
_audit_creation_date              2012-12-11T14:40:16-0500
_audit_creation_method            fapswitch 2.2
_symmetry_space_group_name_H-M    P1
_symmetry_Int_Tables_number       1
_space_group_crystal_system       triclinic
_cell_length_a                    19.558626
_cell_length_b                    10.850438
_cell_length_c                    19.507464
_cell_angle_alpha                 90.024733
_cell_angle_beta                  97.70594
_cell_angle_gamma                 89.137928
_cell_volume                      4102.01186066

loop_
_atom_site_label
_atom_site_type_symbol
_atom_type_description
_atom_site_fract_x
_atom_site_fract_y
_atom_site_fract_z
_atom_type_partial_charge
C1    C     C_R   0.726110 0.950723 0.360490 0.540090
C2    C     C_R   0.290309 0.994545 0.632346 0.550474
C3    C     C_R   0.226110 0.450723 0.360490 0.540091
C4    C     C_R   0.790309 0.494545 0.632347 0.550474
C5    C     C_3   0.688365 0.371040 0.491821 -0.138667
C6    C     C_3   0.278508 0.303525 0.516676 -0.113236
C7    C     C_3   0.188365 0.871037 0.491822 -0.138668
C8    C     C_3   0.778500 0.803520 0.516677 -0.113237
C9    C     C_3   0.738753 0.366734 0.438244 0.054462
C10   C     C_3   0.252972 0.398339 0.566552 0.058563
C11   C     C_3   0.238753 0.866733 0.438244 0.054463
C12   C     C_3   0.752971 0.898342 0.566553 0.058564
C13   C     C_3   0.761468 0.499160 0.454634 -0.112748
C14   C     C_3   0.285559 0.503261 0.530975 -0.130203
C15   C     C_3   0.261466 0.999160 0.454634 -0.112747
C16   C     C_3   0.785566 0.003254 0.530975 -0.130198
C17   C     C_3   0.819731 0.447623 0.508730 -0.130123
C18   C     C_3   0.216086 0.519504 0.483370 -0.114280
C19   C     C_3   0.319731 0.947625 0.508729 -0.130123
C20   C     C_3   0.716094 0.019511 0.483370 -0.114283
C21   C     C_3   0.796788 0.314754 0.491522 -0.112289
C22   C     C_3   0.184001 0.413656 0.520122 -0.112575
C23   C     C_3   0.296789 0.814754 0.491522 -0.112286
C24   C     C_3   0.684001 0.913674 0.520123 -0.112577
C25   C     C_3   0.746668 0.319752 0.546111 -0.112422
C26   C     C_3   0.209081 0.319444 0.469433 -0.120774
C27   C     C_3   0.246669 0.819751 0.546111 -0.112425
C28   C     C_3   0.709074 0.819453 0.469434 -0.120768
C29   C     C_3   0.769707 0.451932 0.562519 0.054292
C30   C     C_3   0.241197 0.424364 0.433402 0.056799
C31   C     C_3   0.269707 0.951932 0.562519 0.054292
C32   C     C_3   0.741197 0.924363 0.433403 0.056798
C33   C     C_3   0.529989 0.264704 0.966875 -0.103263
C34   C     C_3   0.487858 0.282045 0.027325 -0.099513
C35   C     C_3   0.030453 0.764078 0.966727 -0.103409
C36   C     C_3   0.988397 0.782417 0.027159 -0.099482
C37   C     C_3   0.571170 0.156452 0.004448 -0.147529
C38   C     C_3   0.433782 0.189535 0.995233 -0.145935
C39   C     C_3   0.071181 0.655491 0.004462 -0.147520
C40   C     C_3   0.933923 0.690495 0.995205 -0.145781
C41   C     C_3   0.528904 0.174053 0.064238 0.056631
C42   C     C_3   0.475895 0.172668 0.935336 0.055654
C43   C     C_3   0.028982 0.674081 0.064227 0.056569
C44   C     C_3   0.975962 0.672635 0.935329 0.055637
C45   C     C_R   0.535188 0.180377 0.338122 0.547003
C46   C     C_R   0.464896 0.179489 0.661913 0.548639
C47   C     C_R   0.035188 0.680377 0.338122 0.547002
C48   C     C_R   0.964896 0.679489 0.661913 0.548623
C49   C     C_3   0.475084 0.081294 0.033058 -0.104879
C50   C     C_3   0.516726 0.063985 0.971583 -0.106513
C51   C     C_3   0.974763 0.581917 0.033177 -0.104921
C52   C     C_3   0.016336 0.563611 0.971727 -0.106572
C53   C     C_1   0.774585 0.454242 0.911115 -0.004987
C54   C     C_1   0.236936 0.425520 0.095634 -0.004596
C55   C     C_1   0.274566 0.954187 0.911106 -0.005044
C56   C     C_1   0.736927 0.925545 0.095626 -0.004510
C57   C     C_1   0.744080 0.391123 0.031937 -0.043422
C58   C     C_1   0.252277 0.407915 0.965364 -0.049182
C59   C     C_1   0.244059 0.891058 0.031926 -0.043393
C60   C     C_1   0.752262 0.907951 0.965355 -0.049233
C61   C     C_1   0.759757 0.425200 0.966543 -0.042422
C62   C     C_1   0.245468 0.415397 0.036039 -0.048395
C63   C     C_1   0.259735 0.925133 0.966531 -0.042487
C64   C     C_1   0.745453 0.915432 0.036030 -0.048304
C65   C     C_1   0.733139 0.359533 0.088337 -0.008242
C66   C     C_1   0.257258 0.394605 0.905098 -0.005364
C67   C     C_1   0.233124 0.859483 0.088330 -0.008192
C68   C     C_1   0.757248 0.894631 0.905090 -0.005430
C69   C     C_R   0.726651 0.316666 0.368966 0.552024
C70   C     C_R   0.259970 0.364956 0.638641 0.538681
C71   C     C_R   0.226651 0.816665 0.368966 0.552031
C72   C     C_R   0.759970 0.864957 0.638641 0.538676
C73   C     C_R   0.721852 0.952807 0.163587 0.534317
C74   C     C_R   0.292794 0.991258 0.845936 0.537756
C75   C     C_R   0.221854 0.452801 0.163590 0.534293
C76   C     C_R   0.792804 0.491284 0.845936 0.537798
C77   C     C_R   0.559201 0.181737 0.135693 0.538248
C78   C     C_R   0.443352 0.181903 0.864756 0.540655
C79   C     C_R   0.059228 0.681744 0.135700 0.538234
C80   C     C_R   0.943397 0.681893 0.864761 0.540622
C81   C     C_R   0.723872 0.316752 0.155482 0.537644
C82   C     C_R   0.264101 0.360093 0.835774 0.535157
C83   C     C_R   0.223866 0.816731 0.155483 0.537646
C84   C     C_R   0.764098 0.860100 0.835771 0.535154
C85   C     C_1   0.485839 0.171176 0.594676 -0.017654
C86   C     C_1   0.514133 0.172687 0.405291 -0.016587
C87   C     C_1   0.985839 0.671176 0.594676 -0.017652
C88   C     C_1   0.014133 0.672687 0.405291 -0.016589
C89   C     C_1   0.504125 0.168838 0.464715 -0.062959
C90   C     C_1   0.495796 0.168134 0.535212 -0.063870
C91   C     C_1   0.004125 0.668838 0.464715 -0.062960
C92   C     C_1   0.995796 0.668134 0.535212 -0.063868
C93   C     C_3   0.711442 0.504359 0.509757 -0.123625
C94   C     C_3   0.310476 0.409416 0.479489 -0.122552
C95   C     C_3   0.211441 0.004357 0.509758 -0.123623
C96   C     C_3   0.810475 0.909401 0.479489 -0.122555
Cr1   Cr    Cr6+3 0.765830 0.160660 0.268180 1.020208
Cr2   Cr    Cr6+3 0.234170 0.160660 0.731820 1.026618
Cr3   Cr    Cr6+3 0.265830 0.660660 0.268180 1.020183
Cr4   Cr    Cr6+3 0.734170 0.660660 0.731820 1.026629
Cr5   Cr    Cr6+3 0.612110 0.009150 0.248770 1.025190
Cr6   Cr    Cr6+3 0.387890 0.009150 0.751230 1.022776
Cr7   Cr    Cr6+3 0.112110 0.509150 0.248770 1.025210
Cr8   Cr    Cr6+3 0.887890 0.509150 0.751230 1.022766
Cr9   Cr    Cr6+3 0.615930 0.324050 0.248450 1.026861
Cr10  Cr    Cr6+3 0.384070 0.324050 0.751550 1.023683
Cr11  Cr    Cr6+3 0.115930 0.824050 0.248450 1.026843
Cr12  Cr    Cr6+3 0.884070 0.824050 0.751550 1.023708
H1    H     H_    0.634356 0.338591 0.482988 0.119234
H2    H     H_    0.305536 0.215787 0.533244 0.101164
H3    H     H_    0.134357 0.838586 0.482989 0.119233
H4    H     H_    0.805522 0.715777 0.533246 0.101163
H5    H     H_    0.676497 0.581275 0.520548 0.127708
H6    H     H_    0.361687 0.406297 0.460904 0.122232
H7    H     H_    0.176494 0.081270 0.520549 0.127710
H8    H     H_    0.861687 0.906267 0.460903 0.122233
H9    H     H_    0.373767 0.980045 0.517318 0.118164
H10   H     H_    0.689340 0.107595 0.466993 0.100351
H11   H     H_    0.873768 0.480040 0.517319 0.118166
H12   H     H_    0.189326 0.607583 0.466995 0.100353
H13   H     H_    0.832007 0.237446 0.481865 0.127921
H14   H     H_    0.132595 0.416946 0.538317 0.126712
H15   H     H_    0.332009 0.737448 0.481864 0.127922
H16   H     H_    0.632595 0.916978 0.538319 0.126709
H17   H     H_    0.628054 0.143040 0.010290 0.105770
H18   H     H_    0.376890 0.202830 0.989577 0.106150
H19   H     H_    0.128014 0.641311 0.010325 0.105922
H20   H     H_    0.877083 0.704568 0.989539 0.106279
H21   H     H_    0.552540 0.339879 0.938913 0.144268
H22   H     H_    0.475927 0.372050 0.050477 0.144232
H23   H     H_    0.053314 0.838720 0.938635 0.144198
H24   H     H_    0.976855 0.872735 0.050181 0.144203
H25   H     H_    0.453264 0.006500 0.061898 0.137761
H26   H     H_    0.527759 0.975034 0.946842 0.135669
H27   H     H_    0.952621 0.507638 0.062124 0.137751
H28   H     H_    0.026988 0.474356 0.947109 0.135658
O1    O     O_R   0.783230 0.287800 0.346510 -0.503485
O2    O     O_R   0.216770 0.287800 0.653490 -0.524510
O3    O     O_R   0.283230 0.787800 0.346510 -0.503481
O4    O     O_R   0.716770 0.787800 0.653490 -0.524513
O5    O     O_R   0.554500 0.081650 0.170370 -0.493197
O6    O     O_R   0.445500 0.081650 0.829630 -0.510415
O7    O     O_R   0.054500 0.581650 0.170370 -0.493152
O8    O     O_R   0.945500 0.581650 0.829630 -0.510455
O9    O     O_R   0.545430 0.285140 0.163100 -0.518429
O10   O     O_R   0.454570 0.285140 0.836900 -0.507546
O11   O     O_R   0.045430 0.785140 0.163100 -0.518421
O12   O     O_R   0.954570 0.785140 0.836900 -0.507485
O13   O     O_R   0.677850 0.374730 0.185500 -0.492079
O14   O     O_R   0.322150 0.374730 0.814500 -0.505402
O15   O     O_R   0.177850 0.874730 0.185500 -0.492118
O16   O     O_R   0.822150 0.874730 0.814500 -0.505368
O17   O     O_3   0.664630 0.164620 0.255130 -0.305963
O18   O     O_3   0.335370 0.164620 0.744870 -0.302028
O19   O     O_3   0.164630 0.664620 0.255130 -0.305997
O20   O     O_3   0.835370 0.664620 0.744870 -0.302014
O21   O     O_R   0.760130 0.037060 0.338610 -0.517351
O22   O     O_R   0.239870 0.037060 0.661390 -0.488728
O23   O     O_R   0.260130 0.537060 0.338610 -0.517352
O24   O     O_R   0.739870 0.537060 0.661390 -0.488725
O25   O     O_R   0.666620 0.921370 0.332440 -0.510133
O26   O     O_R   0.333380 0.921370 0.667560 -0.505364
O27   O     O_R   0.166620 0.421370 0.332440 -0.510130
O28   O     O_R   0.833380 0.421370 0.667560 -0.505358
O29   O     O_R   0.557170 0.082420 0.312350 -0.485555
O30   O     O_R   0.442830 0.082420 0.687650 -0.507688
O31   O     O_R   0.057170 0.582420 0.312350 -0.485561
O32   O     O_R   0.942830 0.582420 0.687650 -0.507685
O33   O     O_R   0.548310 0.285980 0.316250 -0.512740
O34   O     O_R   0.451690 0.285980 0.683750 -0.496196
O35   O     O_R   0.048310 0.785980 0.316250 -0.512729
O36   O     O_R   0.951690 0.785980 0.683750 -0.496209
O37   O     O_R   0.680520 0.375500 0.327470 -0.488958
O38   O     O_R   0.319480 0.375500 0.672530 -0.497832
O39   O     O_R   0.180520 0.875500 0.327470 -0.488953
O40   O     O_R   0.819480 0.875500 0.672530 -0.497831
O41   O     O_R   0.780350 0.286970 0.193350 -0.489015
O42   O     O_R   0.219650 0.286970 0.806650 -0.511497
O43   O     O_R   0.280350 0.786970 0.193350 -0.489001
O44   O     O_R   0.719650 0.786970 0.806650 -0.511514
O45   O     O_R   0.757460 0.036290 0.196640 -0.510956
O46   O     O_R   0.242540 0.036290 0.803360 -0.479686
O47   O     O_R   0.257460 0.536290 0.196640 -0.510982
O48   O     O_R   0.742540 0.536290 0.803360 -0.479663
O49   O     O_R   0.663740 0.920540 0.179290 -0.507806
O50   O     O_R   0.336260 0.920540 0.820710 -0.499066
O51   O     O_R   0.163740 0.420540 0.179290 -0.507778
O52   O     O_R   0.836260 0.420540 0.820710 -0.499091
H29   H     H_    0.767065 0.571044 0.415370 0.126806
H30   H     H_    0.317140 0.575323 0.559694 0.114974
H31   H     H_    0.267063 0.071042 0.415369 0.126807
H32   H     H_    0.817151 0.075312 0.559693 0.114976
H33   H     H_    0.740618 0.248535 0.585595 0.128219
H34   H     H_    0.178022 0.245826 0.441462 0.120632
H35   H     H_    0.240618 0.748537 0.585597 0.128215
H36   H     H_    0.678009 0.745839 0.441465 0.120633

loop_
_geom_bond_atom_site_label_1
_geom_bond_atom_site_label_2
_ccdc_geom_bond_type
C58   C62   S    
Cr9   O17   S    
Cr2   O18   S    
C67   C83   S    
Cr10  O14   S    
Cr3   O23   S    
C17   C29   S    
C9    C21   S    
C14   C18   S    
C19   C23   S    
C35   C36   S    
C8    C96   S    
C44   C80   S    
C19   C31   S    
C2    O26   A    
C20   H10   S    
C94   H6    S    
C13   H29   S    
C38   C49   S    
Cr11  O35   S    
C10   C22   S    
C15   C19   S    
Cr6   O50   S    
Cr9   O33   S    
Cr2   O2    S    
C37   C41   S    
C33   C42   S    
C9    C69   S    
C38   C42   S    
C36   H24   S    
C15   C95   S    
C11   C71   S    
C66   C82   S    
C43   C79   S    
C40   H20   S    
Cr4   O44   S    
C24   H16   S    
C7    C27   S    
C41   C49   S    
C57   C61   S    
C84   O44   A    
C9    C13   S    
C7    C11   S    
C21   C25   S    
C16   H32   S    
C59   C67   T    
Cr12  O16   S    
C55   C74   S    
C51   H27   S    
C58   C66   T    
C48   O36   A    
C20   C24   S    
C95   H7    S    
C80   O8    A    
C55   C63   T    
C8    C28   S    
C56   C64   T    
C18   C30   S    
Cr1   O17   S    
Cr2   O42   S    
Cr10  O18   S    
C73   O45   A    
Cr6   O18   S    
C37   H17   S    
C4    C29   S    
C76   O52   A    
Cr6   O6    S    
C16   C20   S    
C46   C85   S    
Cr11  O15   S    
C44   C52   S    
C72   O40   A    
C39   C52   S    
C12   C72   S    
C75   O47   A    
Cr5   O25   S    
Cr6   O30   S    
Cr9   O37   S    
C87   C92   T    
C25   C29   S    
C6    H2    S    
Cr3   O3    S    
C34   C41   S    
C11   C15   S    
Cr5   O49   S    
Cr1   O1    S    
C73   O49   A    
C38   H18   S    
C22   H14   S    
C83   O15   A    
Cr9   O13   S    
C69   O1    A    
Cr8   O52   S    
C79   O7    A    
C16   C96   S    
C39   H19   S    
C27   C31   S    
C51   C52   S    
C68   C84   S    
C12   C16   S    
C36   C40   S    
Cr7   O51   S    
C10   C14   S    
C96   H8    S    
C91   C92   S    
C29   C93   S    
C71   O3    A    
C54   C62   T    
C6    C94   S    
Cr11  O11   S    
C78   O6    A    
C69   O37   A    
C33   C37   S    
C46   O34   A    
Cr3   O19   S    
Cr1   O41   S    
Cr1   O21   S    
Cr3   O43   S    
Cr2   O46   S    
C3    C30   S    
C35   C39   S    
C5    C9    S    
Cr8   O32   S    
C47   O31   A    
Cr4   O24   S    
C47   O35   A    
Cr12  O20   S    
C88   C91   T    
C28   C32   S    
C8    C12   S    
Cr9   O9    S    
C82   O42   A    
C4    O28   A    
C33   C34   S    
Cr10  O38   S    
C48   C87   S    
C1    O21   A    
C3    O23   A    
C93   H5    S    
Cr7   O31   S    
Cr8   O20   S    
Cr5   O29   S    
C35   C44   S    
C70   O38   A    
C34   H22   S    
C82   O14   A    
C22   C26   S    
C42   C50   S    
C79   O11   A    
C10   C70   S    
Cr7   O19   S    
C32   C96   S    
C80   O12   A    
C70   O2    A    
C23   C27   S    
Cr12  O36   S    
C50   H26   S    
C52   H28   S    
C24   C28   S    
C5    C25   S    
C59   C63   S    
C53   C76   S    
C27   H35   S    
Cr5   O17   S    
C53   C61   T    
C26   H34   S    
C18   H12   S    
C19   H9    S    
C25   H33   S    
Cr6   O26   S    
C42   C78   S    
C20   C32   S    
C33   H21   S    
C49   H25   S    
C56   C73   S    
C46   O30   A    
Cr5   O5    S    
C34   C38   S    
Cr3   O47   S    
C84   O16   A    
C75   O51   A    
C72   O4    A    
C57   C65   T    
C86   C89   T    
Cr7   O7    S    
C6    C10   S    
C23   H15   S    
C5    C93   S    
C85   C90   T    
Cr1   O45   S    
C6    C26   S    
C74   O46   A    
C3    O27   A    
C7    H3    S    
C40   C51   S    
C7    C95   S    
C15   H31   S    
C12   C24   S    
Cr7   O27   S    
C83   O43   A    
Cr10  O10   S    
C13   C17   S    
C60   C64   S    
C60   C68   T    
C47   C88   S    
C18   C22   S    
C45   C86   S    
C35   H23   S    
C81   O41   A    
C30   C94   S    
C17   H11   S    
C41   C77   S    
C37   C50   S    
Cr4   O20   S    
Cr8   O28   S    
C4    O24   A    
C77   O9    A    
Cr11  O39   S    
C43   C51   S    
C81   O13   A    
Cr12  O40   S    
C11   C23   S    
C28   H36   S    
C8    H4    S    
C71   O39   A    
C1    C32   S    
C21   H13   S    
Cr4   O48   S    
C17   C21   S    
C31   C95   S    
C78   O10   A    
C1    O25   A    
C54   C75   S    
C14   H30   S    
Cr2   O22   S    
C40   C44   S    
C2    O22   A    
C39   C43   S    
C77   O5    A    
C49   C50   S    
Cr10  O34   S    
C13   C93   S    
C65   C81   S    
C2    C31   S    
C36   C43   S    
C5    H1    S    
Cr12  O12   S    
C89   C90   S    
C76   O48   A    
Cr8   O8    S    
C45   O29   A    
C48   O32   A    
C14   C94   S    
Cr11  O19   S    
C45   O33   A    
C74   O50   A    
C26   C30   S    
Cr4   O4    S    
