data_mof_unit_25834.cif
_audit_creation_date              2013-03-05T16:11:11-0500
_audit_creation_method            fapswitch 2.2
_symmetry_space_group_name_H-M    P1
_symmetry_Int_Tables_number       1
_space_group_crystal_system       triclinic
_cell_length_a                    9.977701
_cell_length_b                    10.708171
_cell_length_c                    13.65487
_cell_angle_alpha                 91.31843
_cell_angle_beta                  84.493391
_cell_angle_gamma                 92.280695
_cell_volume                      1450.77309435

loop_
_atom_site_label
_atom_site_type_symbol
_atom_site_description
_atom_site_fract_x
_atom_site_fract_y
_atom_site_fract_z
_atom_type_partial_charge
O1    O     O_R   0.385380 0.683250 0.500010 -0.620151
O2    O     O_R   0.614620 0.316750 0.499990 -0.620175
O3    O     O_R   0.614710 0.683220 0.500000 -0.565674
O4    O     O_R   0.385290 0.316780 0.500000 -0.573310
C1    C     C_R   0.502721 0.739548 0.498912 0.956625
C2    C     C_R   0.497233 0.260497 0.500940 0.944889
O5    O     O_R   0.368830 0.499990 0.640350 -0.579216
O6    O     O_R   0.631170 0.500010 0.359650 -0.589207
O7    O     O_R   0.598160 0.499960 0.640350 -0.537745
O8    O     O_R   0.401840 0.500040 0.359650 -0.542119
C3    C     C_R   0.477314 0.501565 0.684905 0.924009
C4    C     C_R   0.522673 0.498674 0.315101 0.907666
Zn1   Zn    Zn3+2 0.346870 0.500020 0.500000 1.095918
Zn2   Zn    Zn3+2 0.653130 0.499980 0.500000 1.095425
C5    C     C_R   0.936249 0.461603 0.418768 0.389840
C6    C     C_R   0.064522 0.538620 0.581853 0.414045
C7    C     C_R   0.079347 0.467823 0.416909 0.171395
C8    C     C_R   0.920411 0.533205 0.583246 0.165024
C9    C     C_1   0.537578 0.490690 0.212422 -0.005172
C10   C     C_1   0.462360 0.508792 0.787620 0.003075
C11   C     C_2   0.551536 0.476217 0.021722 0.168710
C12   C     C_2   0.448127 0.521800 0.978392 0.170701
C13   C     C_1   0.452109 0.515377 0.874697 0.069611
C14   C     C_1   0.547771 0.483304 0.125383 0.069415
C15   C     C_R   0.585165 0.941725 0.559385 0.190529
C16   C     C_R   0.413709 0.058452 0.440981 0.182628
C17   C     C_R   0.575457 0.070084 0.565706 0.185177
C18   C     C_R   0.423920 0.930092 0.434387 0.173531
C19   C     C_R   0.491602 0.127714 0.504894 -0.364315
C20   C     C_R   0.507919 0.872456 0.495132 -0.369740
N1    N     N_R   0.142790 0.500030 0.500020 -0.192807
N2    N     N_R   0.857210 0.499970 0.499980 -0.195534
O9    O     O_3   0.876038 0.414228 0.338103 -0.566145
C21   C     C_3   0.870642 0.282021 0.341988 0.139977
H1    H     H_    0.840768 0.247789 0.417868 0.157182
H2    H     H_    0.970836 0.245372 0.316426 0.211724
C22   C     C_3   0.768167 0.228711 0.274189 -0.333392
H3    H     H_    0.667155 0.264527 0.298054 0.221140
H4    H     H_    0.797878 0.259108 0.197611 0.273967
C23   C     C_3   0.758889 0.086141 0.276209 -0.794222
H5    H     H_    0.857854 0.047074 0.250329 0.293983
H6    H     H_    0.682921 0.050490 0.227073 0.295447
H7    H     H_    0.727471 0.053899 0.352004 0.252702
O10   O     O_3   0.128704 0.572901 0.664768 -0.574533
C24   C     C_3   0.102310 0.695710 0.701800 0.141868
H8    H     H_    0.179730 0.719772 0.753154 0.181199
H9    H     H_    0.005723 0.697353 0.748584 0.221726
C25   C     C_3   0.112019 0.798939 0.624126 -0.453966
H10   H     H_    0.213919 0.803190 0.584939 0.252157
H11   H     H_    0.038092 0.780056 0.569433 0.265720
C26   C     C_3   0.086118 0.926936 0.672136 -0.680403
H12   H     H_    0.984527 0.927115 0.713262 0.313833
H13   H     H_    0.091670 0.998944 0.614467 0.291055
H14   H     H_    0.163340 0.951542 0.723507 0.247484
N3    N     N_R   0.155358 0.449960 0.324106 0.254036
O11   O     O_R   0.208952 0.343315 0.301816 -0.313460
O12   O     O_R   0.145482 0.529080 0.254532 -0.247788
N4    N     N_R   0.842827 0.549162 0.675564 0.236271
O13   O     O_R   0.853646 0.470653 0.745420 -0.266996
O14   O     O_R   0.782609 0.653118 0.696428 -0.331777
N5    N     N_R   0.336026 0.581802 0.032394 0.232259
O15   O     O_R   0.219071 0.577274 0.997397 -0.288883
O16   O     O_R   0.355175 0.658641 0.105393 -0.274529
N6    N     N_R   0.663582 0.416054 0.967782 0.228874
O17   O     O_R   0.780338 0.419890 0.003066 -0.293286
O18   O     O_R   0.644489 0.339780 0.894427 -0.274813
N7    N     N_R   0.671024 0.881988 0.620193 0.258933
O19   O     O_R   0.793776 0.860715 0.584763 -0.348710
O20   O     O_R   0.639180 0.878661 0.714772 -0.311906
N8    N     N_R   0.329579 0.118404 0.378912 0.261532
O21   O     O_R   0.203590 0.132788 0.409840 -0.333328
O22   O     O_R   0.368946 0.129761 0.285819 -0.319979
N9    N     N_R   0.647971 0.141374 0.635532 0.261739
O23   O     O_R   0.584215 0.215870 0.698875 -0.329939
O24   O     O_R   0.777383 0.131418 0.636508 -0.311497
N10   N     N_R   0.353199 0.858949 0.363493 0.259536
O25   O     O_R   0.223820 0.867855 0.361530 -0.293108
O26   O     O_R   0.418534 0.785300 0.300342 -0.334732

loop_
_geom_bond_atom_site_label_1
_geom_bond_atom_site_label_2
_geom_bond_distance
_ccdc_geom_bond_type
C17   N9    1.438852 S    
O6    Zn2   1.949734 S    
O7    Zn2   1.942144 S    
N8    O21   1.301092 A    
C17   C19   1.402998 A    
C21   C22   1.529475 S    
N9    O24   1.301215 A    
N9    O23   1.300833 A    
C7    N3    1.426021 S    
C16   C18   1.382541 A    
C15   N7    1.427268 S    
C10   C13   1.184311 T    
O6    C4    1.291089 A    
C26   H14   1.110944 S    
N6    O17   1.301512 A    
N3    O11   1.297713 A    
C25   H11   1.108884 S    
C9    C14   1.184172 T    
C8    N2    1.384988 A    
C5    N2    1.362885 A    
C22   H4    1.111631 S    
C6    C8    1.435070 A    
N5    O16   1.301305 A    
C24   H8    1.111146 S    
O10   C24   1.423319 S    
C12   N5    1.443858 S    
O5    C3    1.290942 A    
Zn1   N1    2.036228 S    
O7    C3    1.297956 A    
O2    C2    1.294654 A    
O3    Zn2   2.014177 S    
O8    C4    1.297706 A    
C25   C26   1.526264 S    
C16   N8    1.428136 S    
C4    C9    1.396675 S    
C18   C20   1.403388 A    
C23   H5    1.110867 S    
C22   H3    1.109535 S    
N10   O26   1.300874 A    
O9    C21   1.416596 S    
C22   C23   1.526503 S    
C21   H2    1.110498 S    
N3    O12   1.300664 A    
N5    O15   1.301505 A    
O2    Zn2   1.984266 S    
O1    C1    1.294329 A    
C3    C10   1.396848 S    
C11   C14   1.412738 S    
C15   C17   1.381873 A    
C5    O9    1.381488 S    
N4    O14   1.298888 A    
C26   H12   1.110720 S    
C18   N10   1.438677 S    
O3    C1    1.292225 A    
O5    Zn1   1.949733 S    
C2    C19   1.422802 S    
O1    Zn1   1.984264 S    
N10   O25   1.301071 A    
C16   C19   1.403658 A    
O4    C2    1.291364 A    
C21   H1    1.116377 S    
C1    C20   1.424022 S    
C24   H9    1.104470 S    
N7    O20   1.300983 A    
C15   C20   1.402976 A    
C5    C7    1.424510 A    
C6    O10   1.388540 S    
C12   C13   1.412845 S    
C25   H10   1.102345 S    
C11   N6    1.443892 S    
N8    O22   1.300946 A    
C24   C25   1.543339 S    
C26   H13   1.110807 S    
N4    O13   1.300838 A    
C11   C12   1.350348 D    
C8    N4    1.425082 S    
C23   H7    1.110944 S    
C7    N1    1.382052 A    
N7    O19   1.299790 A    
O4    Zn1   2.014177 S    
Zn2   N2    2.036226 S    
C23   H6    1.110516 S    
C6    N1    1.366091 A    
O8    Zn1   1.942145 S    
N6    O18   1.301264 A    
