data_mof_unit_11761.cif
_audit_creation_date              2012-12-10T18:07:39-0500
_audit_creation_method            fapswitch 2.2
_symmetry_space_group_name_H-M    P1
_symmetry_Int_Tables_number       1
_space_group_crystal_system       triclinic
_cell_length_a                    11.484291
_cell_length_b                    12.643865
_cell_length_c                    13.0797
_cell_angle_alpha                 81.968732
_cell_angle_beta                  90.678134
_cell_angle_gamma                 101.790756
_cell_volume                      1840.66665118

loop_
_atom_site_label
_atom_site_type_symbol
_atom_type_description
_atom_site_fract_x
_atom_site_fract_y
_atom_site_fract_z
_atom_type_partial_charge
C1    C     C_R   0.483634 0.438448 0.691158 0.875045
C2    C     C_R   0.361859 0.618137 0.901993 -0.244049
C3    C     C_R   0.373934 0.542269 0.838102 -0.189067
C4    C     C_R   0.717422 0.500263 0.500817 0.899440
C5    C     C_R   0.515988 0.519795 0.133930 -0.347138
C6    C     C_R   0.461827 0.689951 0.157644 0.494434
C7    C     C_R   0.473017 0.396881 0.800987 -0.176927
C8    C     C_R   0.317190 0.089343 0.355894 0.427577
C9    C     C_R   0.633112 0.798315 0.635369 0.662372
C10   C     C_R   0.652657 0.901730 0.666846 -0.403968
C11   C     C_R   0.596357 0.980543 0.616827 -0.222605
C12   C     C_R   0.503834 0.595979 0.197839 -0.165653
C13   C     C_R   0.524699 0.959877 0.530852 0.060200
C14   C     C_R   0.501459 0.853367 0.504868 0.045933
C15   C     C_R   0.472282 0.040526 0.472749 -0.226361
C16   C     C_R   0.512400 0.561137 0.308321 0.871444
C17   C     C_R   0.379479 0.009989 0.402953 -0.105073
C18   C     C_R   0.353515 0.901973 0.380599 0.470975
C19   C     C_R   0.418178 0.826879 0.428770 -0.267922
C20   C     C_R   0.511872 0.152333 0.478399 0.568736
C21   C     C_R   0.344579 0.193579 0.385821 -0.250453
C22   C     C_R   0.282507 0.499442 0.500093 0.875407
C23   C     C_R   0.516644 0.302735 0.836735 -0.325189
C24   C     C_1   0.838178 0.500382 0.502965 -0.194986
C25   C     C_1   0.940424 0.499273 0.503826 -0.013592
C26   C     C_1   0.059071 0.498140 0.503024 -0.014020
C27   C     C_1   0.161507 0.498058 0.501572 -0.202919
C28   C     C_R   0.411918 0.695402 0.059428 -0.333852
C29   C     C_3   0.548194 0.865440 0.176981 0.103227
C30   C     C_3   0.669941 0.858947 0.223936 -0.354775
C31   C     C_3   0.765727 0.954727 0.176379 -0.971583
C32   C     C_3   0.179231 0.792801 0.337446 0.154021
C33   C     C_3   0.081020 0.793062 0.257427 -0.312519
C34   C     C_R   0.530632 0.272064 0.943163 0.551488
C35   C     C_3   0.971626 0.703996 0.289411 -0.982120
C36   C     C_3   0.236919 0.136798 0.197592 0.103010
C37   C     C_3   0.163486 0.084233 0.112966 -0.325900
C38   C     C_3   0.169550 0.164427 0.013484 -0.959995
C39   C     C_3   0.706657 0.215682 0.426144 0.129150
C40   C     C_3   0.769395 0.120655 0.419749 -0.396105
C41   C     C_3   0.878475 0.155789 0.347898 -0.942704
C42   C     C_3   0.674177 0.699194 0.790455 0.097492
C43   C     C_3   0.791477 0.733667 0.845348 -0.376803
C44   C     C_3   0.772594 0.716120 0.962456 -0.958147
C45   C     C_R   0.510124 0.343266 0.010316 -0.281579
C46   C     C_3   0.561625 0.094799 0.927072 0.080251
C47   C     C_3   0.431047 0.035418 0.924536 -0.379315
C48   C     C_3   0.416555 0.943721 0.858093 -0.976482
C49   C     C_R   0.470065 0.440658 0.974370 0.024945
C50   C     C_R   0.436807 0.458870 0.870762 0.054328
C51   C     C_R   0.465616 0.522660 0.036632 0.117043
C52   C     C_R   0.412401 0.612197 0.999319 0.107590
H1    H     H_    0.520510 0.938527 0.198964 0.181870
H2    H     H_    0.054323 0.873432 0.247938 0.237018
H3    H     H_    0.115424 0.780737 0.181800 0.222323
H4    H     H_    0.995001 0.622361 0.295980 0.271250
H5    H     H_    0.902067 0.708244 0.230130 0.263485
H6    H     H_    0.935041 0.715350 0.364429 0.278201
H7    H     H_    0.331617 0.161377 0.170157 0.137006
H8    H     H_    0.203260 0.210465 0.210315 0.137271
H9    H     H_    0.197692 0.011812 0.097330 0.230197
H10   H     H_    0.069090 0.056871 0.139267 0.220538
H11   H     H_    0.129573 0.234530 0.026267 0.271932
H12   H     H_    0.555219 0.878589 0.091040 0.118754
H13   H     H_    0.119367 0.122775 0.952302 0.266013
H14   H     H_    0.263255 0.195432 0.986806 0.265826
H15   H     H_    0.776186 0.287177 0.439305 0.187714
H16   H     H_    0.665939 0.239040 0.350485 0.109602
H17   H     H_    0.798769 0.090843 0.497787 0.252498
H18   H     H_    0.707103 0.052825 0.390181 0.223822
H19   H     H_    0.852656 0.187881 0.269359 0.264095
H20   H     H_    0.920055 0.084744 0.342669 0.281424
H21   H     H_    0.945220 0.220049 0.378304 0.268569
H22   H     H_    0.644182 0.610047 0.813100 0.186536
H23   H     H_    0.664888 0.859318 0.308698 0.236460
H24   H     H_    0.603679 0.737502 0.819014 0.123733
H25   H     H_    0.855844 0.684697 0.825294 0.235405
H26   H     H_    0.830656 0.820944 0.819687 0.216563
H27   H     H_    0.709433 0.765320 0.984468 0.262182
H28   H     H_    0.858726 0.741779 0.000460 0.266764
H29   H     H_    0.736802 0.628532 0.990519 0.274199
H30   H     H_    0.607557 0.056082 0.648819 0.211401
H31   H     H_    0.709895 0.921371 0.730561 0.162116
H32   H     H_    0.401968 0.748221 0.404754 0.245717
H33   H     H_    0.317211 0.683844 0.873622 0.154390
H34   H     H_    0.695618 0.782019 0.210042 0.219331
H35   H     H_    0.371964 0.764167 0.031060 0.165930
H36   H     H_    0.562179 0.456344 0.164143 0.171320
H37   H     H_    0.543916 0.257899 0.780162 0.169870
H38   H     H_    0.524701 0.318869 0.090994 0.149923
H39   H     H_    0.612814 0.035351 0.965492 0.157476
H40   H     H_    0.603617 0.119489 0.849220 0.132285
H41   H     H_    0.399349 0.000788 0.004570 0.227615
H42   H     H_    0.374531 0.093110 0.892459 0.229943
H43   H     H_    0.434064 0.978523 0.775791 0.279118
H44   H     H_    0.323935 0.895630 0.865931 0.262563
H45   H     H_    0.776862 0.951705 0.092649 0.263560
H46   H     H_    0.478774 0.888538 0.882277 0.257298
H47   H     H_    0.335550 0.550582 0.762157 0.164569
H48   H     H_    0.292184 0.253733 0.359621 0.171533
H49   H     H_    0.851739 0.950316 0.214631 0.268649
H50   H     H_    0.741137 0.033123 0.186567 0.281322
H51   H     H_    0.143827 0.807620 0.412151 0.129031
H52   H     H_    0.204422 0.711633 0.347633 0.135234
N1    N     N_R   0.440320 0.222190 0.444690 -0.153811
N2    N     N_R   0.559060 0.776980 0.554780 -0.154252
O1    O     O_R   0.471500 0.366730 0.627160 -0.591460
O2    O     O_3   0.278339 0.874785 0.300406 -0.590233
O3    O     O_3   0.223760 0.061573 0.289741 -0.609993
O4    O     O_3   0.625032 0.193253 0.511109 -0.646268
O5    O     O_3   0.691809 0.718724 0.681524 -0.618489
O6    O     O_3   0.576098 0.181764 0.986680 -0.660208
O7    O     O_R   0.509620 0.544830 0.662520 -0.594610
O8    O     O_R   0.646490 0.410960 0.482310 -0.591429
O9    O     O_R   0.684610 0.589050 0.517670 -0.566099
O10   O     O_R   0.490380 0.455170 0.337480 -0.621236
O11   O     O_R   0.528500 0.633270 0.372840 -0.605666
O12   O     O_R   0.315390 0.410950 0.482330 -0.605430
O13   O     O_R   0.353510 0.589040 0.517690 -0.647567
O14   O     O_3   0.461365 0.772409 0.216480 -0.634615
Zn1   Zn    Zn3+2 0.474550 0.381080 0.476390 0.957398
Zn2   Zn    Zn3+2 0.525450 0.618920 0.523610 0.960216

loop_
_geom_bond_atom_site_label_1
_geom_bond_atom_site_label_2
_ccdc_geom_bond_type
C33   H3    S    
C9    O5    S    
C48   H43   S    
C46   O6    S    
C34   O6    S    
C39   H16   S    
C4    O9    A    
C43   C44   S    
C36   H7    S    
C37   H10   S    
C43   H26   S    
C26   C27   T    
C29   C30   S    
C40   H18   S    
C35   H6    S    
C31   H49   S    
C4    O8    A    
C36   C37   S    
C38   H11   S    
C6    C12   A    
C30   C31   S    
C4    C24   S    
C46   H40   S    
C10   H31   S    
C2    H33   S    
C15   C17   A    
C18   C19   A    
O8    Zn1   S    
C39   O4    S    
C6    C28   A    
O7    Zn2   S    
C12   C16   S    
C49   C51   A    
C32   H52   S    
C30   H34   S    
C9    C10   A    
C41   H19   S    
C29   H12   S    
O9    Zn2   S    
C13   C14   A    
C5    H36   S    
C15   C20   A    
C1    O7    A    
C16   O10   A    
C6    O14   S    
C3    C50   A    
C8    C21   A    
C11   H30   S    
C22   O13   A    
C29   O14   S    
C42   H22   S    
C40   H17   S    
C51   C52   A    
C31   H50   S    
C38   H14   S    
C44   H28   S    
C24   C25   T    
C5    C12   A    
C44   H29   S    
O10   Zn1   S    
C39   C40   S    
C21   H48   S    
C46   H39   S    
C9    N2    A    
O12   Zn1   S    
O11   Zn2   S    
C37   C38   S    
C47   C48   S    
C38   H13   S    
C45   C49   A    
C23   C34   A    
N2    Zn2   S    
C28   H35   S    
C23   H37   S    
C17   C18   A    
C47   H41   S    
C32   H51   S    
N1    Zn1   S    
C34   C45   A    
C45   H38   S    
C2    C52   A    
C1    O1    A    
C41   H20   S    
C20   O4    S    
C40   C41   S    
C22   C27   S    
C13   C15   A    
C42   C43   S    
O1    Zn1   S    
C19   H32   S    
C20   N1    A    
O13   Zn2   S    
C33   H2    S    
C22   O12   A    
C46   C47   S    
C48   H44   S    
C35   H4    S    
C1    C7    S    
C39   H15   S    
C14   C19   A    
C44   H27   S    
C7    C50   A    
C36   H8    S    
C37   H9    S    
C28   C52   A    
C43   H25   S    
C48   H46   S    
C42   H24   S    
C8    C17   A    
C35   H5    S    
C32   C33   S    
C2    C3    A    
C25   C26   S    
C8    O3    S    
C30   H23   S    
C11   C13   A    
C29   H1    S    
C7    C23   A    
C33   C35   S    
C47   H42   S    
C31   H45   S    
C42   O5    S    
C18   O2    S    
C10   C11   A    
C41   H21   S    
C3    H47   S    
C14   N2    A    
C49   C50   A    
C32   O2    S    
C36   O3    S    
C5    C51   A    
C16   O11   A    
C21   N1    A    
