data_mof_unit_22548.cif
_audit_creation_date              2012-10-26T18:34:22-0400
_audit_creation_method            fapswitch 2.2
_symmetry_space_group_name_H-M    P1
_symmetry_Int_Tables_number       1
_space_group_crystal_system       triclinic
_cell_length_a                    10.832573
_cell_length_b                    9.692501
_cell_length_c                    9.078017
_cell_angle_alpha                 90.000059
_cell_angle_beta                  94.94588
_cell_angle_gamma                 90.000013
_cell_volume                      949.594938732

loop_
_atom_site_label
_atom_site_type_symbol
_atom_type_description
_atom_site_fract_x
_atom_site_fract_y
_atom_site_fract_z
_atom_type_partial_charge
C1    C     C_R   0.262517 0.500000 0.499402 0.537856
C2    C     C_R   0.063877 0.625329 0.499739 -0.142097
C3    C     C_R   0.871600 0.500000 0.500500 0.020753
C4    C     C_R   0.128400 0.500000 0.499500 0.020753
C5    C     C_R   0.419125 0.074105 0.403623 0.127409
C6    C     C_R   0.580875 0.925894 0.596377 0.127409
C7    C     C_R   0.580875 0.074106 0.596377 0.127409
C8    C     C_R   0.419125 0.925894 0.403623 0.127409
C9    C     C_3   0.326764 0.145647 0.293338 -0.338672
C10   C     C_3   0.673236 0.854353 0.706662 -0.338671
C11   C     C_3   0.673237 0.145647 0.706661 -0.338671
C12   C     C_R   0.737483 0.500000 0.500598 0.537856
C13   C     C_3   0.326763 0.854353 0.293339 -0.338671
C14   C     C_R   0.499495 0.500000 0.221078 0.546287
C15   C     C_R   0.500505 0.500000 0.778922 0.546287
C16   C     C_1   0.499814 0.500000 0.065633 -0.061971
C17   C     C_1   0.500186 0.500000 0.934367 -0.061972
C18   C     C_R   0.063876 0.374670 0.499742 -0.142098
C19   C     C_R   0.936123 0.625330 0.500258 -0.142097
C20   C     C_R   0.936123 0.374670 0.500261 -0.142097
Cu1   Cu    Cu3+1 0.500000 0.640660 0.500000 0.909875
Cu2   Cu    Cu3+1 0.500000 0.359340 0.500000 0.909875
H1    H     H_    0.111773 0.276589 0.499657 0.129253
H2    H     H_    0.655313 0.883494 0.821048 0.100271
H3    H     H_    0.673153 0.257277 0.706314 0.199773
H4    H     H_    0.655318 0.116504 0.821048 0.100270
H5    H     H_    0.769115 0.116280 0.685631 0.084171
H6    H     H_    0.326847 0.742723 0.293686 0.199773
H7    H     H_    0.230885 0.883720 0.314368 0.084171
H8    H     H_    0.344682 0.883496 0.178952 0.100270
H9    H     H_    0.888227 0.723411 0.500343 0.129253
H10   H     H_    0.888227 0.276589 0.500348 0.129252
H11   H     H_    0.111773 0.723411 0.499652 0.129252
H12   H     H_    0.326847 0.257276 0.293686 0.199773
H13   H     H_    0.344687 0.116505 0.178951 0.100271
H14   H     H_    0.230886 0.116278 0.314362 0.084170
H15   H     H_    0.673153 0.742724 0.706314 0.199773
H16   H     H_    0.769114 0.883722 0.685638 0.084170
N1    N     N_R   0.500000 0.852070 0.500000 -0.224145
N2    N     N_R   0.500000 0.147930 0.500000 -0.224145
O1    O     O_R   0.319640 0.618740 0.499990 -0.518716
O2    O     O_R   0.680360 0.381260 0.500010 -0.518717
O3    O     O_R   0.680360 0.618740 0.500010 -0.518717
O4    O     O_R   0.319640 0.381260 0.499990 -0.518717
O5    O     O_R   0.500000 0.618760 0.288390 -0.505718
O6    O     O_R   0.500000 0.381240 0.711610 -0.505718
O7    O     O_R   0.500000 0.618760 0.711610 -0.505718
O8    O     O_R   0.500000 0.381240 0.288390 -0.505718

loop_
_geom_bond_atom_site_label_1
_geom_bond_atom_site_label_2
_ccdc_geom_bond_type
C6    C10   S    
C9    H14   S    
C2    C4    A    
C7    N2    A    
C13   H6    S    
C5    C9    S    
C6    C7    A    
C11   H4    S    
C8    N1    A    
C15   O7    A    
C14   O5    A    
C1    O4    A    
Cu2   O8    S    
Cu1   N1    S    
C11   H5    S    
C10   H16   S    
C1    C4    S    
C19   H9    S    
Cu2   N2    S    
C3    C20   A    
Cu1   Cu2   S    
C3    C19   A    
Cu2   O2    S    
C10   H15   S    
Cu1   O1    S    
C2    H11   S    
C13   H7    S    
Cu2   O6    S    
C7    C11   S    
C12   O3    A    
C18   C20   A    
C9    H12   S    
C14   C16   S    
C5    C8    A    
C11   H3    S    
C18   H1    S    
C8    C13   S    
C13   H8    S    
C15   C17   S    
C20   H10   S    
C5    N2    A    
C1    O1    A    
C9    H13   S    
Cu1   O7    S    
C14   O8    A    
C6    N1    A    
C12   O2    A    
C3    C12   S    
C15   O6    A    
C10   H2    S    
C2    C19   A    
Cu1   O3    S    
C4    C18   A    
Cu2   O4    S    
C16   C17   T    
Cu1   O5    S    
