data_mof_unit_13561.cif
_audit_creation_date              2013-03-05T15:51:41-0500
_audit_creation_method            fapswitch 2.2
_symmetry_space_group_name_H-M    P1
_symmetry_Int_Tables_number       1
_space_group_crystal_system       triclinic
_cell_length_a                    11.553531
_cell_length_b                    11.551847
_cell_length_c                    19.568767
_cell_angle_alpha                 90.361898
_cell_angle_beta                  90.114305
_cell_angle_gamma                 59.895883
_cell_volume                      2259.40765515

loop_
_atom_site_label
_atom_site_type_symbol
_atom_site_description
_atom_site_fract_x
_atom_site_fract_y
_atom_site_fract_z
_atom_type_partial_charge
O1    O     O_R   0.267750 0.231960 0.575440 -0.501884
O2    O     O_R   0.527290 0.186640 0.570530 -0.488777
C1    C     C_R   0.640470 0.117081 0.599323 0.550473
O3    O     O_R   0.728110 0.003450 0.576380 -0.502294
O4    O     O_R   0.682980 0.789190 0.570500 -0.494308
C2    C     C_R   0.612526 0.746018 0.598660 0.549122
O5    O     O_R   0.499300 0.771880 0.575540 -0.496695
O6    O     O_R   0.285350 0.030870 0.569740 -0.494483
C3    C     C_R   0.241330 0.145097 0.598261 0.544957
O7    O     O_R   0.270960 0.227070 0.423890 -0.515738
O8    O     O_R   0.530270 0.182120 0.430040 -0.504900
C4    C     C_R   0.645877 0.113339 0.403273 0.544486
O9    O     O_R   0.731320 0.998570 0.424830 -0.515552
O10   O     O_R   0.685950 0.784660 0.430010 -0.523563
C5    C     C_R   0.615661 0.740961 0.401905 0.568295
O11   O     O_R   0.502510 0.767000 0.423980 -0.468794
O12   O     O_R   0.288320 0.026340 0.429250 -0.509794
C6    C     C_R   0.241433 0.142566 0.402311 0.536300
Cr1   Cr    Cr6+3 0.404720 0.198220 0.499960 1.049080
Cr2   Cr    Cr6+3 0.698290 0.897110 0.500380 1.033956
Cr3   Cr    Cr6+3 0.396970 0.904720 0.499610 1.062012
O13   O     O_3   0.499990 0.000020 0.499980 -0.268816
C7    C     C_1   0.670212 0.646423 0.860103 0.004938
C8    C     C_1   0.654821 0.683688 0.728458 -0.029808
C9    C     C_1   0.663331 0.666652 0.799689 -0.030436
C10   C     C_1   0.641380 0.703925 0.668037 0.006699
C11   C     C_1   0.126372 0.199163 0.859248 0.003511
C12   C     C_1   0.171709 0.170188 0.727742 -0.029250
C13   C     C_1   0.150017 0.182516 0.798944 -0.030145
C14   C     C_1   0.195667 0.160618 0.667449 0.005591
C15   C     C_1   0.678447 0.191680 0.860717 0.003981
C16   C     C_1   0.658711 0.166962 0.729028 -0.029311
C17   C     C_1   0.665651 0.181078 0.800303 -0.029881
C18   C     C_1   0.653200 0.149209 0.668685 0.006095
C19   C     C_R   0.663328 0.679419 0.189255 0.021189
C20   C     C_R   0.537307 0.746322 0.219255 -0.049576
C21   C     C_R   0.526753 0.756381 0.288477 0.015155
C22   C     C_R   0.764364 0.660901 0.300838 -0.171054
C23   C     C_R   0.776758 0.647859 0.229915 -0.165853
C24   C     C_3   0.411409 0.739429 0.212010 -0.234176
C25   C     C_3   0.399860 0.751028 0.289474 0.124096
C26   C     C_R   0.638787 0.706768 0.330844 0.068258
H1    H     H_    0.852369 0.631855 0.331910 0.130653
H2    H     H_    0.876427 0.600292 0.208184 0.137628
H3    H     H_    0.427451 0.642037 0.192318 0.177593
H4    H     H_    0.330895 0.828754 0.185768 0.114786
H5    H     H_    0.313606 0.844276 0.308598 0.116914
C27   C     C_R   0.118123 0.209142 0.197259 0.008683
C28   C     C_R   0.139456 0.300404 0.232942 0.021843
C29   C     C_R   0.166192 0.284895 0.301346 0.027177
C30   C     C_R   0.125295 0.100142 0.305091 -0.169675
C31   C     C_R   0.100334 0.114599 0.234569 -0.158337
C32   C     C_3   0.238548 0.343699 0.218695 -0.276966
C33   C     C_3   0.269941 0.325387 0.294088 -0.249013
C34   C     C_R   0.171194 0.177880 0.337432 0.014738
H6    H     H_    0.116150 0.024509 0.332962 0.138992
H7    H     H_    0.069999 0.050728 0.209293 0.200987
H8    H     H_    0.189986 0.449708 0.202309 0.137844
H9    H     H_    0.322929 0.271531 0.185905 0.134198
H10   H     H_    0.371480 0.240322 0.304811 0.145103
H11   H     H_    0.241725 0.420325 0.321610 0.190872
C35   C     C_R   0.687342 0.193700 0.198824 -0.033572
C36   C     C_R   0.790666 0.084124 0.232627 0.082694
C37   C     C_R   0.785690 0.066648 0.301422 -0.015359
C38   C     C_R   0.579377 0.277040 0.308591 -0.115719
C39   C     C_R   0.586017 0.296254 0.238345 -0.148525
C40   C     C_3   0.853487 0.937930 0.217073 0.146860
C41   C     C_3   0.848824 0.918248 0.293413 -0.228408
C42   C     C_R   0.674526 0.156792 0.339438 -0.005935
H12   H     H_    0.493638 0.349887 0.337304 0.209537
H13   H     H_    0.509984 0.387804 0.214942 0.160093
H14   H     H_    0.787422 0.914333 0.185396 0.101325
H15   H     H_    0.779209 0.882303 0.306978 0.120460
H16   H     H_    0.948754 0.864035 0.318213 0.176149
O14   O     O_R   0.821590 0.119350 0.952850 -0.505813
O15   O     O_R   0.037230 0.162540 0.957390 -0.494417
C43   C     C_R   0.081428 0.231411 0.928526 0.545263
O16   O     O_R   0.056530 0.344750 0.951370 -0.505671
O17   O     O_R   0.798000 0.560370 0.957490 -0.495538
C44   C     C_R   0.683877 0.604342 0.929477 0.544319
O18   O     O_R   0.596230 0.579400 0.952760 -0.505501
O19   O     O_R   0.639160 0.321170 0.958690 -0.495094
C45   C     C_R   0.708372 0.206869 0.930082 0.542997
O20   O     O_R   0.821370 0.124220 0.104400 -0.480037
O21   O     O_R   0.037020 0.167050 0.097880 -0.500132
C46   C     C_R   0.078519 0.237920 0.126568 0.544387
O22   O     O_R   0.056310 0.349620 0.102920 -0.520112
O23   O     O_R   0.797790 0.564880 0.097980 -0.515136
C47   C     C_R   0.682742 0.613582 0.124521 0.556646
O24   O     O_R   0.596000 0.584270 0.104310 -0.523206
O25   O     O_R   0.638950 0.325690 0.099180 -0.509160
C48   C     C_R   0.710289 0.212443 0.128004 0.538983
Cr4   Cr    Cr6+3 0.926290 0.152010 0.028150 1.053353
Cr5   Cr    Cr6+3 0.921440 0.451830 0.027490 1.017701
Cr6   Cr    Cr6+3 0.626370 0.446880 0.028730 1.023087
O26   O     O_3   0.824700 0.350240 0.028120 -0.256535
O27   O     O_3   0.985154 0.886003 0.192292 -0.555854
C49   C     C_3   0.039406 0.749314 0.176336 -0.111833
H17   H     H_    0.983181 0.735199 0.133974 0.114388
H18   H     H_    0.041392 0.691416 0.221980 0.122709
H19   H     H_    0.144262 0.708518 0.159065 0.144843
N1    N     N_R   0.410100 0.631367 0.320536 0.078411
O28   O     O_R   0.309075 0.611528 0.315872 -0.412408
O29   O     O_R   0.512261 0.551485 0.357910 -0.347365

loop_
_geom_bond_atom_site_label_1
_geom_bond_atom_site_label_2
_geom_bond_distance
_ccdc_geom_bond_type
C4    C42   1.448501 S    
O11   Cr3   2.059048 S    
C32   H8    1.110069 S    
C11   C13   1.204123 T    
Cr6   O26   1.982630 S    
O27   C49   1.409030 S    
C32   H9    1.112483 S    
O24   Cr6   2.059919 S    
O4    Cr2   1.926681 S    
C33   H10   1.109546 S    
C32   C33   1.509236 S    
C24   H4    1.111606 S    
C4    O9    1.265975 A    
O8    Cr1   1.935161 S    
C29   C33   1.496570 S    
C37   C41   1.496034 S    
C20   C21   1.359314 A    
C8    C10   1.201291 T    
C30   H6    1.082041 S    
O4    C2    1.275718 A    
N1    O29   1.300787 A    
C38   C42   1.406602 A    
C41   H16   1.112194 S    
C38   H12   1.079418 S    
O22   Cr5   2.041611 S    
C15   C45   1.431363 S    
C25   N1    1.463047 S    
C40   H14   1.116181 S    
C21   C26   1.395995 A    
O21   Cr4   1.934376 S    
C19   C20   1.389507 A    
O6    C3    1.276691 A    
C35   C48   1.449348 S    
C15   C17   1.204218 T    
C7    C44   1.426420 S    
C43   O16   1.269685 A    
Cr3   O13   1.985703 S    
O6    Cr3   1.940787 S    
C36   C40   1.495429 S    
C24   H3    1.110957 S    
O7    C6    1.255348 A    
O23   Cr5   1.939765 S    
O1    Cr1   2.054552 S    
C35   C39   1.404576 A    
C30   C31   1.403050 A    
O10   Cr2   1.940728 S    
C20   C24   1.502477 S    
Cr1   O13   1.981323 S    
O1    C3    1.270015 A    
C8    C9    1.405283 S    
O17   Cr5   1.924199 S    
O25   C48   1.278564 A    
C46   O22   1.272753 A    
C1    C18   1.431526 S    
C41   H15   1.107727 S    
O21   C46   1.265764 A    
O19   C45   1.276536 A    
O12   Cr3   1.921907 S    
C40   C41   1.517611 S    
C16   C18   1.204266 T    
C19   C23   1.415512 A    
C35   C36   1.398750 A    
O15   Cr4   1.934075 S    
C39   H13   1.082793 S    
O7    Cr1   2.048335 S    
C27   C28   1.382178 A    
O12   C6    1.285371 A    
C25   H5    1.101385 S    
C37   C42   1.392733 A    
O15   C43   1.275586 A    
Cr5   O26   1.985607 S    
C2    O5    1.269851 A    
C3    C14   1.431250 S    
C6    C34   1.451624 S    
C24   C25   1.521152 S    
Cr2   O13   1.982460 S    
C28   C29   1.365733 A    
Cr4   O26   1.981211 S    
C49   H18   1.112526 S    
C27   C46   1.443680 S    
O17   C44   1.275069 A    
C1    O3    1.269227 A    
O18   Cr6   2.041272 S    
C19   C47   1.432223 S    
O14   Cr4   2.054402 S    
C2    C10   1.426417 S    
C12   C13   1.409807 S    
O19   Cr6   1.941549 S    
O9    Cr2   2.043987 S    
O2    Cr1   1.932578 S    
C5    C26   1.431715 S    
C44   O18   1.269733 A    
C11   C43   1.431315 S    
O8    C4    1.273827 A    
C22   C26   1.399584 A    
C23   H2    1.083082 S    
C33   H11   1.110721 S    
C49   H19   1.109436 S    
C29   C34   1.403360 A    
C16   C17   1.410025 S    
C12   C14   1.204105 T    
O2    C1    1.273500 A    
C22   H1    1.083515 S    
C38   C39   1.402195 A    
O5    Cr3   2.040148 S    
O14   C45   1.268236 A    
C22   C23   1.394944 A    
O16   Cr5   2.057721 S    
C28   C32   1.488623 S    
C30   C34   1.399062 A    
O20   Cr4   2.050008 S    
C7    C9    1.201292 T    
C21   C25   1.498202 S    
N1    O28   1.300324 A    
C31   H7    1.079812 S    
C40   O27   1.411729 S    
O25   Cr6   1.923821 S    
C36   C37   1.368134 A    
O3    Cr2   2.058883 S    
C27   C31   1.415607 A    
O23   C47   1.265682 A    
C49   H17   1.112728 S    
O10   C5    1.273856 A    
O20   C48   1.258343 A    
C47   O24   1.269881 A    
C5    O11   1.261846 A    
