data_mof_unit_23825.cif
_audit_creation_date              2012-12-11T15:54:04-0500
_audit_creation_method            fapswitch 2.2
_symmetry_space_group_name_H-M    P1
_symmetry_Int_Tables_number       1
_space_group_crystal_system       triclinic
_cell_length_a                    10.756396
_cell_length_b                    10.711926
_cell_length_c                    17.039105
_cell_angle_alpha                 80.715472
_cell_angle_beta                  99.579227
_cell_angle_gamma                 119.137412
_cell_volume                      1683.55322342

loop_
_atom_site_label
_atom_site_type_symbol
_atom_type_description
_atom_site_fract_x
_atom_site_fract_y
_atom_site_fract_z
_atom_type_partial_charge
Br1   Br    Br    0.687779 0.879919 0.697867 -0.420587
Br2   Br    Br    0.991080 0.451301 0.211464 -0.513924
C1    C     C_R   0.361623 0.230334 0.627574 0.550303
C2    C     C_1   0.320594 0.160174 0.778247 -0.022276
C3    C     C_1   0.369776 0.636765 0.274696 -0.027957
C4    C     C_R   0.412897 0.622589 0.602226 0.576661
C5    C     C_1   0.343734 0.655527 0.204124 -0.007215
C6    C     C_R   0.813313 0.663170 0.152312 0.019838
C7    C     C_R   0.761775 0.529574 0.197220 0.011521
C8    C     C_R   0.740862 0.517667 0.275214 -0.017118
C9    C     C_R   0.809156 0.768122 0.267277 -0.143609
C10   C     C_R   0.821913 0.779627 0.185842 -0.143306
C11   C     C_3   0.794091 0.405039 0.212079 0.059383
C12   C     C_R   0.513498 0.724572 0.736159 0.174485
C13   C     C_3   0.766954 0.392057 0.298133 -0.200255
C14   C     C_R   0.783561 0.638976 0.314008 0.022179
C15   C     C_R   0.294117 0.110114 0.173721 -0.003926
C16   C     C_R   0.778337 0.619846 0.626447 0.546004
C17   C     C_R   0.181765 0.110340 0.203732 -0.013020
C18   C     C_R   0.186446 0.121681 0.282927 0.051756
C19   C     C_R   0.401550 0.098736 0.310225 -0.150470
C20   C     C_R   0.396492 0.087454 0.228670 -0.155080
C21   C     C_3   0.108382 0.199276 0.175800 -0.165328
C22   C     C_3   0.112796 0.213188 0.263159 0.130707
C23   C     C_R   0.495572 0.722917 0.816122 0.239706
C24   C     C_R   0.307594 0.137079 0.334869 -0.004724
C25   C     C_R   0.892554 0.701811 0.855759 0.566226
C26   C     C_R   0.316745 0.703893 0.899993 0.531582
C27   C     C_R   0.284047 0.113962 0.857754 0.546481
C28   C     C_R   0.347896 0.220859 0.402177 0.530161
C29   C     C_R   0.884939 0.690194 0.082517 0.562757
C30   C     C_R   0.316385 0.697521 0.122666 0.557005
C31   C     C_R   0.278448 0.094381 0.089543 0.544289
C32   C     C_R   0.402618 0.625055 0.358791 0.557631
C33   C     C_R   0.764265 0.618710 0.397209 0.543555
C34   C     C_3   0.096879 0.491996 0.771938 -0.236732
C35   C     C_R   0.355820 0.646332 0.841190 -0.032691
C36   C     C_R   0.251722 0.537060 0.795792 -0.031923
C37   C     C_R   0.274957 0.524445 0.720705 -0.028830
C38   C     C_3   0.121462 0.476643 0.689703 -0.230988
C39   C     C_R   0.399309 0.626712 0.686002 -0.040398
C40   C     C_1   0.825745 0.657389 0.705634 -0.017733
C41   C     C_1   0.853287 0.684447 0.773594 0.005828
C42   C     C_1   0.345497 0.188464 0.709918 -0.021674
Cr1   Cr    Cr6+3 0.608440 0.389080 0.519680 1.034217
Cr2   Cr    Cr6+3 0.288640 0.400090 0.490760 1.024389
Cr3   Cr    Cr6+3 0.602940 0.710800 0.489510 1.058770
Cr4   Cr    Cr6+3 0.052530 0.947560 0.964210 1.065896
Cr5   Cr    Cr6+3 0.059970 0.626800 0.992920 1.056008
Cr6   Cr    Cr6+3 0.373320 0.938440 0.995370 1.046917
H1    H     H_    0.714277 0.311339 0.179460 0.131477
H2    H     H_    0.026407 0.387898 0.804043 0.167990
H3    H     H_    0.065734 0.363528 0.674569 0.173885
H4    H     H_    0.106963 0.554485 0.642383 0.157647
H5    H     H_    0.825808 0.860723 0.294056 0.189406
H6    H     H_    0.853680 0.883156 0.152008 0.148890
H7    H     H_    0.988205 0.163539 0.345119 0.349432
H8    H     H_    0.596389 0.767371 0.921209 0.320924
H9    H     H_    0.669801 0.294283 0.314580 0.117469
H10   H     H_    0.861537 0.415173 0.343016 0.192485
H11   H     H_    0.485648 0.091116 0.351993 0.144570
H12   H     H_    0.475203 0.067585 0.208710 0.150127
H13   H     H_    0.998886 0.136980 0.146099 0.180777
H14   H     H_    0.176954 0.302471 0.142109 0.110760
H15   H     H_    0.178497 0.325828 0.278803 0.169140
H16   H     H_    0.069654 0.579653 0.771938 0.151989
O1    O     O_R   0.754020 0.497590 0.609930 -0.508366
O2    O     O_R   0.406180 0.826930 0.920660 -0.484830
O3    O     O_R   0.358620 0.062870 0.901950 -0.489634
O4    O     O_R   0.481420 0.271390 0.600630 -0.480797
O5    O     O_R   0.163910 0.085460 0.050210 -0.522164
O6    O     O_R   0.935200 0.815170 0.045770 -0.513568
O7    O     O_R   0.916120 0.596690 0.069430 -0.465488
O8    O     O_R   0.192310 0.631200 0.086170 -0.455256
O9    O     O_R   0.406770 0.819480 0.096420 -0.525116
O10   O     O_R   0.359170 0.055960 0.064880 -0.506120
O11   O     O_3   0.161940 0.837600 0.984160 -0.269109
O12   O     O_R   0.295080 0.533620 0.397890 -0.475646
O13   O     O_R   0.263810 0.254550 0.589590 -0.514310
O14   O     O_R   0.300820 0.531200 0.560890 -0.496405
O15   O     O_R   0.491480 0.744020 0.564270 -0.455166
O16   O     O_R   0.726290 0.693800 0.583010 -0.479542
O17   O     O_R   0.747830 0.500190 0.434090 -0.517270
O18   O     O_R   0.475680 0.273800 0.437630 -0.499682
O19   O     O_R   0.257620 0.257160 0.413750 -0.542621
O20   O     O_3   0.975579 0.142583 0.288887 -0.690154
O21   O     O_3   0.612864 0.809014 0.865185 -0.632485
O22   O     O_R   0.485280 0.746620 0.388440 -0.496551
O23   O     O_R   0.720550 0.696220 0.420010 -0.522363
O24   O     O_3   0.500010 0.499990 0.499980 -0.310690
O25   O     O_R   0.163320 0.092900 0.874450 -0.494220
O26   O     O_R   0.934650 0.822080 0.882840 -0.449842
O27   O     O_R   0.915520 0.604140 0.893670 -0.533870
O28   O     O_R   0.191760 0.638110 0.923230 -0.510196

loop_
_geom_bond_atom_site_label_1
_geom_bond_atom_site_label_2
_ccdc_geom_bond_type
C19   C24   A    
C13   H10   S    
C17   C18   A    
C1    O13   A    
H8    O21   S    
C30   O9    A    
C37   C39   A    
C26   O2    A    
Cr6   O3    S    
C8    C13   S    
C16   C40   S    
C14   C33   S    
C30   O8    A    
C36   C37   A    
C34   H16   S    
C29   O7    A    
C23   O21   S    
H7    O20   S    
C26   O28   A    
Cr3   O16   S    
Br2   C11   S    
C7    C11   S    
C23   C35   A    
C11   H1    S    
C18   C22   S    
C6    C7    A    
C4    C39   S    
Cr1   O1    S    
C21   C22   S    
Cr5   O28   S    
C7    C8    A    
C19   H11   S    
C2    C27   S    
C34   H2    S    
Cr2   O19   S    
C21   H13   S    
C4    O15   A    
C19   C20   A    
Cr3   O23   S    
Cr1   O17   S    
C15   C31   S    
Cr4   O6    S    
C16   O16   A    
Cr6   O2    S    
C27   O3    A    
C1    C42   S    
C34   C38   S    
C1    O4    A    
C37   C38   S    
C3    C5    T    
C33   O17   A    
C2    C42   T    
C16   O1    A    
Cr4   O25   S    
Cr4   O11   S    
C17   C21   S    
C35   C36   A    
Cr6   O10   S    
C20   H12   S    
C9    C14   A    
C31   O10   A    
C4    O14   A    
C6    C10   A    
C3    C32   S    
C25   O26   A    
C32   O22   A    
C28   O19   A    
Cr1   O24   S    
C10   H6    S    
C22   H15   S    
C12   C39   A    
C33   O23   A    
C29   O6    A    
C24   C28   S    
C38   H4    S    
C11   C13   S    
Cr3   O24   S    
Cr5   O7    S    
C25   O27   A    
Cr1   O18   S    
C40   C41   T    
Cr4   O5    S    
Cr6   O11   S    
C27   O25   A    
C9    H5    S    
Cr2   O12   S    
C21   H14   S    
C5    C30   S    
Cr1   O4    S    
C6    C29   S    
C13   H9    S    
C9    C10   A    
Cr2   O24   S    
C15   C20   A    
Cr3   O22   S    
C34   C36   S    
C8    C14   A    
Cr6   O9    S    
C32   O12   A    
Cr2   O14   S    
Cr2   O13   S    
C18   C24   A    
C26   C35   S    
C15   C17   A    
Cr5   O11   S    
Cr3   O15   S    
C12   C23   A    
C28   O18   A    
C31   O5    A    
C25   C41   S    
C38   H3    S    
Cr4   O26   S    
Cr5   O8    S    
Br1   C12   S    
Cr5   O27   S    
C22   O20   S    
