data_mof_unit_9623.cif
_audit_creation_date              2013-03-05T15:49:05-0500
_audit_creation_method            fapswitch 2.2
_symmetry_space_group_name_H-M    P1
_symmetry_Int_Tables_number       1
_space_group_crystal_system       triclinic
_cell_length_a                    10.895476
_cell_length_b                    13.03615
_cell_length_c                    11.906478
_cell_angle_alpha                 98.560779
_cell_angle_beta                  91.789578
_cell_angle_gamma                 91.80749
_cell_volume                      1670.35901229

loop_
_atom_site_label
_atom_site_type_symbol
_atom_site_description
_atom_site_fract_x
_atom_site_fract_y
_atom_site_fract_z
_atom_type_partial_charge
O1    O     O_R   0.506670 0.354460 0.582000 -0.561245
O2    O     O_R   0.493330 0.645540 0.418000 -0.568008
O3    O     O_R   0.490800 0.341410 0.386200 -0.584543
O4    O     O_R   0.509200 0.658590 0.613800 -0.566065
C1    C     C_R   0.513728 0.300217 0.479334 0.806953
C2    C     C_R   0.487267 0.700072 0.521411 0.793900
O5    O     O_R   0.324790 0.506500 0.597880 -0.566353
O6    O     O_R   0.675210 0.493500 0.402120 -0.555354
O7    O     O_R   0.308910 0.493440 0.402080 -0.568008
O8    O     O_R   0.691090 0.506560 0.597920 -0.569974
C3    C     C_R   0.259854 0.502099 0.501874 0.813958
C4    C     C_R   0.740593 0.503883 0.498888 0.840898
Cu1   Cu    Cu3+1 0.509400 0.507730 0.615930 0.967619
Cu2   Cu    Cu3+1 0.490600 0.492270 0.384070 0.967983
C5    C     C_3   0.035878 0.409129 0.501209 0.147045
C6    C     C_3   0.965424 0.605669 0.502225 0.118895
C7    C     C_3   0.956514 0.447148 0.406600 0.117112
C8    C     C_3   0.045721 0.567804 0.596881 0.131557
C9    C     C_3   0.878860 0.508125 0.498527 -0.239631
C10   C     C_3   0.122624 0.506018 0.504320 -0.223981
C11   C     C_3   0.959386 0.470681 0.593644 0.150498
C12   C     C_3   0.042525 0.544433 0.409671 0.140828
C13   C     C_R   0.467132 0.815003 0.535938 -0.164664
C14   C     C_R   0.540202 0.186720 0.469237 -0.175337
C15   C     C_R   0.549580 0.015049 0.359107 -0.007958
C16   C     C_R   0.494668 0.983210 0.658474 0.000931
C17   C     C_R   0.564261 0.123743 0.363943 0.026193
C18   C     C_R   0.460202 0.876032 0.645052 0.066544
C19   C     C_R   0.556132 0.139264 0.569212 0.174726
C20   C     C_R   0.462357 0.867184 0.440511 0.102293
C21   C     C_R   0.516825 0.032721 0.561663 -0.076080
C22   C     C_R   0.504985 0.972287 0.452681 0.003359
N1    N     N_R   0.523540 0.519360 0.790140 -0.287772
N2    N     N_R   0.476460 0.480640 0.209860 -0.284473
C23   C     C_R   0.362209 0.417930 0.032902 0.028881
C24   C     C_R   0.640702 0.561603 0.964971 0.098379
C25   C     C_R   0.393355 0.410955 0.147809 0.116922
C26   C     C_R   0.613566 0.579256 0.854092 0.097939
C27   C     C_R   0.549486 0.539942 0.149534 0.086569
C28   C     C_R   0.443325 0.460005 0.845030 0.088432
C29   C     C_R   0.547014 0.522119 0.027859 -0.021061
C30   C     C_R   0.447292 0.467211 0.967427 -0.092080
C31   C     C_3   0.895048 0.383605 0.301008 -0.369366
C32   C     C_3   0.985728 0.322883 0.224441 -0.848250
H1    H     H_    0.944790 0.301544 0.137355 0.236023
H2    H     H_    0.070400 0.370007 0.218870 0.281219
H3    H     H_    0.008821 0.250250 0.256956 0.267079
H4    H     H_    0.824917 0.330318 0.328157 0.199580
H5    H     H_    0.846129 0.437532 0.253756 0.232654
C33   C     C_3   0.108413 0.633098 0.702020 -0.364239
C34   C     C_3   0.019491 0.695039 0.779375 -0.833483
H6    H     H_    0.995476 0.767030 0.745944 0.264184
H7    H     H_    0.935172 0.648289 0.788255 0.269000
H8    H     H_    0.063416 0.717713 0.865239 0.234198
H9    H     H_    0.158731 0.581657 0.751704 0.250237
H10   H     H_    0.177350 0.686663 0.673483 0.191218
C35   C     C_3   0.084589 0.299773 0.499877 -0.346494
C36   C     C_3   0.984688 0.217106 0.508867 -0.892108
H11   H     H_    0.964102 0.213930 0.598760 0.256686
H12   H     H_    0.899651 0.232867 0.462437 0.248521
H13   H     H_    0.016496 0.139625 0.471886 0.251779
H14   H     H_    0.129652 0.278353 0.419518 0.223577
H15   H     H_    0.155979 0.299596 0.568045 0.218122
C37   C     C_3   0.917813 0.715482 0.504022 -0.319849
C38   C     C_3   0.018377 0.797033 0.491648 -0.858023
H16   H     H_    0.105556 0.781238 0.535123 0.243307
H17   H     H_    0.035110 0.799406 0.400786 0.262636
H18   H     H_    0.988500 0.875006 0.529141 0.251766
H19   H     H_    0.845631 0.715614 0.436618 0.247878
H20   H     H_    0.873904 0.738167 0.585167 0.214404
C39   C     C_3   0.899711 0.427686 0.692631 -0.370587
C40   C     C_3   0.990367 0.393013 0.776258 -0.827733
H21   H     H_    0.942055 0.348446 0.834425 0.226164
H22   H     H_    0.055705 0.340069 0.732132 0.296335
H23   H     H_    0.037100 0.461967 0.826733 0.272760
H24   H     H_    0.842767 0.486713 0.740496 0.232514
H25   H     H_    0.839672 0.360864 0.655634 0.207330
C41   C     C_3   0.100876 0.589171 0.310365 -0.348944
C42   C     C_3   0.008222 0.619935 0.224756 -0.876456
H26   H     H_    0.934912 0.666920 0.266003 0.284413
H27   H     H_    0.055758 0.665426 0.166166 0.238581
H28   H     H_    0.967278 0.549107 0.174071 0.268438
H29   H     H_    0.159426 0.657831 0.345828 0.197631
H30   H     H_    0.160709 0.531852 0.263435 0.223433
C43   C     C_3   0.386938 0.819023 0.334380 -0.365423
C44   C     C_3   0.282351 0.887779 0.306261 -0.840693
H31   H     H_    0.220830 0.844263 0.238138 0.246356
H32   H     H_    0.227620 0.910616 0.382610 0.251255
H33   H     H_    0.318435 0.958731 0.275469 0.271135
H34   H     H_    0.444838 0.801625 0.260236 0.265696
H35   H     H_    0.341848 0.744760 0.347086 0.198284
C45   C     C_3   0.675101 0.170718 0.638935 -0.378444
C46   C     C_3   0.666367 0.249317 0.747009 -0.740294
H36   H     H_    0.651278 0.328423 0.728121 0.268008
H37   H     H_    0.595475 0.229060 0.804127 0.306861
H38   H     H_    0.755138 0.251051 0.795223 0.204217
H39   H     H_    0.719433 0.100763 0.662352 0.212423
H40   H     H_    0.741615 0.203329 0.584153 0.176186
C47   C     C_3   0.401915 0.832339 0.744576 -0.363212
C48   C     C_3   0.278379 0.880289 0.774701 -0.847642
H41   H     H_    0.288606 0.961491 0.816694 0.294848
H42   H     H_    0.217954 0.876955 0.697382 0.248016
H43   H     H_    0.232552 0.836521 0.835685 0.251854
H44   H     H_    0.379413 0.748596 0.726414 0.219042
H45   H     H_    0.465356 0.844622 0.820419 0.266770
C49   C     C_3   0.610857 0.166890 0.258762 -0.345273
C50   C     C_3   0.742971 0.140259 0.228220 -0.870868
H46   H     H_    0.802391 0.140317 0.305356 0.263716
H47   H     H_    0.748202 0.065126 0.172040 0.279629
H48   H     H_    0.779395 0.197382 0.176577 0.248114
H49   H     H_    0.550479 0.134959 0.184559 0.273561
H50   H     H_    0.610284 0.251646 0.265969 0.229582
C51   C     C_2   0.615971 0.947626 0.273789 0.872456
O9    O     O_2   0.578690 0.931530 0.174557 -0.560464
O10   O     O_R   0.730535 0.914129 0.306796 -0.768637
H51   H     H_    0.787187 0.897816 0.241237 0.313090
C52   C     C_2   0.511023 0.039749 0.775248 0.859878
O11   O     O_2   0.434968 0.101053 0.813207 -0.597065
O12   O     O_R   0.610788 0.018549 0.843759 -0.750067
H52   H     H_    0.611266 0.060499 0.922664 0.350495
C53   C     C_2   0.358346 0.384632 0.776158 0.928246
O13   O     O_2   0.257756 0.411186 0.747756 -0.672401
O14   O     O_R   0.390389 0.282047 0.746451 -0.736615
H53   H     H_    0.323872 0.238340 0.698341 0.329470
C54   C     C_2   0.617576 0.634422 0.204118 0.830024
O15   O     O_2   0.687318 0.634469 0.285760 -0.592216
O16   O     O_R   0.615116 0.720942 0.148424 -0.739933
H54   H     H_    0.697145 0.759509 0.155936 0.345008
C55   C     C_2   0.663420 0.678564 0.824522 0.822694
O17   O     O_2   0.663013 0.756437 0.896033 -0.567515
O18   O     O_R   0.714831 0.685407 0.720621 -0.749004
H55   H     H_    0.734807 0.760275 0.712191 0.319617
C56   C     C_2   0.353942 0.313478 0.186776 0.882688
O19   O     O_2   0.382198 0.231465 0.131727 -0.636357
O20   O     O_R   0.278892 0.311979 0.278472 -0.765886
H56   H     H_    0.263058 0.238201 0.293307 0.306464
C57   C     C_3   0.229026 0.391918 0.995632 -0.442313
C58   C     C_3   0.201824 0.276070 0.954332 -0.696872
H57   H     H_    0.169443 0.237159 0.025362 0.247446
H58   H     H_    0.128042 0.264917 0.887437 0.225261
H59   H     H_    0.284306 0.236901 0.920043 0.318290
H60   H     H_    0.169424 0.416906 0.067729 0.180227
H61   H     H_    0.199429 0.441432 0.933909 0.226327
C59   C     C_3   0.774989 0.556956 0.000308 -0.410950
C60   C     C_3   0.804784 0.444861 0.009157 -0.891767
H62   H     H_    0.771195 0.393916 0.931036 0.262484
H63   H     H_    0.905320 0.437034 0.019505 0.249641
H64   H     H_    0.757774 0.418179 0.081243 0.257522
H65   H     H_    0.835321 0.583443 0.936191 0.196159
H66   H     H_    0.799527 0.607859 0.080606 0.218901

loop_
_geom_bond_atom_site_label_1
_geom_bond_atom_site_label_2
_geom_bond_distance
_ccdc_geom_bond_type
C57   H60   1.108883 S    
C46   H36   1.103847 S    
C27   C54   1.470931 S    
C8    C11   1.548371 S    
C50   H47   1.104915 S    
C29   C30   1.399778 A    
C14   C17   1.429023 A    
C31   C32   1.524662 S    
C60   H62   1.104386 S    
C43   H35   1.104408 S    
C45   H40   1.106343 S    
O14   H53   1.014325 S    
C27   C29   1.431947 A    
C49   H50   1.095644 S    
C43   C44   1.530985 S    
O5    C3    1.318306 A    
C28   C53   1.466444 S    
C11   C39   1.532159 S    
O1    C1    1.323683 A    
C9    C11   1.555679 S    
C51   O9    1.223038 D    
C52   O12   1.397855 S    
C39   H24   1.106110 S    
C44   H32   1.111342 S    
C49   C50   1.533431 S    
C36   H12   1.104580 S    
O10   H51   1.012165 S    
N2    C25   1.377477 A    
C13   C20   1.408906 A    
O4    Cu1   1.970636 S    
C23   C30   1.427059 A    
C14   C19   1.429290 A    
C45   C46   1.528394 S    
C59   H66   1.099923 S    
C41   H29   1.104994 S    
C47   C48   1.532162 S    
C38   H17   1.107489 S    
C33   H9    1.105103 S    
O6    Cu2   2.015484 S    
C50   H46   1.106917 S    
C16   C52   1.476232 S    
C37   H20   1.096601 S    
C31   H4    1.104410 S    
C32   H3    1.108054 S    
C36   H13   1.110580 S    
C28   C30   1.445509 A    
C47   H44   1.099173 S    
C57   H61   1.095562 S    
C16   C21   1.425679 A    
C46   H37   1.096464 S    
Cu1   Cu2   2.738635 S    
C5    C35   1.534841 S    
C24   C29   1.413120 A    
O2    C2    1.331613 A    
C40   H23   1.104374 S    
C60   H63   1.108082 S    
C32   H2    1.101394 S    
C45   H39   1.112546 S    
C35   H15   1.106803 S    
C49   H49   1.106137 S    
C5    C10   1.548723 S    
C47   H45   1.108984 S    
C43   H34   1.101328 S    
C3    C10   1.498710 S    
N1    C28   1.390413 A    
N2    C27   1.381596 A    
C26   C55   1.482660 S    
O20   H56   1.013904 S    
C12   C41   1.539888 S    
C40   H22   1.097984 S    
C42   H27   1.110374 S    
C44   H31   1.110884 S    
C31   H5    1.103398 S    
C17   C49   1.540735 S    
C35   H14   1.092219 S    
C36   H11   1.106879 S    
C37   H19   1.106195 S    
C44   H33   1.109746 S    
C48   H43   1.109087 S    
C33   H10   1.104844 S    
C34   H6    1.108083 S    
C34   H7    1.102956 S    
O7    Cu2   1.998116 S    
C7    C31   1.522383 S    
Cu1   N1    2.057689 S    
C59   H65   1.108885 S    
C15   C51   1.465567 S    
C21   C22   1.414159 A    
C5    C11   1.544747 S    
O6    C4    1.322690 A    
C38   H18   1.110548 S    
C48   H42   1.109614 S    
C33   C34   1.524026 S    
C13   C18   1.424319 A    
C20   C43   1.527284 S    
O7    C3    1.309105 A    
C53   O13   1.212836 D    
O3    Cu2   1.970637 S    
O8    C4    1.308100 A    
C18   C47   1.535266 S    
O4    C2    1.314692 A    
C10   C12   1.554535 S    
C46   H38   1.107081 S    
C54   O15   1.214910 D    
C50   H48   1.105907 S    
C25   C56   1.472397 S    
O1    Cu1   1.977747 S    
O18   H55   1.013476 S    
C58   H59   1.106725 S    
C39   H25   1.101184 S    
C60   H64   1.106840 S    
C32   H1    1.108548 S    
C8    C33   1.533252 S    
C56   O20   1.386406 S    
C55   O17   1.224225 D    
C5    C7    1.547484 S    
C6    C12   1.547758 S    
C23   C25   1.416059 A    
C41   C42   1.517201 S    
N1    C26   1.370986 A    
C40   H21   1.103418 S    
O3    C1    1.322446 A    
O8    Cu1   1.998117 S    
Cu2   N2    2.057690 S    
C42   H28   1.098648 S    
O12   H52   1.014046 S    
C58   H58   1.104497 S    
C15   C17   1.413326 A    
C57   C58   1.533605 S    
C16   C18   1.419639 A    
C7    C12   1.548232 S    
C59   C60   1.524941 S    
C34   H8    1.110017 S    
C37   C38   1.528296 S    
C24   C26   1.397711 A    
C24   C59   1.515310 S    
C39   C40   1.507343 S    
C19   C21   1.429502 A    
C52   O11   1.219529 D    
C23   C57   1.517076 S    
C20   C22   1.417941 A    
C35   C36   1.524859 S    
C56   O19   1.221536 D    
C1    C14   1.504299 S    
C15   C22   1.410592 A    
C6    C9    1.553557 S    
C2    C13   1.506247 S    
C4    C9    1.505913 S    
C48   H41   1.102034 S    
C7    C9    1.544974 S    
C8    C10   1.549637 S    
O2    Cu2   1.977747 S    
C53   O14   1.389872 S    
C58   H57   1.109997 S    
C42   H26   1.104603 S    
C41   H30   1.106664 S    
O5    Cu1   2.015483 S    
C6    C8    1.552579 S    
C38   H16   1.107215 S    
C54   O16   1.391414 S    
C6    C37   1.535340 S    
C55   O18   1.387485 S    
C19   C45   1.528213 S    
O16   H54   1.006400 S    
C51   O10   1.399303 S    
