data_mof_unit_60748.cif
_audit_creation_date              2013-03-05T16:38:51-0500
_audit_creation_method            fapswitch 2.2
_symmetry_space_group_name_H-M    P1
_symmetry_Int_Tables_number       1
_space_group_crystal_system       triclinic
_cell_length_a                    15.995201
_cell_length_b                    14.771136
_cell_length_c                    19.355889
_cell_angle_alpha                 90.146752
_cell_angle_beta                  89.998511
_cell_angle_gamma                 90.042807
_cell_volume                      4573.14714808

loop_
_atom_site_label
_atom_site_type_symbol
_atom_site_description
_atom_site_fract_x
_atom_site_fract_y
_atom_site_fract_z
_atom_type_partial_charge
O1    O     O_R   0.380310 0.575320 0.500010 -0.561638
O2    O     O_R   0.619690 0.424680 0.499990 -0.573407
O3    O     O_R   0.619690 0.575320 0.499990 -0.567664
O4    O     O_R   0.380310 0.424680 0.500010 -0.567963
C1    C     C_R   0.340844 0.499977 0.499989 0.829854
C2    C     C_R   0.659155 0.500022 0.499954 0.809576
O5    O     O_R   0.499990 0.575370 0.400140 -0.538207
O6    O     O_R   0.500010 0.424630 0.599860 -0.546801
O7    O     O_R   0.500010 0.575370 0.599860 -0.549658
O8    O     O_R   0.499990 0.424630 0.400140 -0.588873
C3    C     C_R   0.500625 0.499840 0.367175 0.847576
C4    C     C_R   0.499986 0.500123 0.632849 0.890501
Cu1   Cu    Cu3+1 0.500000 0.589220 0.500000 1.067462
Cu2   Cu    Cu3+1 0.500000 0.410780 0.500000 1.048148
C5    C     C_R   0.446923 0.558634 0.255340 0.039053
C6    C     C_R   0.549304 0.437626 0.745333 0.015213
C7    C     C_R   0.450814 0.564074 0.745121 0.018613
C8    C     C_R   0.554904 0.441496 0.254025 0.028887
C9    C     C_R   0.447079 0.559983 0.182612 0.276824
C10   C     C_R   0.549424 0.438013 0.818078 0.275115
C11   C     C_R   0.451101 0.565019 0.817855 0.277688
C12   C     C_R   0.554426 0.441877 0.181522 0.334911
C13   C     C_R   0.500680 0.501332 0.145717 -0.243328
C14   C     C_R   0.500379 0.501870 0.854188 -0.211878
C15   C     C_R   0.500780 0.499651 0.291106 -0.157222
C16   C     C_R   0.499970 0.500529 0.708952 -0.098211
N1    N     N_R   0.573615 0.506033 0.034157 -0.143281
N2    N     N_R   0.427426 0.499110 0.965547 -0.138046
N3    N     N_R   0.573557 0.505969 0.965452 -0.137153
N4    N     N_R   0.427507 0.498945 0.034250 -0.132583
C17   C     C_R   0.500458 0.502448 0.930046 0.526872
C18   C     C_R   0.500601 0.502334 0.069723 0.521803
H1    H     H_    0.077168 0.645830 0.495374 0.162612
H2    H     H_    0.922828 0.354161 0.504264 0.161958
H3    H     H_    0.923115 0.645881 0.495352 0.162666
H4    H     H_    0.076880 0.354110 0.504287 0.162168
C19   C     C_R   0.956453 0.582106 0.497298 -0.135367
C20   C     C_R   0.043543 0.417884 0.502328 -0.135653
C21   C     C_R   0.043705 0.582078 0.497311 -0.136813
C22   C     C_R   0.956291 0.417913 0.502314 -0.136439
C23   C     C_R   0.912779 0.500024 0.499806 0.133284
C24   C     C_R   0.087216 0.499966 0.499833 0.133065
C25   C     C_1   0.823322 0.500052 0.499841 -0.025087
C26   C     C_1   0.176675 0.499942 0.499886 -0.026068
C27   C     C_1   0.251725 0.499938 0.499937 -0.123020
C28   C     C_1   0.748272 0.500059 0.499889 -0.123432
C29   C     C_R   0.515148 0.951960 0.561916 0.228513
C30   C     C_R   0.483763 0.047988 0.438588 0.229433
C31   C     C_R   0.484071 0.951474 0.438565 0.232059
C32   C     C_R   0.515607 0.048517 0.561806 0.233902
C33   C     C_R   0.499710 0.902861 0.500219 -0.290465
C34   C     C_R   0.499804 0.097120 0.500147 -0.288912
C35   C     C_1   0.499872 0.802574 0.500118 0.398143
C36   C     C_1   0.499930 0.197421 0.500055 0.393142
N5    N     N_1   0.500000 0.276710 0.500000 -0.139514
N6    N     N_1   0.500000 0.723290 0.500000 -0.135243
N7    N     N_3   0.392631 0.617697 0.293606 -0.512118
H5    H     H_    0.330674 0.600227 0.282867 0.264894
H6    H     H_    0.403142 0.684322 0.277683 0.302407
N8    N     N_3   0.598866 0.373173 0.707752 -0.516964
H7    H     H_    0.661972 0.385494 0.718036 0.265727
H8    H     H_    0.583578 0.308019 0.724571 0.303461
N9    N     N_3   0.401103 0.627916 0.707320 -0.529649
H9    H     H_    0.416650 0.693358 0.723579 0.292234
H10   H     H_    0.338043 0.615929 0.717974 0.264587
N10   N     N_3   0.611143 0.381331 0.288996 -0.470835
H11   H     H_    0.646909 0.418471 0.324325 0.217102
H12   H     H_    0.576394 0.332521 0.315355 0.287351
N11   N     N_R   0.395783 0.624149 0.146493 0.145221
O9    O     O_R   0.429660 0.682071 0.104372 -0.251797
O10   O     O_R   0.315054 0.623888 0.154592 -0.289691
N12   N     N_R   0.596408 0.370909 0.855105 0.145652
O11   O     O_R   0.559169 0.317972 0.899074 -0.253742
O12   O     O_R   0.676765 0.363919 0.846294 -0.288342
N13   N     N_R   0.404280 0.632753 0.854622 0.144814
O13   O     O_R   0.441705 0.686395 0.898190 -0.254529
O14   O     O_R   0.323868 0.639515 0.846086 -0.292005
N14   N     N_R   0.606484 0.378956 0.144487 0.171718
O15   O     O_R   0.573970 0.324876 0.098589 -0.255105
O16   O     O_R   0.685595 0.371990 0.159180 -0.247996
N15   N     N_R   0.534693 0.096981 0.624387 0.164204
O17   O     O_R   0.487013 0.162950 0.645250 -0.324671
O18   O     O_R   0.600199 0.075500 0.660663 -0.251888
N16   N     N_R   0.470644 0.903022 0.374998 0.164985
O19   O     O_R   0.416241 0.837603 0.371881 -0.333104
O20   O     O_R   0.512904 0.924172 0.319900 -0.240698
N17   N     N_R   0.464520 0.095876 0.376009 0.168997
O21   O     O_R   0.398662 0.074328 0.340073 -0.244407
O22   O     O_R   0.512603 0.161158 0.354675 -0.332322
N18   N     N_R   0.527831 0.904025 0.625633 0.164141
O23   O     O_R   0.581390 0.837924 0.629060 -0.319350
O24   O     O_R   0.485268 0.925938 0.680468 -0.245402

loop_
_geom_bond_atom_site_label_1
_geom_bond_atom_site_label_2
_geom_bond_distance
_ccdc_geom_bond_type
N10   H12   1.044196 S    
N17   O21   1.301240 A    
N9    H10   1.044599 S    
N1    N3    1.329845 A    
C23   C25   1.430894 S    
O3    C2    1.279292 A    
N15   O17   1.301271 A    
N18   O23   1.301246 A    
O5    C3    1.283861 A    
H1    C21   1.083560 S    
H2    C22   1.083560 S    
C7    C16   1.409641 A    
C31   N16   1.437867 S    
H3    C19   1.083555 S    
N16   O20   1.301241 A    
C20   C24   1.399788 A    
N14   O16   1.301183 A    
C5    C15   1.408796 A    
C3    C15   1.472385 S    
N8    H8    1.045586 S    
C6    N8    1.435798 S    
N11   O10   1.300745 A    
O7    Cu1   1.944197 S    
C5    C9    1.407905 A    
C10   C14   1.411151 A    
C31   C33   1.416694 A    
C32   C34   1.417143 A    
C21   C24   1.399785 A    
O3    Cu1   1.925595 S    
O6    C4    1.283581 A    
Cu1   N6    1.980368 S    
Cu2   N5    1.980368 S    
C20   C22   1.395617 A    
Cu1   Cu2   2.635760 S    
C19   C23   1.399789 A    
C5    N7    1.435852 S    
O2    C2    1.279051 A    
C8    C15   1.414370 A    
C24   C26   1.430899 S    
N15   O18   1.301240 A    
C34   C36   1.481555 S    
C29   C32   1.426283 A    
C6    C16   1.409388 A    
N16   O19   1.301183 A    
C12   N14   1.438301 S    
N12   O12   1.300731 A    
O8    Cu2   1.944197 S    
N14   O15   1.301383 A    
N12   O11   1.301240 A    
C29   C33   1.417174 A    
C1    C27   1.425472 S    
C7    C11   1.407866 A    
C4    C16   1.473026 S    
N8    H7    1.044601 S    
C33   C35   1.481353 S    
C9    C13   1.411921 A    
N13   O13   1.301242 A    
O7    C4    1.283257 A    
N18   O24   1.301261 A    
C30   C34   1.416903 A    
C6    C10   1.408031 A    
C30   N17   1.437705 S    
N13   O14   1.300732 A    
C22   C23   1.399781 A    
N17   O22   1.301072 A    
C29   N18   1.438134 S    
O1    C1    1.279065 A    
C9    N11   1.436961 S    
O1    Cu1   1.925293 S    
C26   C27   1.200450 T    
C35   N6    1.171112 T    
C36   N5    1.171196 T    
C30   C31   1.425637 A    
O6    Cu2   1.943154 S    
C2    C28   1.425435 S    
N1    C18   1.356797 A    
C8    C12   1.403418 A    
N2    C17   1.356195 A    
O4    C1    1.279287 A    
C8    N10   1.435782 S    
C11   N13   1.437276 S    
C13   C18   1.471029 S    
N2    N4    1.329826 A    
C14   C17   1.468301 S    
C19   C21   1.395620 A    
C7    N9    1.435810 S    
N4    C18   1.356699 A    
N7    H5    1.044635 S    
H4    C20   1.083556 S    
N10   H11   1.045689 S    
O4    Cu2   1.925598 S    
N11   O9    1.301235 A    
O2    Cu2   1.925290 S    
C25   C28   1.200439 T    
N7    H6    1.045486 S    
O8    C3    1.282579 A    
N9    H9    1.045645 S    
O5    Cu1   1.943154 S    
N3    C17   1.356182 A    
C11   C14   1.410831 A    
C12   C13   1.412420 A    
C10   N12   1.437256 S    
C32   N15   1.438121 S    
