data_mof_unit_19054.cif
_audit_creation_date              2012-12-10T18:18:18-0500
_audit_creation_method            fapswitch 2.2
_symmetry_space_group_name_H-M    P1
_symmetry_Int_Tables_number       1
_space_group_crystal_system       triclinic
_cell_length_a                    14.171172
_cell_length_b                    14.91508
_cell_length_c                    15.536924
_cell_angle_alpha                 89.275299
_cell_angle_beta                  66.834111
_cell_angle_gamma                 90.492909
_cell_volume                      3018.592358

loop_
_atom_site_label
_atom_site_type_symbol
_atom_type_description
_atom_site_fract_x
_atom_site_fract_y
_atom_site_fract_z
_atom_type_partial_charge
C1    C     C_R   0.499800 0.672822 0.502291 0.958177
C2    C     C_R   0.500536 0.327342 0.497571 0.922515
C3    C     C_R   0.374207 0.505921 0.107363 0.461313
C4    C     C_R   0.620549 0.533317 0.893516 0.471889
C5    C     C_R   0.301976 0.520150 0.068429 -0.288289
C6    C     C_R   0.693088 0.512907 0.931684 -0.344225
C7    C     C_R   0.435076 0.186040 0.574973 -0.304656
C8    C     C_R   0.559204 0.813877 0.419764 -0.305005
C9    C     C_R   0.499347 0.232104 0.494953 -0.161047
C10   C     C_R   0.502231 0.768396 0.502961 -0.169826
C11   C     C_R   0.557747 0.188051 0.412539 0.431063
C12   C     C_R   0.448296 0.813530 0.585635 0.411470
C13   C     C_R   0.557555 0.094465 0.413188 -0.018020
C14   C     C_R   0.437918 0.906308 0.581069 -0.030177
C15   C     C_R   0.494833 0.046985 0.495525 -0.012410
C16   C     C_R   0.496771 0.953406 0.497281 -0.001615
C17   C     C_R   0.431596 0.093148 0.576640 0.081875
C18   C     C_R   0.559453 0.906964 0.416198 0.085015
C19   C     C_R   0.619000 0.047852 0.333299 -0.204665
C20   C     C_R   0.370971 0.952365 0.658771 -0.244059
C21   C     C_R   0.619714 0.954735 0.333854 0.152088
C22   C     C_R   0.367811 0.045247 0.657526 0.164769
C23   C     C_R   0.434820 0.499827 0.676435 0.893701
C24   C     C_R   0.564890 0.501930 0.323709 0.901782
C25   C     C_R   0.173898 0.445670 0.562545 0.165630
C26   C     C_R   0.826931 0.553425 0.437630 0.164231
C27   C     C_R   0.228171 0.555287 0.438793 0.558666
C28   C     C_R   0.771207 0.438432 0.556698 0.537728
C29   C     C_R   0.130815 0.547132 0.430995 -0.114407
C30   C     C_R   0.869870 0.442222 0.563820 -0.098154
C31   C     C_R   0.050819 0.496744 0.498646 0.029977
C32   C     C_R   0.949450 0.496000 0.498668 0.056213
C33   C     C_R   0.072371 0.446150 0.565291 -0.043723
C34   C     C_R   0.929127 0.547532 0.431685 -0.035421
C35   C     C_R   0.111639 0.586482 0.356930 -0.168980
C36   C     C_R   0.893591 0.394864 0.631909 -0.201531
C37   C     C_R   0.012414 0.589709 0.358983 -0.184666
C38   C     C_R   0.991655 0.396775 0.632543 -0.145942
C39   C     C_R   0.392410 0.503133 0.779119 -0.177544
C40   C     C_R   0.606158 0.505674 0.221162 -0.170327
C41   C     C_R   0.258921 0.528567 0.932116 -0.304520
C42   C     C_R   0.737487 0.490402 0.065487 -0.325374
C43   C     C_R   0.289428 0.523045 0.834535 0.508011
C44   C     C_R   0.709202 0.487289 0.163720 0.506744
C45   C     C_R   0.462109 0.494011 0.821187 -0.280483
C46   C     C_R   0.535816 0.525199 0.181541 -0.261097
C47   C     C_R   0.437309 0.515428 0.914060 0.104906
C48   C     C_R   0.558950 0.513109 0.087194 0.073277
C49   C     C_R   0.332436 0.523971 0.971903 0.030205
C50   C     C_R   0.663071 0.503237 0.027851 0.086245
C51   C     C_R   0.513802 0.520817 0.951486 -0.059273
C52   C     C_R   0.481911 0.514327 0.050179 -0.115069
H1    H     H_    0.221017 0.519057 0.113804 0.166051
H2    H     H_    0.774010 0.509831 0.887410 0.137657
H3    H     H_    0.173208 0.614226 0.295950 0.172435
H4    H     H_    0.837920 0.359716 0.690313 0.122112
H5    H     H_    0.003182 0.623654 0.301086 0.174163
H6    H     H_    0.001786 0.359580 0.688234 0.177576
H7    H     H_    0.462811 0.552397 0.225490 0.261742
H8    H     H_    0.536927 0.469817 0.780049 0.225007
H9    H     H_    0.178349 0.535671 0.976455 0.147769
H10   H     H_    0.816549 0.483217 0.017461 0.130680
H11   H     H_    0.390113 0.223863 0.636092 0.207634
H12   H     H_    0.601965 0.775438 0.358395 0.204809
H13   H     H_    0.667474 0.083511 0.270004 0.210055
H14   H     H_    0.320791 0.916242 0.721124 0.196989
N1    N     N_R   0.249980 0.499930 0.499960 -0.169446
N2    N     N_R   0.750020 0.500070 0.500040 -0.155722
O1    O     O_R   0.419720 0.632140 0.499980 -0.586815
O2    O     O_R   0.580280 0.367860 0.500020 -0.529990
O3    O     O_R   0.580270 0.632160 0.499970 -0.604883
O4    O     O_R   0.419730 0.367840 0.500030 -0.627076
O5    O     O_R   0.373870 0.499980 0.632250 -0.543244
O6    O     O_R   0.626130 0.500020 0.367750 -0.532668
O7    O     O_R   0.534420 0.500000 0.632240 -0.620997
O8    O     O_R   0.465580 0.500000 0.367760 -0.607133
Zn1   Zn    Zn3+2 0.392800 0.499980 0.500010 1.013220
Zn2   Zn    Zn3+2 0.607200 0.500020 0.499990 1.044204
I1    I     I_    0.207038 0.358191 0.656661 -0.282792
I2    I     I_    0.794369 0.644997 0.346479 -0.301239
O9    O     O_3   0.303078 0.617332 0.385324 -0.574327
C53   C     C_3   0.262843 0.705186 0.389549 0.066255
H15   H     H_    0.185117 0.713823 0.446163 0.127255
H16   H     H_    0.259910 0.722724 0.321081 0.157494
C54   C     C_3   0.333501 0.774219 0.404648 -0.780336
H17   H     H_    0.413955 0.761874 0.356388 0.269077
H18   H     H_    0.312170 0.842582 0.390261 0.208695
H19   H     H_    0.324705 0.771137 0.478659 0.251688
O10   O     O_3   0.709434 0.361110 0.579660 -0.565921
C55   C     C_3   0.674640 0.331960 0.673846 0.087828
H20   H     H_    0.672614 0.386840 0.722170 0.127251
H21   H     H_    0.724134 0.276678 0.679074 0.155904
C56   C     C_3   0.568213 0.289231 0.704155 -0.785389
H22   H     H_    0.572477 0.227528 0.663634 0.258719
H23   H     H_    0.538489 0.270816 0.779753 0.209253
H24   H     H_    0.513905 0.335622 0.692414 0.249438
O11   O     O_3   0.777095 0.470783 0.207277 -0.575124
C57   C     C_3   0.872943 0.436786 0.147716 0.106642
H25   H     H_    0.919491 0.490146 0.098122 0.144074
H26   H     H_    0.863187 0.377499 0.108992 0.136340
C58   C     C_3   0.931285 0.406919 0.206694 -0.751484
H27   H     H_    0.886428 0.354459 0.258316 0.274078
H28   H     H_    0.006544 0.379165 0.160870 0.199212
H29   H     H_    0.944902 0.464857 0.244638 0.254415
O12   O     O_3   0.218151 0.528619 0.794341 -0.579556
C59   C     C_3   0.179525 0.616470 0.803044 0.109584
H30   H     H_    0.241751 0.668296 0.785842 0.174645
H31   H     H_    0.121881 0.626686 0.875347 0.132577
C60   C     C_3   0.127304 0.629506 0.735002 -0.775352
H32   H     H_    0.094027 0.697531 0.742797 0.202382
H33   H     H_    0.184155 0.622439 0.661927 0.262087
H34   H     H_    0.064895 0.578741 0.749317 0.246857
O13   O     O_3   0.336745 0.478749 0.200367 -0.619516
C61   C     C_3   0.336211 0.384058 0.204432 0.090409
H35   H     H_    0.415652 0.358092 0.171214 0.137730
H36   H     H_    0.288426 0.355118 0.168969 0.149548
C62   C     C_3   0.290828 0.352377 0.306200 -0.798050
H37   H     H_    0.210175 0.374622 0.340626 0.257959
H38   H     H_    0.292145 0.278032 0.309890 0.201888
H39   H     H_    0.336317 0.380032 0.343988 0.269729
O14   O     O_3   0.649305 0.565823 0.801637 -0.644159
C63   C     C_3   0.746316 0.609624 0.764175 0.070165
H40   H     H_    0.808059 0.559072 0.739854 0.151948
H41   H     H_    0.757870 0.654734 0.815956 0.158449
C64   C     C_3   0.754059 0.666883 0.679878 -0.805444
H42   H     H_    0.702252 0.724988 0.702981 0.246010
H43   H     H_    0.834057 0.692195 0.642698 0.212924
H44   H     H_    0.732065 0.626790 0.630888 0.263852
O15   O     O_3   0.616431 0.236264 0.332157 -0.607956
C65   C     C_3   0.556271 0.253864 0.279684 0.072868
H45   H     H_    0.518165 0.319382 0.300529 0.152131
H46   H     H_    0.495792 0.201679 0.289016 0.131432
C66   C     C_3   0.625648 0.258463 0.176061 -0.805802
H47   H     H_    0.654968 0.190778 0.151158 0.249469
H48   H     H_    0.582221 0.283581 0.135037 0.201097
H49   H     H_    0.691864 0.304005 0.164129 0.269204
O16   O     O_3   0.413133 0.766941 0.670481 -0.642982
C67   C     C_3   0.475590 0.790902 0.719381 0.046717
H50   H     H_    0.445356 0.851462 0.761691 0.167715
H51   H     H_    0.557542 0.804034 0.671898 0.148450
C68   C     C_3   0.474474 0.715568 0.785875 -0.780166
H52   H     H_    0.514367 0.657538 0.744086 0.288781
H53   H     H_    0.515892 0.736844 0.829967 0.227192
H54   H     H_    0.394338 0.696848 0.832086 0.244177
I3    I     I_    0.716077 0.892752 0.207556 -0.370714
I4    I     I_    0.265923 0.106605 0.781941 -0.376399

loop_
_geom_bond_atom_site_label_1
_geom_bond_atom_site_label_2
_ccdc_geom_bond_type
C45   H8    S    
C56   H22   S    
C46   H7    S    
C27   C29   A    
C34   C37   A    
O1    Zn1   S    
N1    Zn1   S    
C41   H9    S    
O9    C53   S    
C47   C49   A    
C54   H17   S    
C40   C46   A    
C1    O3    A    
C20   H14   S    
C35   C37   A    
C23   O5    A    
O15   C65   S    
C60   H33   S    
O2    Zn2   S    
C59   H30   S    
C15   C16   A    
C18   C21   A    
C15   C17   A    
C43   O12   S    
C45   C47   A    
C56   H23   S    
C38   H6    S    
C26   C34   A    
C22   I4    S    
C7    C17   A    
C25   N1    A    
C64   H44   S    
C31   C33   A    
C28   O10   S    
C42   H10   S    
C39   C45   A    
C48   C50   A    
C58   H28   S    
C41   C43   A    
C5    C49   A    
C42   C44   A    
C6    H2    S    
C2    O4    A    
C11   O15   S    
C41   C49   A    
O11   C57   S    
C54   H18   S    
N2    Zn2   S    
C46   C48   A    
C13   C19   A    
C4    C51   A    
C35   H3    S    
C51   C52   A    
C58   H27   S    
C14   C20   A    
C27   O9    S    
O8    Zn1   S    
C4    C6    A    
C3    O13   S    
C68   H54   S    
C23   O7    A    
C24   O8    A    
C39   C43   A    
C1    O1    A    
C60   H34   S    
C61   H36   S    
C68   H53   S    
C21   I3    S    
C65   H46   S    
O4    Zn1   S    
C36   H4    S    
C66   H49   S    
C44   O11   S    
C55   H21   S    
C31   C32   A    
C40   C44   A    
C25   C33   A    
C8    C18   A    
C62   H37   S    
C6    C50   A    
C9    C11   A    
C7    H11   S    
O14   C63   S    
C10   C12   A    
C42   C50   A    
C16   C18   A    
C8    H12   S    
C53   H15   S    
C58   H29   S    
C57   H26   S    
C13   C15   A    
C66   H47   S    
C14   C16   A    
C62   H39   S    
C65   C66   S    
C20   C22   A    
C63   H41   S    
C57   C58   S    
C55   C56   S    
C66   H48   S    
O13   C61   S    
O16   C67   S    
C54   H19   S    
C5    H1    S    
C7    C9    A    
C28   N2    A    
C25   I1    S    
C1    C10   S    
C17   C22   A    
C12   C14   A    
C3    C5    A    
C67   C68   S    
C47   C51   A    
C3    C52   A    
C61   H35   S    
C67   H51   S    
C56   H24   S    
C53   C54   S    
O12   C59   S    
C29   C35   A    
C53   H16   S    
C33   C38   A    
C30   C36   A    
C26   N2    A    
C63   C64   S    
C62   H38   S    
C65   H45   S    
C63   H40   S    
C28   C30   A    
C29   C31   A    
C68   H52   S    
C30   C32   A    
C11   C13   A    
C24   O6    A    
C55   H20   S    
C64   H42   S    
C59   H31   S    
C23   C39   S    
C36   C38   A    
C24   C40   S    
C4    O14   S    
C19   H13   S    
O7    Zn2   S    
C26   I2    S    
C61   C62   S    
C27   N1    A    
C67   H50   S    
C48   C52   A    
C8    C10   A    
C57   H25   S    
O6    Zn2   S    
C60   H32   S    
C64   H43   S    
O5    Zn1   S    
C12   O16   S    
O10   C55   S    
C2    O2    A    
C2    C9    S    
O3    Zn2   S    
C37   H5    S    
C32   C34   A    
C19   C21   A    
C59   C60   S    
