data_mof_unit_45451.cif
_audit_creation_date              2012-12-10T17:16:38-0500
_audit_creation_method            fapswitch 2.2
_symmetry_space_group_name_H-M    P1
_symmetry_Int_Tables_number       1
_space_group_crystal_system       triclinic
_cell_length_a                    10.010371
_cell_length_b                    10.731764
_cell_length_c                    10.586238
_cell_angle_alpha                 89.568371
_cell_angle_beta                  94.818235
_cell_angle_gamma                 85.406454
_cell_volume                      1129.49288669

loop_
_atom_site_label
_atom_site_type_symbol
_atom_type_description
_atom_site_fract_x
_atom_site_fract_y
_atom_site_fract_z
_atom_type_partial_charge
C1    C     C_R   0.444326 0.496726 0.266527 0.943886
C2    C     C_R   0.553082 0.479662 0.733373 0.936648
C3    C     C_2   0.414610 0.470924 0.132672 -0.276901
C4    C     C_2   0.575693 0.445639 0.867353 -0.309613
C5    C     C_2   0.498803 0.394036 0.068995 -0.056970
C6    C     C_2   0.480637 0.395251 0.931125 -0.141584
C7    C     C_2   0.026774 0.558276 0.541672 -0.103592
C8    C     C_2   0.940683 0.519566 0.431002 0.103023
C9    C     C_R   0.495154 0.260326 0.501970 0.917589
C10   C     C_R   0.506918 0.739577 0.502378 0.836531
C11   C     C_R   0.618356 0.121949 0.722871 -0.030836
C12   C     C_R   0.483579 0.892984 0.265703 -0.125173
C13   C     C_R   0.615225 0.064887 0.841275 -0.143288
C14   C     C_R   0.406960 0.958384 0.165685 -0.227043
C15   C     C_R   0.612223 0.935964 0.847069 -0.238164
C16   C     C_R   0.328448 0.067032 0.188551 -0.083606
C17   C     C_R   0.611495 0.867883 0.734003 -0.145988
C18   C     C_R   0.336808 0.120871 0.308675 -0.098670
C19   C     C_R   0.562342 0.931103 0.617895 0.043420
C20   C     C_R   0.430030 0.064538 0.405982 -0.025371
C21   C     C_R   0.556835 0.062069 0.616218 0.055832
C22   C     C_R   0.481110 0.940978 0.390918 0.058817
C23   C     C_R   0.525185 0.871074 0.502493 -0.120478
C24   C     C_R   0.486293 0.128138 0.511617 -0.155201
H1    H     H_    0.261886 0.109991 0.111594 0.185015
H2    H     H_    0.640239 0.891157 0.938394 0.182187
H3    H     H_    0.647359 0.112291 0.927080 0.200180
H4    H     H_    0.408178 0.926686 0.068943 0.148621
H5    H     H_    0.668806 0.469073 0.918050 0.249706
H6    H     H_    0.328508 0.523305 0.082565 0.176436
H7    H     H_    0.832899 0.525268 0.430568 0.244891
H8    H     H_    0.973924 0.588306 0.623256 0.180921
H9    H     H_    0.879072 0.356888 0.481406 0.253706
H10   H     H_    0.185616 0.584136 0.639903 0.201260
N1    N     N_2   0.157300 0.551390 0.551120 -0.154746
N2    N     N_2   0.842700 0.448610 0.448880 -0.345089
O1    O     O_R   0.568940 0.489660 0.307530 -0.579680
O2    O     O_R   0.431060 0.510340 0.692470 -0.629082
O3    O     O_R   0.348880 0.522640 0.340350 -0.575228
O4    O     O_R   0.651120 0.477360 0.659650 -0.586466
O5    O     O_R   0.610030 0.300280 0.483580 -0.584318
O6    O     O_R   0.389970 0.699720 0.516420 -0.621162
O7    O     O_R   0.389970 0.333270 0.516400 -0.567635
O8    O     O_R   0.610030 0.666730 0.483600 -0.565207
Zn1   Zn    Zn3+2 0.646940 0.477980 0.478080 1.036062
Zn2   Zn    Zn3+2 0.353060 0.522020 0.521920 1.032809
C25   C     C_2   0.739696 0.190560 0.709904 0.922636
O9    O     O_2   0.803986 0.173630 0.617403 -0.598942
O10   O     O_R   0.790408 0.262149 0.809882 -0.779760
H11   H     H_    0.875944 0.300709 0.791070 0.356016
C26   C     C_2   0.586726 0.793951 0.232110 0.937160
O11   O     O_2   0.698803 0.787730 0.288163 -0.530962
O12   O     O_R   0.562595 0.713236 0.131233 -0.810188
H12   H     H_    0.466088 0.720710 0.093203 0.276451
C27   C     C_2   0.709131 0.756591 0.736542 0.947586
O13   O     O_2   0.785718 0.744370 0.653055 -0.566248
O14   O     O_R   0.729443 0.674987 0.840789 -0.784654
H13   H     H_    0.658100 0.688395 0.902621 0.316771
C28   C     C_2   0.232096 0.221822 0.332958 0.960307
O15   O     O_2   0.198473 0.302889 0.252432 -0.543055
O16   O     O_R   0.164719 0.222148 0.443588 -0.740152
H14   H     H_    0.193314 0.147161 0.501052 0.321579
C29   C     C_2   0.359614 0.338442 0.871685 0.941716
O17   O     O_2   0.362338 0.288440 0.768644 -0.626955
O18   O     O_R   0.244855 0.335196 0.938096 -0.780695
H15   H     H_    0.170472 0.292002 0.889534 0.351994
C30   C     C_2   0.609469 0.307472 0.130472 0.962572
O19   O     O_2   0.719416 0.297279 0.087602 -0.580680
O20   O     O_R   0.585954 0.233334 0.233542 -0.812208
H16   H     H_    0.667250 0.175131 0.264104 0.363259

loop_
_geom_bond_atom_site_label_1
_geom_bond_atom_site_label_2
_ccdc_geom_bond_type
C6    C29   S    
C1    C3    S    
C3    H6    S    
C19   C23   A    
C27   O13   D    
C29   O18   S    
C9    C24   S    
C2    O4    A    
C10   C23   S    
C10   O6    A    
C2    O2    A    
C9    O5    A    
C4    H5    S    
C10   O8    A    
C1    O1    A    
C5    C30   S    
C14   H4    S    
C20   C24   A    
C12   C26   S    
C27   O14   S    
N2    Zn1   S    
C25   O10   S    
C28   O15   D    
O12   H12   S    
O2    Zn2   S    
C11   C13   A    
O14   H13   S    
O4    Zn1   S    
C7    N1    D    
O3    Zn2   S    
C5    C6    S    
C2    C4    S    
C4    C6    D    
C19   C21   A    
C12   C14   A    
O10   H11   S    
C18   C20   A    
O20   H16   S    
C13   C15   A    
O6    Zn2   S    
O16   H14   S    
H10   N1    S    
O7    Zn2   S    
C14   C16   A    
C28   O16   S    
C9    O7    A    
C1    O3    A    
O1    Zn1   S    
C30   O19   D    
C12   C22   A    
C18   C28   S    
C7    C8    S    
H9    N2    S    
C26   O11   D    
O8    Zn1   S    
C16   C18   A    
O18   H15   S    
C8    N2    D    
C21   C24   A    
C30   O20   S    
C16   H1    S    
C15   C17   A    
C17   C27   S    
C22   C23   A    
C17   C19   A    
C15   H2    S    
O5    Zn1   S    
C7    H8    S    
C26   O12   S    
C8    H7    S    
C11   C25   S    
C11   C21   A    
C13   H3    S    
C25   O9    D    
C20   C22   A    
C29   O17   D    
C3    C5    D    
N1    Zn2   S    
