data_mof_unit_18727.cif
_audit_creation_date              2012-12-11T15:44:45-0500
_audit_creation_method            fapswitch 2.2
_symmetry_space_group_name_H-M    P1
_symmetry_Int_Tables_number       1
_space_group_crystal_system       triclinic
_cell_length_a                    19.205527
_cell_length_b                    10.982681
_cell_length_c                    18.705466
_cell_angle_alpha                 90.171694
_cell_angle_beta                  89.774274
_cell_angle_gamma                 89.768205
_cell_volume                      3945.42902317

loop_
_atom_site_label
_atom_site_type_symbol
_atom_type_description
_atom_site_fract_x
_atom_site_fract_y
_atom_site_fract_z
_atom_type_partial_charge
C1    C     C_R   0.760426 0.536843 0.647941 0.533816
C2    C     C_R   0.239802 0.535960 0.352592 0.549444
C3    C     C_R   0.260426 0.036843 0.647941 0.533818
C4    C     C_R   0.739802 0.035960 0.352592 0.549444
C5    C     C_R   0.827076 0.082753 0.524396 -0.161105
C6    C     C_R   0.168755 0.118350 0.482047 -0.164621
C7    C     C_R   0.327076 0.582753 0.524396 -0.161105
C8    C     C_R   0.668755 0.618351 0.482047 -0.164621
C9    C     C_R   0.818849 0.065832 0.452141 -0.166767
C10   C     C_R   0.179639 0.102922 0.554865 -0.162998
C11   C     C_R   0.318849 0.565832 0.452141 -0.166767
C12   C     C_R   0.679639 0.602922 0.554865 -0.162999
C13   C     C_3   0.691795 0.298739 0.439346 -0.266450
C14   C     C_3   0.351749 0.230670 0.541303 -0.275546
C15   C     C_3   0.191795 0.798739 0.439346 -0.266450
C16   C     C_3   0.851749 0.730670 0.541303 -0.275546
C17   C     C_3   0.704960 0.326176 0.516829 -0.251363
C18   C     C_3   0.340240 0.249303 0.462357 -0.263446
C19   C     C_3   0.204960 0.826176 0.516829 -0.251363
C20   C     C_3   0.840240 0.749303 0.462357 -0.263446
C21   C     C_R   0.777611 0.146982 0.563388 0.011824
C22   C     C_R   0.224626 0.139836 0.436096 0.010193
C23   C     C_R   0.277611 0.646982 0.563388 0.011824
C24   C     C_R   0.724626 0.639836 0.436096 0.010193
C25   C     C_R   0.002219 0.343232 0.428995 -0.034922
C26   C     C_R   0.010974 0.330172 0.579522 -0.035713
C27   C     C_R   0.502219 0.843232 0.428995 -0.034922
C28   C     C_R   0.510974 0.830171 0.579522 -0.035713
C29   C     C_R   0.982525 0.121375 0.424965 -0.096010
C30   C     C_R   0.005956 0.105957 0.571365 -0.107986
C31   C     C_R   0.482525 0.621375 0.424965 -0.096010
C32   C     C_R   0.505956 0.605957 0.571365 -0.107986
C33   C     C_R   0.987405 0.008191 0.457623 -0.150731
C34   C     C_R   0.000552 0.000144 0.530481 -0.161931
C35   C     C_R   0.487405 0.508191 0.457623 -0.150731
C36   C     C_R   0.500552 0.500143 0.530481 -0.161930
C37   C     C_R   0.003103 0.222005 0.538980 0.007802
C38   C     C_R   0.995378 0.229344 0.463714 -0.003442
C39   C     C_R   0.503104 0.722005 0.538980 0.007802
C40   C     C_R   0.495378 0.729344 0.463714 -0.003442
C41   C     C_R   0.027843 0.438021 0.544262 0.013837
C42   C     C_R   0.010413 0.450172 0.471835 0.024529
C43   C     C_R   0.527844 0.938021 0.544262 0.013837
C44   C     C_R   0.510413 0.950171 0.471835 0.024529
C45   C     C_R   0.790630 0.169688 0.638647 0.564101
C46   C     C_R   0.210427 0.166798 0.361652 0.556560
C47   C     C_R   0.290630 0.669688 0.638647 0.564101
C48   C     C_R   0.710427 0.666798 0.361652 0.556560
C49   C     C_R   0.055092 0.538282 0.582119 -0.067747
C50   C     C_R   0.003848 0.569905 0.444892 -0.070726
C51   C     C_R   0.555092 0.038282 0.582119 -0.067747
C52   C     C_R   0.503848 0.069905 0.444892 -0.070726
C53   C     C_R   0.054204 0.653420 0.552180 -0.118122
C54   C     C_R   0.027328 0.669347 0.484096 -0.142371
C55   C     C_R   0.554204 0.153420 0.552180 -0.118121
C56   C     C_R   0.527328 0.169347 0.484096 -0.142371
C57   C     C_R   0.729586 0.001365 0.062740 0.013715
C58   C     C_R   0.248675 0.065026 0.926298 0.054501
C59   C     C_R   0.229586 0.501365 0.062740 0.013716
C60   C     C_R   0.748674 0.565028 0.926297 0.054507
C61   C     C_R   0.791115 0.975039 0.027213 -0.019393
C62   C     C_R   0.214964 0.981760 0.970900 0.092595
C63   C     C_R   0.291116 0.475044 0.027214 -0.019394
C64   C     C_R   0.714960 0.481764 0.970899 0.092598
C65   C     C_R   0.800444 0.999064 0.956268 0.002467
C66   C     C_R   0.213926 0.995049 0.043858 0.079101
C67   C     C_R   0.300445 0.499066 0.956269 0.002464
C68   C     C_R   0.713922 0.495054 0.043857 0.079100
C69   C     C_R   0.682447 0.066295 0.947023 -0.160834
C70   C     C_R   0.278546 0.180194 0.031193 -0.181442
C71   C     C_R   0.182447 0.566291 0.947022 -0.160841
C72   C     C_R   0.778548 0.680192 0.031193 -0.181442
C73   C     C_R   0.672349 0.035649 0.020105 -0.163275
C74   C     C_R   0.276458 0.169677 0.956581 -0.139896
C75   C     C_R   0.172348 0.535645 0.020105 -0.163278
C76   C     C_R   0.776459 0.669676 0.956581 -0.139884
C77   C     C_3   0.864018 0.003399 0.045811 -0.239147
C78   C     C_3   0.223747 0.847605 0.975662 -0.248080
C79   C     C_3   0.364020 0.503404 0.045813 -0.239150
C80   C     C_3   0.723738 0.347609 0.975661 -0.248080
C81   C     C_3   0.875475 0.027722 0.967326 -0.238703
C82   C     C_3   0.224047 0.862031 0.056103 -0.289404
C83   C     C_3   0.375476 0.527725 0.967327 -0.238698
C84   C     C_3   0.724038 0.362035 0.056102 -0.289400
C85   C     C_R   0.749472 0.059398 0.916949 0.022545
C86   C     C_R   0.247771 0.091710 0.075509 0.002361
C87   C     C_R   0.249473 0.559399 0.916949 0.022542
C88   C     C_R   0.747770 0.591711 0.075509 0.002355
C89   C     C_R   0.973845 0.344155 0.648606 0.531763
C90   C     C_R   0.028730 0.347081 0.353992 0.523999
C91   C     C_R   0.473845 0.844155 0.648606 0.531759
C92   C     C_R   0.528730 0.847081 0.353992 0.523999
C93   C     C_R   0.995577 0.332002 0.077454 -0.036045
C94   C     C_R   0.995133 0.346513 0.926928 -0.032660
C95   C     C_R   0.495577 0.832001 0.077454 -0.036044
C96   C     C_R   0.495132 0.846515 0.926929 -0.032661
C97   C     C_R   0.967790 0.434567 0.043003 -0.030080
C98   C     C_R   0.970690 0.441891 0.970151 0.014262
C99   C     C_R   0.467788 0.934566 0.043004 -0.030083
C100  C     C_R   0.470687 0.941891 0.970151 0.014267
C101  C     C_R   0.015726 0.236527 0.959316 -0.019622
C102  C     C_R   0.010205 0.224637 0.035158 -0.024847
C103  C     C_R   0.515727 0.736530 0.959316 -0.019613
C104  C     C_R   0.510205 0.724637 0.035157 -0.024850
C105  C     C_3   0.962860 0.572614 0.050063 0.017429
C106  C     C_3   0.982099 0.577545 0.970746 0.034972
C107  C     C_3   0.462859 0.072613 0.050064 0.017428
C108  C     C_3   0.482097 0.077545 0.970747 0.034973
C109  C     C_R   0.760421 0.530085 0.852689 0.549906
C110  C     C_R   0.225860 0.481456 0.140426 0.562354
C111  C     C_R   0.260422 0.030085 0.852689 0.549912
C112  C     C_R   0.725860 0.981456 0.140426 0.562354
C113  C     C_R   0.771414 0.121571 0.851318 0.538589
C114  C     C_R   0.228247 0.125578 0.147567 0.545763
C115  C     C_R   0.271414 0.621571 0.851318 0.538588
C116  C     C_R   0.728247 0.625579 0.147567 0.545761
C117  C     C_R   0.970596 0.347987 0.853400 0.579155
C118  C     C_R   0.028622 0.345804 0.147144 0.564237
C119  C     C_R   0.470595 0.847987 0.853400 0.579136
C120  C     C_R   0.528622 0.845804 0.147144 0.564239
C121  C     C_R   0.757092 0.099922 0.418002 0.010093
C122  C     C_R   0.247100 0.102818 0.582462 0.008274
C123  C     C_R   0.257092 0.599922 0.418002 0.010093
C124  C     C_R   0.747100 0.602818 0.582462 0.008274
C125  C     C_R   0.707836 0.168513 0.455315 0.033841
C126  C     C_R   0.303131 0.125403 0.536802 0.023968
C127  C     C_R   0.207836 0.668513 0.455315 0.033841
C128  C     C_R   0.803132 0.625404 0.536802 0.023968
C129  C     C_R   0.719385 0.194664 0.527736 0.023734
C130  C     C_R   0.292011 0.143990 0.464238 0.018951
C131  C     C_R   0.219385 0.694665 0.527736 0.023734
C132  C     C_R   0.792011 0.643990 0.464238 0.018951
Cr1   Cr    Cr6+3 0.885860 0.491680 0.749630 1.009776
Cr2   Cr    Cr6+3 0.114140 0.491680 0.250370 1.003416
Cr3   Cr    Cr6+3 0.385860 0.991680 0.749630 1.009777
Cr4   Cr    Cr6+3 0.614140 0.991680 0.250370 1.003416
Cr5   Cr    Cr6+3 0.730490 0.332970 0.748720 0.996809
Cr6   Cr    Cr6+3 0.269510 0.332970 0.251280 0.988963
Cr7   Cr    Cr6+3 0.230490 0.832970 0.748720 0.996806
Cr8   Cr    Cr6+3 0.769510 0.832970 0.251280 0.988965
Cr9   Cr    Cr6+3 0.887570 0.179310 0.750150 1.017241
Cr10  Cr    Cr6+3 0.112430 0.179310 0.249850 1.045211
Cr11  Cr    Cr6+3 0.387570 0.679310 0.750150 1.017247
Cr12  Cr    Cr6+3 0.612430 0.679310 0.249850 1.045213
H1    H     H_    0.871680 0.043779 0.550170 0.166225
H2    H     H_    0.117019 0.113109 0.461071 0.164320
H3    H     H_    0.371680 0.543779 0.550170 0.166225
H4    H     H_    0.617019 0.613109 0.461071 0.164320
H5    H     H_    0.071727 0.730467 0.583144 0.104857
H6    H     H_    0.024513 0.758695 0.461463 0.093788
H7    H     H_    0.571728 0.230467 0.583144 0.104857
H8    H     H_    0.524513 0.258695 0.461463 0.093788
H9    H     H_    0.640582 0.103972 0.915712 0.108306
H10   H     H_    0.304520 0.256458 0.054927 0.135108
H11   H     H_    0.140582 0.603967 0.915711 0.108307
H12   H     H_    0.804523 0.756454 0.054927 0.135107
H13   H     H_    0.621750 0.043767 0.044055 0.154021
H14   H     H_    0.299100 0.239181 0.922978 0.133049
H15   H     H_    0.121749 0.543760 0.044054 0.154022
H16   H     H_    0.799102 0.739179 0.922978 0.133051
H17   H     H_    0.892915 0.922432 0.065495 0.159260
H18   H     H_    0.274473 0.815587 0.953616 0.131889
H19   H     H_    0.392916 0.422437 0.065497 0.159260
H20   H     H_    0.774463 0.315587 0.953615 0.131891
H21   H     H_    0.866621 0.087132 0.079198 0.190184
H22   H     H_    0.176457 0.802104 0.955203 0.162703
H23   H     H_    0.366623 0.587136 0.079200 0.190179
H24   H     H_    0.676447 0.302112 0.955202 0.162700
H25   H     H_    0.887904 0.124378 0.955807 0.155492
H26   H     H_    0.178361 0.819314 0.082514 0.148663
H27   H     H_    0.387905 0.624382 0.955808 0.155497
H28   H     H_    0.678351 0.319321 0.082513 0.148662
H29   H     H_    0.909157 0.958394 0.941082 0.185198
H30   H     H_    0.275244 0.840189 0.080678 0.130669
H31   H     H_    0.409158 0.458397 0.941084 0.185204
H32   H     H_    0.775235 0.340188 0.080678 0.130670
H33   H     H_    0.908047 0.599804 0.061367 0.134020
H34   H     H_    0.037174 0.600658 0.961125 0.115420
H35   H     H_    0.408045 0.099804 0.061368 0.134021
H36   H     H_    0.537172 0.100655 0.961126 0.115421
H37   H     H_    0.858119 0.014200 0.424175 0.147046
H38   H     H_    0.136525 0.080334 0.589158 0.138413
H39   H     H_    0.358119 0.514200 0.424175 0.147046
H40   H     H_    0.636525 0.580334 0.589158 0.138413
H41   H     H_    0.136900 0.813180 0.423160 0.144120
H42   H     H_    0.905271 0.701195 0.555000 0.159634
H43   H     H_    0.636900 0.313180 0.423160 0.144121
H44   H     H_    0.405271 0.201195 0.555000 0.159634
H45   H     H_    0.730537 0.341425 0.402906 0.149769
H46   H     H_    0.331032 0.306482 0.574865 0.145685
H47   H     H_    0.230537 0.841425 0.402906 0.149769
H48   H     H_    0.831032 0.806482 0.574865 0.145684
H49   H     H_    0.752616 0.381139 0.524689 0.145745
H50   H     H_    0.311200 0.333242 0.450138 0.163155
H51   H     H_    0.252616 0.881139 0.524689 0.145745
H52   H     H_    0.811200 0.833242 0.450138 0.163155
H53   H     H_    0.657903 0.357719 0.546022 0.151389
H54   H     H_    0.386925 0.231983 0.428731 0.128246
H55   H     H_    0.157904 0.857719 0.546022 0.151389
H56   H     H_    0.886925 0.731983 0.428731 0.128246
H57   H     H_    0.977877 0.927665 0.426062 0.099773
H58   H     H_    0.003460 0.912299 0.556126 0.107215
H59   H     H_    0.477877 0.427665 0.426062 0.099773
H60   H     H_    0.503460 0.412299 0.556126 0.107216
H61   H     H_    0.967434 0.123028 0.369353 0.142044
H62   H     H_    0.017023 0.095408 0.627645 0.133987
H63   H     H_    0.467434 0.623028 0.369353 0.142043
H64   H     H_    0.517023 0.595409 0.627645 0.133987
H65   H     H_    0.979361 0.588553 0.394141 0.131393
H66   H     H_    0.074278 0.528154 0.636198 0.129923
H67   H     H_    0.479361 0.088553 0.394141 0.131393
H68   H     H_    0.574279 0.028154 0.636198 0.129923
O1    O     O_R   0.957020 0.451640 0.669920 -0.519137
O2    O     O_R   0.042980 0.451640 0.330080 -0.529376
O3    O     O_R   0.457020 0.951640 0.669920 -0.519136
O4    O     O_R   0.542980 0.951640 0.330080 -0.529377
O5    O     O_R   0.736470 0.210100 0.823360 -0.506942
O6    O     O_R   0.263530 0.210100 0.176640 -0.531444
O7    O     O_R   0.236470 0.710100 0.823360 -0.506943
O8    O     O_R   0.763530 0.710100 0.176640 -0.531442
O9    O     O_R   0.831960 0.093290 0.830130 -0.512474
O10   O     O_R   0.168040 0.093290 0.169870 -0.481198
O11   O     O_R   0.331960 0.593290 0.830130 -0.512467
O12   O     O_R   0.668040 0.593290 0.169870 -0.481200
O13   O     O_R   0.945600 0.250580 0.824860 -0.490305
O14   O     O_R   0.054400 0.250580 0.175140 -0.460381
O15   O     O_R   0.445600 0.750580 0.824860 -0.490307
O16   O     O_R   0.554400 0.750580 0.175140 -0.460379
O17   O     O_3   0.834640 0.334650 0.749500 -0.271857
O18   O     O_3   0.165360 0.334650 0.250500 -0.291260
O19   O     O_3   0.334640 0.834650 0.749500 -0.271857
O20   O     O_3   0.665360 0.834650 0.250500 -0.291261
O21   O     O_R   0.821450 0.543440 0.674610 -0.496074
O22   O     O_R   0.178550 0.543440 0.325390 -0.488501
O23   O     O_R   0.321450 0.043440 0.674610 -0.496073
O24   O     O_R   0.678550 0.043440 0.325390 -0.488501
O25   O     O_R   0.715320 0.458650 0.668100 -0.542716
O26   O     O_R   0.284680 0.458650 0.331900 -0.540793
O27   O     O_R   0.215320 0.958650 0.668100 -0.542717
O28   O     O_R   0.784680 0.958650 0.331900 -0.540793
O29   O     O_R   0.737170 0.209590 0.674530 -0.498915
O30   O     O_R   0.262830 0.209590 0.325470 -0.503446
O31   O     O_R   0.237170 0.709590 0.674530 -0.498916
O32   O     O_R   0.762830 0.709590 0.325470 -0.503446
O33   O     O_R   0.832710 0.092740 0.669580 -0.526197
O34   O     O_R   0.167290 0.092740 0.330420 -0.521515
O35   O     O_R   0.332710 0.592740 0.669580 -0.526196
O36   O     O_R   0.667290 0.592740 0.330420 -0.521514
O37   O     O_R   0.946290 0.250060 0.676040 -0.519789
O38   O     O_R   0.053710 0.250060 0.323960 -0.514627
O39   O     O_R   0.446290 0.750060 0.676040 -0.519791
O40   O     O_R   0.553710 0.750060 0.323960 -0.514627
O41   O     O_R   0.956270 0.452200 0.830470 -0.502544
O42   O     O_R   0.043730 0.452200 0.169530 -0.494068
O43   O     O_R   0.456270 0.952200 0.830470 -0.502544
O44   O     O_R   0.543730 0.952200 0.169530 -0.494068
O45   O     O_R   0.820760 0.543950 0.823440 -0.484699
O46   O     O_R   0.179240 0.543950 0.176560 -0.499117
O47   O     O_R   0.320760 0.043950 0.823440 -0.484698
O48   O     O_R   0.679240 0.043950 0.176560 -0.499117
O49   O     O_R   0.714570 0.459210 0.828640 -0.523160
O50   O     O_R   0.285430 0.459210 0.171360 -0.512617
O51   O     O_R   0.214570 0.959210 0.828640 -0.523157
O52   O     O_R   0.785430 0.959210 0.171360 -0.512616
C133  C     C_2   0.046824 0.141334 0.912021 0.628442
O53   O     O_2   0.026506 0.036251 0.913692 -0.532189
O54   O     O_R   0.096287 0.175944 0.861037 -0.707567
H69   H     H_    0.109392 0.106933 0.827510 0.343680
C134  C     C_2   0.019834 0.102811 0.070025 0.608892
O55   O     O_2   0.985865 0.077133 0.123297 -0.547191
O56   O     O_R   0.067195 0.017595 0.043351 -0.661994
H70   H     H_    0.066467 0.938368 0.071037 0.320691
C135  C     C_2   0.546830 0.641346 0.912021 0.628452
O57   O     O_2   0.526500 0.536267 0.913673 -0.532181
O58   O     O_R   0.596311 0.675963 0.861053 -0.707572
H71   H     H_    0.609414 0.606961 0.827519 0.343679
C136  C     C_2   0.519835 0.602808 0.070022 0.608872
O59   O     O_2   0.485870 0.577133 0.123297 -0.547181
O60   O     O_R   0.567186 0.517583 0.043337 -0.662013
H72   H     H_    0.566456 0.438356 0.071021 0.320686
N1    N     N_2   0.012610 0.636040 0.095130 -0.491539
H73   H     H_    0.044049 0.697115 0.068536 0.230428
C137  C     C_3   0.982725 0.691633 0.158614 -0.256935
H74   H     H_    0.025134 0.724462 0.193857 0.143460
H75   H     H_    0.950943 0.624699 0.188812 0.164354
H76   H     H_    0.949333 0.770263 0.143632 0.124133
N2    N     N_2   0.934248 0.650173 0.928634 -0.481454
H77   H     H_    0.907627 0.711897 0.959973 0.232524
C138  C     C_3   0.966265 0.716148 0.870151 -0.273178
H78   H     H_    0.925064 0.753757 0.834972 0.146327
H79   H     H_    0.001059 0.656787 0.837790 0.169048
H80   H     H_    0.997805 0.792655 0.891418 0.155839
N3    N     N_2   0.512608 0.136039 0.095131 -0.491540
H81   H     H_    0.544047 0.197114 0.068537 0.230423
C139  C     C_3   0.482723 0.191632 0.158615 -0.256936
H82   H     H_    0.525132 0.224460 0.193858 0.143462
H83   H     H_    0.450941 0.124698 0.188813 0.164353
H84   H     H_    0.449331 0.270261 0.143633 0.124133
N4    N     N_2   0.434246 0.150174 0.928635 -0.481457
H85   H     H_    0.407625 0.211898 0.959975 0.232525
C140  C     C_3   0.466264 0.216150 0.870153 -0.273177
H86   H     H_    0.425063 0.253762 0.834975 0.146330
H87   H     H_    0.501058 0.156789 0.837792 0.169049
H88   H     H_    0.497805 0.292655 0.891421 0.155839

loop_
_geom_bond_atom_site_label_1
_geom_bond_atom_site_label_2
_ccdc_geom_bond_type
Cr9   O37   S    
C47   O35   A    
C140  H86   S    
C90   O38   A    
Cr11  O39   S    
C6    H2    S    
C94   C117  S    
C95   C99   A    
O56   H70   S    
C29   C33   A    
Cr8   O28   S    
C91   O3    A    
C3    O23   A    
Cr8   O8    S    
C82   H30   S    
C50   H65   S    
C1    O21   A    
Cr10  O34   S    
C83   H27   S    
C70   C74   A    
C9    C121  A    
N2    C138  S    
C17   H53   S    
C81   H25   S    
C21   C45   S    
C136  O60   S    
C80   C84   S    
C97   C105  S    
C15   C127  S    
C22   C130  A    
Cr9   O13   S    
C20   C132  S    
C41   C49   A    
C106  N2    S    
C5    H1    S    
Cr1   O41   S    
C30   C34   A    
C2    C123  S    
Cr7   O27   S    
C60   C76   A    
Cr8   O32   S    
C35   C36   A    
C25   C42   A    
C43   C44   A    
C31   H63   S    
C37   C38   A    
C66   C82   S    
C15   H41   S    
C78   C82   S    
C16   C20   S    
Cr4   O48   S    
C57   C61   A    
C113  O9    A    
C112  O52   A    
C105  H33   S    
C134  O56   S    
C10   H38   S    
C18   C130  S    
C123  C127  A    
C90   O2    A    
C140  H88   S    
C15   H47   S    
C107  H35   S    
Cr11  O15   S    
C10   C122  A    
C98   C106  S    
C55   H7    S    
C59   C63   A    
C14   C126  S    
C60   C64   A    
C1    C124  S    
C48   O36   A    
C49   C53   A    
C51   C55   A    
Cr5   O25   S    
C127  C131  A    
C61   C65   A    
C5    C21   A    
Cr5   O5    S    
C126  C130  A    
Cr7   O19   S    
C79   H23   S    
C80   H24   S    
Cr9   O9    S    
C47   O31   A    
C67   C83   S    
C72   H12   S    
C102  C134  S    
Cr7   O51   S    
C18   H50   S    
C97   C98   A    
C139  H83   S    
C53   C54   A    
C118  O14   A    
C121  C125  A    
C25   C90   S    
C64   C68   A    
C110  O46   A    
Cr10  O18   S    
C77   H21   S    
C73   H13   S    
C29   H61   S    
C57   C73   A    
C20   H56   S    
C60   C109  S    
C117  O41   A    
C27   C44   A    
C61   C77   S    
C29   C38   A    
Cr9   O33   S    
C107  C108  S    
C116  O8    A    
Cr7   O31   S    
C44   C52   A    
C136  O59   D    
C137  H76   S    
C53   H5    S    
C4    O24   A    
C114  O6    A    
C135  O57   D    
C7    H3    S    
C92   O40   A    
C100  C108  S    
C23   C47   S    
C62   C66   A    
C24   C48   S    
Cr6   O18   S    
C88   C116  S    
C46   O34   A    
C39   C40   A    
C1    O25   A    
C81   H29   S    
C5    C9    A    
N3    H81   S    
C125  C129  A    
C25   C38   A    
C16   C128  S    
C105  N1    S    
C27   C40   A    
C8    C12   A    
C138  H78   S    
Cr2   O22   S    
C23   C131  A    
C133  O54   S    
C21   C129  A    
C42   C50   A    
C93   C97   A    
C69   C85   A    
C58   C74   A    
C108  N4    S    
C87   C115  S    
C62   C78   S    
C84   H28   S    
C104  C136  S    
C66   C86   A    
O54   H69   S    
N1    C137  S    
C19   H55   S    
C13   C17   S    
C85   C113  S    
Cr5   O29   S    
C112  O48   A    
C34   H58   S    
C7    C23   A    
C96   C100  A    
C135  O58   S    
C28   C91   S    
Cr2   O18   S    
C9    H37   S    
C14   H46   S    
Cr7   O7    S    
Cr8   O52   S    
C137  H74   S    
Cr11  O19   S    
C106  H34   S    
Cr5   O49   S    
C58   C62   A    
C55   C56   A    
C101  C102  A    
C45   O29   A    
C41   C42   A    
C96   C119  S    
O58   H71   S    
C48   O32   A    
C91   O39   A    
C15   C19   S    
C50   C54   A    
C89   O37   A    
C13   H43   S    
C115  O11   A    
C94   C98   A    
Cr9   O17   S    
C6    C22   A    
C138  H80   S    
C31   C40   A    
C32   C39   A    
C80   H20   S    
C51   H68   S    
C2    O22   A    
Cr6   O50   S    
C18   H54   S    
O60   H72   S    
C69   C73   A    
C56   H8    S    
C120  O16   A    
C124  C128  A    
Cr1   O45   S    
Cr3   O19   S    
C134  O55   D    
C64   C80   S    
C8    H4    S    
C111  O47   A    
Cr10  O14   S    
C140  H87   S    
C77   H17   S    
C78   H22   S    
C74   H14   S    
C58   C111  S    
C68   C84   S    
C49   H66   S    
C103  C135  S    
C54   H6    S    
C45   O33   A    
C139  H82   S    
C28   C39   A    
C69   H9    S    
C30   C37   A    
C116  O12   A    
N4    H85   S    
C14   H44   S    
C24   C132  A    
C65   C81   S    
N2    H77   S    
C77   C81   S    
C71   H11   S    
C4    O28   A    
Cr1   O21   S    
C114  O10   A    
C71   C87   A    
Cr5   O17   S    
C22   C46   S    
Cr8   O20   S    
C31   C35   A    
C46   O30   A    
C109  O49   A    
C32   C36   A    
C89   O1    A    
C101  C133  S    
Cr3   O47   S    
Cr12  O20   S    
C11   C123  A    
C119  O43   A    
C93   C102  A    
C6    C10   A    
C107  N3    S    
C26   C37   A    
C95   C120  S    
C99   C107  S    
C105  C106  S    
C28   C43   A    
Cr2   O2    S    
C79   C83   S    
C43   C51   A    
C12   H40   S    
Cr11  O35   S    
C4    C121  S    
C92   O4    A    
Cr1   O17   S    
C96   C103  A    
C103  C104  A    
Cr3   O43   S    
C84   H32   S    
C13   C125  S    
C3    O27   A    
C82   H26   S    
C19   H51   S    
Cr10  O38   S    
C83   H31   S    
C137  H75   S    
C14   C18   S    
C17   H49   S    
C72   C76   A    
C119  O15   A    
C63   C79   S    
C26   C89   S    
C7    C11   A    
Cr4   O20   S    
C117  O13   A    
Cr11  O11   S    
C57   C112  S    
C30   H62   S    
Cr4   O24   S    
C59   C110  S    
C13   H45   S    
C108  H36   S    
C16   H48   S    
C8    C24   A    
Cr3   O3    S    
C94   C101  A    
C52   H67   S    
C118  O42   A    
C133  O53   D    
Cr6   O30   S    
C3    C122  S    
Cr2   O46   S    
Cr12  O40   S    
C115  O7    A    
C128  C132  A    
C113  O5    A    
C72   C88   A    
C139  H84   S    
C19   C131  S    
C63   C67   A    
Cr12  O12   S    
C17   C129  S    
C11   H39   S    
Cr2   O42   S    
C2    O26   A    
N1    H73   S    
C122  C126  A    
C120  O44   A    
C99   C100  A    
C12   C124  A    
C33   C34   A    
C27   C92   S    
N4    C140  S    
C111  O51   A    
C78   H18   S    
Cr12  O36   S    
C68   C88   A    
C32   H64   S    
C93   C118  S    
C70   C86   A    
C59   C75   A    
C95   C104  A    
C75   H15   S    
C76   H16   S    
C70   H10   S    
Cr4   O44   S    
C79   H19   S    
C65   C85   A    
C67   C87   A    
C86   C114  S    
Cr1   O1    S    
N3    C139  S    
C16   H42   S    
C71   C75   A    
C35   H59   S    
C33   H57   S    
C138  H79   S    
Cr10  O10   S    
Cr6   O26   S    
Cr3   O23   S    
C109  O45   A    
C110  O50   A    
Cr6   O6    S    
Cr12  O16   S    
C36   H60   S    
C20   H52   S    
C52   C56   A    
C26   C41   A    
Cr4   O4    S    
