data_mof_unit_68343.cif
_audit_creation_date              2012-12-10T19:48:30-0500
_audit_creation_method            fapswitch 2.2
_symmetry_space_group_name_H-M    P1
_symmetry_Int_Tables_number       1
_space_group_crystal_system       triclinic
_cell_length_a                    10.849816
_cell_length_b                    10.720862
_cell_length_c                    9.493649
_cell_angle_alpha                 89.167276
_cell_angle_beta                  92.510762
_cell_angle_gamma                 86.34046
_cell_volume                      1100.81936657

loop_
_atom_site_label
_atom_site_type_symbol
_atom_type_description
_atom_site_fract_x
_atom_site_fract_y
_atom_site_fract_z
_atom_type_partial_charge
C1    C     C_R   0.502446 0.260097 0.501104 0.827555
C2    C     C_R   0.492519 0.739875 0.498835 0.813809
C3    C     C_R   0.871076 0.499592 0.507652 -0.088184
C4    C     C_R   0.127967 0.502608 0.493633 -0.096826
C5    C     C_R   0.948188 0.410394 0.585411 0.029545
C6    C     C_R   0.049944 0.583106 0.404531 0.012612
C7    C     C_3   0.506784 0.036490 0.633835 0.120086
C8    C     C_3   0.479999 0.964221 0.367067 0.137287
C9    C     C_3   0.596877 0.945898 0.559379 0.089646
C10   C     C_3   0.389636 0.054854 0.441933 0.084903
C11   C     C_3   0.487775 0.875927 0.497643 -0.140856
C12   C     C_3   0.499805 0.124468 0.502949 -0.128498
C13   C     C_3   0.397346 0.967464 0.572678 0.079191
C14   C     C_3   0.589862 0.032436 0.428574 0.130166
C15   C     C_3   0.508817 0.613242 0.050109 -0.230304
C16   C     C_3   0.491937 0.386562 0.950160 -0.220553
C17   C     C_3   0.409491 0.568795 0.945569 0.251595
C18   C     C_3   0.590917 0.431455 0.054766 0.251436
C19   C     C_3   0.599096 0.541940 0.955627 0.277800
C20   C     C_3   0.401131 0.457958 0.044519 0.241040
C21   C     C_R   0.262308 0.504890 0.497035 0.828839
C22   C     C_R   0.737364 0.495673 0.502911 0.845043
C23   C     C_R   0.121269 0.852386 0.171071 0.651724
C24   C     C_R   0.909861 0.069561 0.624985 0.716662
C25   C     C_R   0.123586 0.775663 0.292183 -0.326875
C26   C     C_R   0.909022 0.188006 0.562199 -0.337679
C27   C     C_R   0.092741 0.650819 0.280820 -0.082475
C28   C     C_R   0.901757 0.295352 0.645203 -0.121338
C29   C     C_R   0.064820 0.602951 0.146510 0.690213
C30   C     C_R   0.888274 0.282704 0.791108 0.674226
C31   C     C_R   0.061962 0.680279 0.026807 -0.289188
C32   C     C_R   0.883574 0.163707 0.852633 -0.344750
C33   C     C_R   0.088800 0.805208 0.039331 -0.340350
C34   C     C_R   0.895517 0.057357 0.769938 -0.290698
C35   C     C_R   0.921871 0.588565 0.421762 0.145058
C36   C     C_R   0.076852 0.417664 0.585277 0.117208
Cu1   Cu    Cu3+1 0.500030 0.499990 0.643150 0.970569
Cu2   Cu    Cu3+1 0.499970 0.500010 0.356850 0.975503
H1    H     H_    0.085626 0.865242 0.946439 0.194445
H2    H     H_    0.896662 0.965485 0.818870 0.184425
H3    H     H_    0.517777 0.707264 0.094769 0.164474
H4    H     H_    0.483329 0.292468 0.905733 0.172712
H5    H     H_    0.140516 0.815484 0.394903 0.210828
H6    H     H_    0.926280 0.195828 0.450931 0.211163
H7    H     H_    0.036429 0.644031 0.924483 0.224657
H8    H     H_    0.877531 0.152988 0.965518 0.203002
N1    N     N_3   0.500090 0.499970 0.858290 -0.193362
N2    N     N_3   0.499910 0.500030 0.141710 -0.190830
O1    O     O_R   0.500060 0.316850 0.620870 -0.564221
O2    O     O_R   0.499940 0.683150 0.379130 -0.564673
O3    O     O_R   0.500000 0.316860 0.379090 -0.603034
O4    O     O_R   0.500000 0.683140 0.620910 -0.617986
O5    O     O_R   0.319670 0.500010 0.620890 -0.552879
O6    O     O_R   0.680330 0.499990 0.379110 -0.542228
O7    O     O_R   0.319620 0.500010 0.379110 -0.562394
O8    O     O_R   0.680380 0.499990 0.620890 -0.554485
N3    N     N_3   0.306432 0.646841 0.883111 -0.564099
H9    H     H_    0.330023 0.675686 0.783380 0.257093
H10   H     H_    0.301416 0.728370 0.941742 0.195223
N4    N     N_3   0.696759 0.358615 0.119027 -0.485771
H11   H     H_    0.664747 0.305161 0.200440 0.229497
H12   H     H_    0.727487 0.295638 0.043692 0.221427
N5    N     N_3   0.712327 0.587151 0.903418 -0.459243
H13   H     H_    0.687954 0.670535 0.848446 0.191747
H14   H     H_    0.767648 0.609920 0.990965 0.232144
N6    N     N_3   0.289305 0.410189 0.097408 -0.489812
H15   H     H_    0.315281 0.327432 0.153544 0.246150
H16   H     H_    0.234966 0.385369 0.009988 0.246423
F1    F     F_    0.144254 0.974514 0.181087 -0.667618
F2    F     F_    0.932364 0.966705 0.546380 -0.683179
F3    F     F_    0.027545 0.484951 0.133628 -0.619437
F4    F     F_    0.891928 0.383903 0.874771 -0.625082
N7    N     N_3   0.841154 0.682515 0.348755 -0.587832
H17   H     H_    0.841776 0.667816 0.240326 0.235808
H18   H     H_    0.873176 0.770495 0.369839 0.254348
N8    N     N_3   0.157574 0.332172 0.670547 -0.565310
H19   H     H_    0.135562 0.341685 0.776039 0.259541
H20   H     H_    0.145237 0.240500 0.639896 0.203377
N9    N     N_3   0.708843 0.885670 0.625843 -0.529853
H21   H     H_    0.734469 0.807577 0.566924 0.249060
H22   H     H_    0.686574 0.853042 0.724930 0.197177
N10   N     N_3   0.276339 0.115596 0.377867 -0.500940
H23   H     H_    0.202909 0.064690 0.408832 0.285871
H24   H     H_    0.262703 0.203492 0.422678 0.208692
N11   N     N_3   0.522002 0.074425 0.779856 -0.590155
H25   H     H_    0.523952 0.993798 0.843304 0.206920
H26   H     H_    0.609149 0.110114 0.792172 0.230257
N12   N     N_3   0.465625 0.926653 0.220865 -0.591790
H27   H     H_    0.453545 0.008138 0.158716 0.235065
H28   H     H_    0.383383 0.881422 0.210610 0.256020
N13   N     N_3   0.291727 0.932674 0.650570 -0.584735
H29   H     H_    0.242079 0.015314 0.676280 0.234879
H30   H     H_    0.326474 0.892166 0.745964 0.217199
N14   N     N_3   0.695800 0.065394 0.350264 -0.556551
H31   H     H_    0.748570 0.982562 0.332916 0.265303
H32   H     H_    0.661947 0.097833 0.250952 0.199432

loop_
_geom_bond_atom_site_label_1
_geom_bond_atom_site_label_2
_ccdc_geom_bond_type
N6    H16   S    
C4    C36   A    
C27   C29   A    
N7    H17   S    
C23   F1    S    
C25   H5    S    
N5    H14   S    
C24   F2    S    
C22   O6    A    
N11   H25   S    
C15   C19   S    
C33   H1    S    
C34   H2    S    
N8    H20   S    
C20   N6    S    
C24   C26   A    
C19   N1    S    
N3    H10   S    
C5    C36   A    
C17   C20   S    
C6    C35   A    
N4    H12   S    
C18   C19   S    
C9    N9    S    
C36   N8    S    
Cu1   O8    S    
Cu2   O7    S    
C19   N5    S    
C23   C33   A    
C31   C33   A    
Cu1   N1    S    
C2    O2    A    
Cu2   N2    S    
Cu1   O5    S    
N6    H15   S    
C13   N13   S    
N7    H18   S    
C1    C12   S    
C15   N2    S    
C2    C11   S    
C10   C12   S    
C16   N1    S    
N11   H26   S    
C7    C12   S    
C26   H6    S    
N8    H19   S    
C15   H3    S    
C4    C6    A    
N13   H29   S    
C21   O7    A    
Cu1   O4    S    
C22   O8    A    
Cu2   O3    S    
C10   N10   S    
C24   C34   A    
N9    H21   S    
N4    H11   S    
C8    N12   S    
C32   C34   A    
C9    C14   S    
Cu1   Cu2   S    
N13   H30   S    
C5    C28   S    
Cu1   O1    S    
C6    C27   S    
Cu2   O6    S    
C3    C35   A    
C16   C20   S    
C16   C18   S    
N14   H32   S    
C9    C11   S    
C20   N2    S    
C2    O4    A    
C18   N4    S    
C12   C14   S    
N10   H24   S    
C16   H4    S    
N9    H22   S    
C15   C17   S    
C35   N7    S    
C8    C14   S    
C32   H8    S    
C17   N1    S    
N12   H28   S    
C3    C5    A    
C10   C13   S    
C18   N2    S    
C30   F4    S    
Cu2   O2    S    
C25   C27   A    
C26   C28   A    
C1    O3    A    
C28   C30   A    
C29   C31   A    
C30   C32   A    
C4    C21   S    
C11   C13   S    
N3    H9    S    
C7    N11   S    
C8    C11   S    
C21   O5    A    
C23   C25   A    
N14   H31   S    
N5    H13   S    
C7    C9    S    
C7    C13   S    
N12   H27   S    
C8    C10   S    
N10   H23   S    
C31   H7    S    
C3    C22   S    
C1    O1    A    
C14   N14   S    
C17   N3    S    
C29   F3    S    
