data_mof_unit_59240.cif
_audit_creation_date              2012-12-10T18:42:32-0500
_audit_creation_method            fapswitch 2.2
_symmetry_space_group_name_H-M    P1
_symmetry_Int_Tables_number       1
_space_group_crystal_system       triclinic
_cell_length_a                    8.58688
_cell_length_b                    10.641242
_cell_length_c                    9.901001
_cell_angle_alpha                 89.156319
_cell_angle_beta                  98.249834
_cell_angle_gamma                 90.892263
_cell_volume                      895.162696611

loop_
_atom_site_label
_atom_site_type_symbol
_atom_type_description
_atom_site_fract_x
_atom_site_fract_y
_atom_site_fract_z
_atom_type_partial_charge
C1    C     C_R   0.503365 0.260355 0.501272 0.907150
C2    C     C_R   0.496635 0.739645 0.498728 0.907151
C3    C     C_R   0.201428 0.499627 0.464423 0.973773
C4    C     C_R   0.798572 0.500373 0.535577 0.973773
C5    C     C_2   0.036439 0.498132 0.445299 -0.336070
C6    C     C_2   0.963561 0.501868 0.554701 -0.336070
C7    C     C_R   0.399165 0.067143 0.402585 -0.215135
C8    C     C_R   0.600835 0.932857 0.597415 -0.215135
C9    C     C_R   0.394488 0.938196 0.399318 0.177513
C10   C     C_R   0.605512 0.061804 0.600682 0.177513
C11   C     C_R   0.496597 0.872057 0.497402 -0.102716
C12   C     C_R   0.503403 0.127943 0.502598 -0.102716
C13   C     C_R   0.594668 0.581850 0.080376 0.235597
C14   C     C_R   0.405332 0.418149 0.919624 0.235597
C15   C     C_R   0.594071 0.581270 0.937361 -0.118663
C16   C     C_R   0.405928 0.418730 0.062639 -0.118663
H1    H     H_    0.975373 0.493395 0.341326 0.199697
H2    H     H_    0.024627 0.506605 0.658674 0.199697
H3    H     H_    0.319771 0.120142 0.328570 0.176259
H4    H     H_    0.680229 0.879857 0.671430 0.176259
H5    H     H_    0.669166 0.646138 0.890445 0.165479
H6    H     H_    0.330833 0.353862 0.109555 0.165479
N1    N     N_R   0.499960 0.499970 0.857200 -0.115611
N2    N     N_R   0.500040 0.500030 0.142800 -0.115611
O1    O     O_R   0.499990 0.316750 0.614620 -0.576691
O2    O     O_R   0.500010 0.683250 0.385380 -0.576691
O3    O     O_R   0.499990 0.316780 0.385290 -0.628829
O4    O     O_R   0.500010 0.683220 0.614710 -0.628829
O5    O     O_R   0.271750 0.499990 0.587840 -0.601688
O6    O     O_R   0.728250 0.500010 0.412160 -0.601688
O7    O     O_R   0.271750 0.500010 0.358510 -0.614762
O8    O     O_R   0.728250 0.499990 0.641490 -0.614762
Zn1   Zn    Zn3+2 0.500000 0.499980 0.653120 1.004775
Zn2   Zn    Zn3+2 0.500000 0.500020 0.346880 1.004775
I1    I     I_    0.223984 0.852288 0.250501 -0.262688
I2    I     I_    0.776016 0.147712 0.749499 -0.262689
I3    I     I_    0.748155 0.714852 0.188686 -0.267389
I4    I     I_    0.251845 0.285147 0.811314 -0.267389

loop_
_geom_bond_atom_site_label_1
_geom_bond_atom_site_label_2
_ccdc_geom_bond_type
C14   N1    A    
C3    O7    A    
C7    C9    A    
C14   I4    S    
C13   I3    S    
O8    Zn1   S    
C2    O2    A    
O7    Zn2   S    
C16   N2    A    
C8    H4    S    
C1    O1    A    
C9    C11   A    
C3    O5    A    
C4    O8    A    
C1    C12   S    
C10   C12   A    
C8    C11   A    
C2    C11   S    
C15   N1    A    
C10   I2    S    
O4    Zn1   S    
C7    H3    S    
C13   C15   A    
O3    Zn2   S    
C5    C6    D    
C6    H2    S    
C14   C16   A    
C7    C12   A    
C5    H1    S    
O6    Zn2   S    
C9    I1    S    
O5    Zn1   S    
C15   H5    S    
C4    C6    S    
O1    Zn1   S    
C1    O3    A    
C2    O4    A    
C3    C5    S    
O2    Zn2   S    
C8    C10   A    
C4    O6    A    
C13   N2    A    
C16   H6    S    
N1    Zn1   S    
N2    Zn2   S    
