data_mof_unit_66799.cif
_audit_creation_date              2013-03-05T15:41:07-0500
_audit_creation_method            fapswitch 2.2
_symmetry_space_group_name_H-M    P1
_symmetry_Int_Tables_number       1
_space_group_crystal_system       triclinic
_cell_length_a                    8.704908
_cell_length_b                    14.75325
_cell_length_c                    15.276235
_cell_angle_alpha                 95.546943
_cell_angle_beta                  98.889685
_cell_angle_gamma                 92.002591
_cell_volume                      1926.734429

loop_
_atom_site_label
_atom_site_type_symbol
_atom_site_description
_atom_site_fract_x
_atom_site_fract_y
_atom_site_fract_z
_atom_type_partial_charge
P1    P     P_3+3 0.947560 0.714050 0.560480 0.492474
O1    O     O_2   0.113690 0.728200 0.532750 -0.342112
O2    O     O_3   0.871900 0.612110 0.540440 -0.411481
O3    O     O_3   0.325660 0.668890 0.372600 -0.392085
O4    O     O_2   0.259600 0.831683 0.439405 -0.341279
O5    O     O_3   0.988405 0.737982 0.676174 -0.550584
O6    O     O_3   0.291403 0.814499 0.270985 -0.552383
H1    H     H_    0.177345 0.691718 0.217077 0.191742
C1    C     C_3   0.265434 0.758082 0.112437 -0.652300
H2    H     H_    0.144190 0.742955 0.078609 0.280292
P2    P     P_3+3 0.325150 0.423860 0.297970 0.573983
P3    P     P_3+3 0.846373 0.610843 0.213829 0.504716
O7    O     O_2   0.147570 0.451710 0.282630 -0.332055
O8    O     O_3   0.905540 0.621350 0.329600 -0.360001
O9    O     O_2   0.951784 0.538841 0.179400 -0.324248
O10   O     O_3   0.308584 0.308485 0.247732 -0.546057
O11   O     O_3   0.911775 0.704716 0.164044 -0.526873
C2    C     C_3   0.848162 0.788183 0.188915 0.357549
C3    C     C_3   0.898042 0.856296 0.127186 -0.897344
H3    H     H_    0.025992 0.864789 0.139358 0.240033
C4    C     C_3   0.778085 0.273697 0.243969 0.157964
C5    C     C_3   0.824639 0.197115 0.176254 -0.588752
H4    H     H_    0.947810 0.185984 0.192099 0.157290
H5    H     H_    0.766437 0.133029 0.186385 0.283402
Ba1   Ba    Ba6+2 0.142880 0.544780 0.454020 1.655483
C6    C     C_3   0.076687 0.669262 0.712945 0.280621
H6    H     H_    0.175677 0.654520 0.676839 0.139984
H7    H     H_    0.003204 0.605428 0.709525 0.108449
C7    C     C_3   0.144291 0.702647 0.809534 -0.647515
H8    H     H_    0.196707 0.772589 0.811701 0.227466
H9    H     H_    0.237524 0.658761 0.834844 0.161430
C8    C     C_3   0.293666 0.226331 0.288701 0.163038
C9    C     C_3   0.295005 0.143477 0.213411 -0.761431
H10   H     H_    0.246137 0.079627 0.233485 0.162960
P4    P     P_3+3 0.862730 0.285940 0.439440 0.565229
O12   O     O_2   0.696600 0.271740 0.467230 -0.302216
O13   O     O_3   0.938380 0.387880 0.459490 -0.358382
O14   O     O_3   0.484630 0.331100 0.627330 -0.376066
O15   O     O_3   0.796507 0.236272 0.327453 -0.560477
P5    P     P_3+3 0.944027 0.396370 0.786862 0.522881
O16   O     O_3   0.389110 0.548970 0.605210 -0.380621
O17   O     O_3   0.904740 0.378630 0.670330 -0.434922
O18   O     O_2   0.809363 0.449825 0.817731 -0.318119
O19   O     O_3   0.917965 0.290839 0.827751 -0.491498
Ba2   Ba    Ba6+2 0.667290 0.455210 0.545900 1.613972
P6    P     P_3+3 0.365659 0.785380 0.377776 0.517111
C10   C     C_3   0.278893 0.735304 0.209411 0.355616
H11   H     H_    0.378225 0.691008 0.221821 0.101944
H12   H     H_    0.338394 0.712272 0.076207 0.187307
O20   O     O_3   0.421180 0.451020 0.394720 -0.360569
C11   C     C_3   0.608092 0.739737 0.750747 0.243598
H13   H     H_    0.712209 0.701815 0.772574 0.118565
C12   C     C_3   0.605690 0.822495 0.821055 -0.633208
H14   H     H_    0.509932 0.865520 0.795510 0.183583
P7    P     P_3+3 0.483569 0.570416 0.718241 0.445346
O21   O     O_2   0.662730 0.548230 0.717350 -0.358914
O22   O     O_3   0.468193 0.687796 0.745738 -0.621996
H15   H     H_    0.862856 0.829647 0.056300 0.269740
C13   C     C_3   0.881777 0.221913 0.756381 0.419533
H16   H     H_    0.766138 0.232048 0.718417 0.155560
H17   H     H_    0.968723 0.222611 0.710314 0.041114
C14   C     C_3   0.881685 0.128882 0.792774 -0.650495
H18   H     H_    0.989955 0.122956 0.840400 0.251435
H19   H     H_    0.782805 0.119486 0.828943 0.256808
P8    P     P_3+3 0.447602 0.213513 0.620300 0.503535
C15   C     C_3   0.454402 0.251771 0.791052 0.202246
O23   O     O_2   0.574985 0.168582 0.573195 -0.311870
O24   O     O_3   0.494446 0.183089 0.728790 -0.524420
H20   H     H_    0.509469 0.318861 0.782644 0.110709
C16   C     C_3   0.523284 0.229665 0.884768 -0.549523
H21   H     H_    0.649624 0.225049 0.885862 0.182216
C17   C     C_R   0.011706 0.942626 0.544155 -0.156029
C18   C     C_R   0.826473 0.803245 0.502189 0.255594
C19   C     C_R   0.677875 0.770377 0.459068 -0.392947
C20   C     C_R   0.570610 0.827833 0.419504 0.292390
C21   C     C_R   0.618771 0.917371 0.409907 -0.247507
C22   C     C_R   0.761008 0.957868 0.457298 0.099841
C23   C     C_R   0.867351 0.900686 0.503459 0.036652
H22   H     H_    0.642573 0.699251 0.458660 0.140049
C24   C     C_R   0.940035 0.097367 0.501175 -0.020938
C25   C     C_R   0.051099 0.038201 0.541979 0.036879
C26   C     C_R   0.980709 0.195605 0.502585 0.210093
C27   C     C_R   0.134024 0.225857 0.540013 -0.385460
C28   C     C_R   0.246057 0.166643 0.573415 0.192653
C29   C     C_R   0.203176 0.074304 0.578048 -0.410195
C30   C     C_R   0.797508 0.054019 0.457281 -0.063795
H23   H     H_    0.169708 0.296811 0.539584 0.169784
H24   H     H_    0.094945 0.899656 0.577232 0.167082
H25   H     H_    0.713973 0.095308 0.422342 0.220013
C31   C     C_R   0.237744 0.471616 0.771665 -0.561171
C32   C     C_R   0.139879 0.453297 0.833169 0.294221
C33   C     C_R   0.192735 0.478279 0.925884 -0.252693
C34   C     C_R   0.353606 0.505303 0.957467 -0.010548
C35   C     C_R   0.447301 0.522531 0.891135 -0.185245
C36   C     C_R   0.387458 0.510763 0.799438 0.252273
C37   C     C_R   0.572537 0.560523 0.088325 -0.251778
C38   C     C_R   0.640801 0.567206 0.178364 0.272298
C39   C     C_R   0.412497 0.488840 0.215639 0.245813
C40   C     C_R   0.351470 0.475135 0.123427 -0.151042
C41   C     C_R   0.424106 0.515799 0.057638 0.096513
C42   C     C_R   0.556282 0.536724 0.241912 -0.423501
H26   H     H_    0.639519 0.590143 0.043736 0.164585
H27   H     H_    0.250675 0.428880 0.103989 0.187321
H28   H     H_    0.566348 0.548320 0.908636 0.172711
H29   H     H_    0.607919 0.544442 0.311486 0.182731
H30   H     H_    0.193395 0.460194 0.701073 0.162262
C43   C     C_2   0.800304 0.203883 0.078350 1.191767
O25   O     O_2   0.718855 0.145023 0.029584 -0.627188
O26   O     O_R   0.891797 0.265098 0.042303 -0.675307
H31   H     H_    0.884959 0.251277 0.975792 0.376004
C44   C     C_2   0.024942 0.701517 0.870198 1.146815
O27   O     O_2   0.016510 0.767305 0.923867 -0.600161
O28   O     O_R   0.927254 0.624084 0.867131 -0.813275
H32   H     H_    0.858298 0.628618 0.914778 0.356986
C45   C     C_2   0.146034 0.218766 0.319093 0.809447
O29   O     O_2   0.093144 0.288774 0.344752 -0.609062
O30   O     O_R   0.085203 0.132637 0.332319 -0.834093
H33   H     H_    0.972704 0.128441 0.338718 0.377086
C46   C     C_2   0.400134 0.222387 0.375651 1.027125
O31   O     O_2   0.419953 0.289922 0.429075 -0.537040
O32   O     O_R   0.438273 0.139362 0.407171 -0.777501
H34   H     H_    0.356629 0.089346 0.383020 0.275294
C47   C     C_2   0.201790 0.159540 0.123449 1.200929
O33   O     O_2   0.221165 0.230619 0.090870 -0.490616
O34   O     O_R   0.099585 0.091842 0.073729 -0.736577
H35   H     H_    0.100048 0.032983 0.102156 0.322221
C48   C     C_2   0.452184 0.117941 0.197542 0.603353
H36   H     H_    0.472761 0.090005 0.132216 0.124244
O35   O     O_2   0.558014 0.123534 0.259625 -0.576558
C49   C     C_2   0.614754 0.766497 0.659476 0.648840
H37   H     H_    0.613924 0.712514 0.606364 -0.039239
O36   O     O_2   0.616373 0.845975 0.643709 -0.537350
C50   C     C_2   0.572177 0.788293 0.906662 1.035239
O37   O     O_2   0.658997 0.736004 0.944028 -0.679081
O38   O     O_R   0.440624 0.813115 0.942836 -0.799972
H38   H     H_    0.378976 0.859567 0.909830 0.310711
C51   C     C_2   0.754407 0.882212 0.839703 1.139715
O39   O     O_2   0.767627 0.947088 0.897017 -0.601122
O40   O     O_R   0.875832 0.864805 0.791503 -0.773493
H39   H     H_    0.971806 0.906308 0.814348 0.332687
C52   C     C_2   0.314485 0.855126 0.103676 0.730729
H40   H     H_    0.420179 0.886724 0.142657 0.075875
O41   O     O_2   0.237346 0.898638 0.050432 -0.569802
C53   C     C_2   0.871531 0.053853 0.719205 0.607989
H41   H     H_    0.974595 0.017708 0.709405 0.035966
O42   O     O_2   0.748824 0.033728 0.669719 -0.452527
C54   C     C_2   0.280481 0.259610 0.780749 0.385163
H42   H     H_    0.219556 0.285584 0.721968 -0.005566
O43   O     O_2   0.207461 0.239753 0.838628 -0.586644
C55   C     C_2   0.502644 0.306319 0.953816 0.590827
H43   H     H_    0.390666 0.315576 0.975261 0.133087
O44   O     O_2   0.611950 0.359402 0.985735 -0.562192
C56   C     C_2   0.911996 0.824859 0.284297 0.617630
H44   H     H_    0.875859 0.889132 0.312104 0.034352
O45   O     O_2   0.005649 0.784197 0.330911 -0.496081
C57   C     C_2   0.459092 0.138249 0.904515 1.277712
O46   O     O_2   0.377904 0.133168 0.962554 -0.617515
O47   O     O_R   0.495622 0.058894 0.856447 -0.710298
H45   H     H_    0.446076 0.002503 0.875421 0.319780
C58   C     C_2   0.544251 0.954838 0.330298 0.664918
H46   H     H_    0.420935 0.964988 0.318969 0.022830
O48   O     O_2   0.619694 0.963516 0.270727 -0.583156
C59   C     C_2   0.320461 0.014443 0.619450 1.210391
O49   O     O_2   0.310477 0.989942 0.692462 -0.613033
O50   O     O_R   0.439390 0.983364 0.574738 -0.668840
H47   H     H_    0.430842 0.004566 0.513271 0.292546
C60   C     C_2   0.075538 0.494433 0.985294 1.074390
O51   O     O_2   0.083407 0.566187 0.033299 -0.650496
O52   O     O_R   0.955515 0.429785 0.986113 -0.678201
H48   H     H_    0.877958 0.452244 0.025220 0.384116
C61   C     C_2   0.674418 0.778172 0.173966 0.305030
H49   H     H_    0.609571 0.767867 0.107149 0.097708
O53   O     O_2   0.606179 0.777689 0.237319 -0.675986
C62   C     C_2   0.837460 0.949065 0.143503 1.180224
O54   O     O_2   0.908907 0.002436 0.202891 -0.634829
O55   O     O_R   0.700759 0.974867 0.093701 -0.719836
H50   H     H_    0.648624 0.924478 0.048264 0.307307
C63   C     C_2   0.615830 0.297857 0.221798 0.501673
H51   H     H_    0.569350 0.329668 0.277087 0.059409
O56   O     O_2   0.545713 0.292347 0.145790 -0.604863
C64   C     C_2   0.859863 0.360659 0.244475 1.042249
O57   O     O_2   0.935180 0.372868 0.185533 -0.536272
O58   O     O_R   0.826496 0.431445 0.304162 -0.822994
H52   H     H_    0.919962 0.471156 0.329752 0.400364

loop_
_geom_bond_atom_site_label_1
_geom_bond_atom_site_label_2
_geom_bond_distance
_ccdc_geom_bond_type
C15   O24   1.412002 S    
C61   H49   1.081459 S    
O50   H47   1.010880 S    
C37   H26   1.075820 S    
O30   H33   0.999455 S    
C18   C19   1.404762 A    
C40   H27   1.078048 S    
C54   H42   1.080732 S    
C16   C55   1.505313 S    
C20   C21   1.399986 A    
O3    Ba1   2.877415 S    
C47   O33   1.220775 D    
C60   O52   1.392161 S    
O3    P6    1.733347 S    
C12   H14   1.111013 S    
C4    C64   1.444088 S    
C61   O53   1.211710 D    
C6    H6    1.109442 S    
C7    H8    1.108995 S    
C27   C28   1.402344 A    
C16   C57   1.516664 S    
C5    H5    1.092517 S    
C57   O46   1.222292 D    
C54   O43   1.217520 D    
C2    C3    1.538448 S    
C52   O41   1.219349 D    
C47   O34   1.395838 S    
C15   H20   1.111940 S    
P2    Ba1   3.453608 S    
O19   C13   1.406795 S    
C5    C43   1.491348 S    
C39   C40   1.418998 A    
C64   O57   1.215979 D    
P5    C32   1.877419 S    
C9    C48   1.481097 S    
P1    O1    1.581042 D    
O52   H48   1.012168 S    
Ba1   O20   3.045183 S    
O16   P7    1.787470 S    
O14   Ba2   2.876878 S    
C14   H19   1.104003 S    
Ba1   O13   2.886093 S    
C62   O54   1.217845 D    
C11   C49   1.494342 S    
P5    O18   1.543381 D    
C21   C58   1.454823 S    
C59   O49   1.219808 D    
Ba2   O21   2.843539 S    
P8    O23   1.546784 D    
P3    O11   1.761500 S    
C17   C23   1.406496 A    
C18   C23   1.466401 A    
O14   P8    1.743310 S    
C16   H21   1.101913 S    
C11   O22   1.403844 S    
C56   O45   1.211976 D    
C1    H2    1.106096 S    
C17   C25   1.444192 A    
C46   O32   1.391213 S    
C35   H28   1.075777 S    
C13   H16   1.104014 S    
O8    Ba1   2.919190 S    
C4    C5    1.564100 S    
P1    Ba1   3.484010 S    
C43   O26   1.390889 S    
O7    Ba1   2.843226 S    
P6    C20   1.864082 S    
C17   H24   1.078476 S    
P4    C26   1.949207 S    
C63   H51   1.067518 S    
C64   O58   1.387555 S    
C3    H15   1.108054 S    
C42   H29   1.081667 S    
C13   H17   1.110701 S    
O32   H34   1.007665 S    
C19   C20   1.391259 A    
C11   H13   1.106208 S    
O6    P6    1.758612 S    
O38   H38   1.010315 S    
C1    H12   1.110300 S    
C21   C22   1.414830 A    
C31   H30   1.082591 S    
P7    C36   1.869057 S    
C24   C26   1.477208 A    
Ba1   O16   2.892313 S    
C32   C33   1.428065 A    
C1    C52   1.503999 S    
C53   H41   1.082208 S    
P8    C28   1.870896 S    
C45   O30   1.404110 S    
C22   C23   1.426076 A    
O2    Ba2   2.886631 S    
P1    O5    1.746722 S    
P1    O2    1.602746 S    
P4    O12   1.581523 D    
O6    C10   1.417301 S    
O47   H45   1.011109 S    
P4    O15   1.794218 S    
O58   H52   0.991021 S    
C48   O35   1.210161 D    
C14   H18   1.109669 S    
C50   O37   1.218472 D    
C51   O40   1.395815 S    
P2    O10   1.789751 S    
C10   H11   1.106103 S    
C4    O15   1.426928 S    
P3    O9    1.535021 D    
O2    Ba1   3.027619 S    
C43   O25   1.216711 D    
P8    O24   1.749915 S    
C38   C42   1.402832 A    
C37   C38   1.404208 A    
P7    O21   1.606547 D    
O11   C2    1.410525 S    
C15   C54   1.507431 S    
C12   C50   1.511660 S    
O12   Ba2   2.889671 S    
C44   O28   1.392777 S    
C34   C35   1.430852 A    
C28   C29   1.411187 A    
C46   O31   1.214826 D    
C34   C41   1.549048 S    
P3    C38   1.860819 S    
C2    C56   1.516885 S    
Ba1   Ba2   4.756860 S    
C53   O42   1.218790 D    
C4    C63   1.465388 S    
P3    O8    1.754123 S    
C22   C30   1.442851 A    
C1    C10   1.538353 S    
C19   H22   1.082221 S    
P7    O22   1.756758 S    
O34   H35   1.007597 S    
C29   C59   1.481135 S    
C12   C51   1.513615 S    
C8    C46   1.504959 S    
O13   Ba2   3.028361 S    
C48   H36   1.085682 S    
P4    Ba2   3.484622 S    
C2    C61   1.494156 S    
C60   O51   1.221658 D    
P2    C39   1.885920 S    
C50   O38   1.391629 S    
O28   H32   1.011427 S    
C51   O39   1.222738 D    
O55   H50   1.009795 S    
C13   C14   1.529849 S    
C44   O27   1.220385 D    
P4    O13   1.602720 S    
C55   H43   1.084193 S    
C7    C44   1.495919 S    
C14   C53   1.489332 S    
C24   C25   1.436346 A    
C30   H25   1.076364 S    
C31   C36   1.393247 A    
C27   H23   1.082385 S    
C63   O56   1.219255 D    
O40   H39   1.013657 S    
O5    C6    1.401826 S    
O10   C8    1.427704 S    
C39   C42   1.398172 A    
O4    P6    1.547167 D    
C6    H7    1.112137 S    
C40   C41   1.433933 A    
C49   O36   1.219663 D    
P1    C18   1.915461 S    
C8    C9    1.597021 S    
C3    H3    1.101153 S    
C57   O47   1.393892 S    
C49   H37   1.079594 S    
H1    C10   1.102471 S    
C7    H9    1.102489 S    
P2    O20   1.588712 S    
C52   H40   1.079557 S    
C58   H46   1.078660 S    
P2    O7    1.601355 D    
C33   C60   1.477354 S    
C31   C32   1.400687 A    
C15   C16   1.534295 S    
Ba2   O20   2.891565 S    
C37   C41   1.420560 A    
P5    O17   1.752136 S    
C33   C34   1.437959 A    
C9    H10   1.109286 S    
O1    Ba1   2.889125 S    
C55   O44   1.219481 D    
C8    C45   1.436647 S    
C35   C36   1.408835 A    
C62   O55   1.395550 S    
C3    C62   1.496178 S    
C24   C30   1.415071 A    
P5    O19   1.752928 S    
C6    C7    1.528709 S    
C26   C27   1.407283 A    
C9    C47   1.528051 S    
O16   Ba2   3.044343 S    
C5    H4    1.083938 S    
C59   O50   1.392730 S    
C11   C12   1.549176 S    
C56   H44   1.078344 S    
O26   H31   1.008898 S    
O17   Ba2   2.919944 S    
C25   C29   1.417161 A    
C45   O29   1.201305 D    
C58   O48   1.215395 D    
