data_mof_unit_30559.cif
_audit_creation_date              2012-12-10T17:31:11-0500
_audit_creation_method            fapswitch 2.2
_symmetry_space_group_name_H-M    P1
_symmetry_Int_Tables_number       1
_space_group_crystal_system       triclinic
_cell_length_a                    12.02354
_cell_length_b                    12.800541
_cell_length_c                    15.443914
_cell_angle_alpha                 86.189921
_cell_angle_beta                  115.74752
_cell_angle_gamma                 94.532409
_cell_volume                      2132.88824298

loop_
_atom_site_label
_atom_site_type_symbol
_atom_type_description
_atom_site_fract_x
_atom_site_fract_y
_atom_site_fract_z
_atom_type_partial_charge
C1    C     C_R   0.474947 0.299847 0.495834 0.879491
C2    C     C_R   0.524335 0.700109 0.502642 0.895544
C3    C     C_R   0.640508 0.479644 0.112929 -0.212015
C4    C     C_R   0.349943 0.441957 0.890408 -0.220097
C5    C     C_R   0.729372 0.494161 0.078208 -0.248230
C6    C     C_R   0.263184 0.429883 0.928095 -0.237579
C7    C     C_R   0.539360 0.811534 0.499362 -0.042794
C8    C     C_R   0.457781 0.188243 0.494441 -0.082237
C9    C     C_R   0.438045 0.033151 0.583085 -0.215560
C10   C     C_R   0.543206 0.963274 0.401565 -0.224300
C11   C     C_R   0.423159 0.138577 0.562427 -0.256468
C12   C     C_R   0.556060 0.857651 0.421632 -0.275774
C13   C     C_R   0.491383 0.131865 0.435278 0.097199
C14   C     C_R   0.516446 0.870020 0.563034 0.101958
C15   C     C_R   0.508283 0.024040 0.457065 0.125013
C16   C     C_R   0.489342 0.975709 0.536378 0.104376
C17   C     C_R   0.024235 0.623604 0.440425 -0.339388
C18   C     C_R   0.977270 0.377336 0.561987 -0.336109
C19   C     C_R   0.139465 0.608339 0.441562 0.018057
C20   C     C_R   0.860437 0.391551 0.558416 0.000945
C21   C     C_R   0.149309 0.443261 0.522758 -0.061637
C22   C     C_R   0.853970 0.558773 0.481903 -0.076603
C23   C     C_R   0.576197 0.492885 0.680147 0.864396
C24   C     C_R   0.423487 0.505586 0.319466 0.881021
C25   C     C_R   0.032516 0.454710 0.522175 0.097118
C26   C     C_R   0.969877 0.546650 0.481287 0.102007
C27   C     C_R   0.623572 0.480770 0.784027 -0.107051
C28   C     C_R   0.373203 0.498552 0.215347 -0.116488
C29   C     C_R   0.780121 0.519128 0.942876 -0.213523
C30   C     C_R   0.214965 0.433170 0.065355 -0.210574
C31   C     C_R   0.742023 0.521413 0.844021 -0.242921
C32   C     C_R   0.254577 0.452099 0.162497 -0.251775
C33   C     C_R   0.546465 0.431511 0.823317 0.101162
C34   C     C_R   0.449712 0.529253 0.169796 0.104905
C35   C     C_R   0.570559 0.457182 0.917524 0.087063
C36   C     C_R   0.423076 0.482075 0.082707 0.040508
C37   C     C_R   0.693993 0.490433 0.979880 0.141471
C38   C     C_R   0.299713 0.446870 0.025136 0.142137
C39   C     C_R   0.477760 0.454886 0.951440 0.059407
C40   C     C_R   0.514085 0.473848 0.049467 0.068522
H1    H     H_    0.825402 0.509012 0.128118 0.149835
H2    H     H_    0.166857 0.411928 0.880570 0.149893
H3    H     H_    0.818399 0.330666 0.588312 0.143033
H4    H     H_    0.180560 0.668525 0.410278 0.138060
H5    H     H_    0.978086 0.695014 0.407765 0.148264
H6    H     H_    0.023307 0.305920 0.594768 0.145283
H7    H     H_    0.192822 0.431359 0.195966 0.169187
H8    H     H_    0.804498 0.554533 0.814498 0.167699
H9    H     H_    0.873626 0.546749 0.989458 0.145370
H10   H     H_    0.120927 0.403130 0.023352 0.145582
H11   H     H_    0.671025 0.474299 0.189706 0.175607
H12   H     H_    0.314776 0.442198 0.813583 0.160406
H13   H     H_    0.573481 0.810619 0.373545 0.152031
H14   H     H_    0.390201 0.182595 0.603299 0.154085
H15   H     H_    0.407220 0.998990 0.635087 0.140820
H16   H     H_    0.555781 0.994565 0.339596 0.165748
H17   H     H_    0.807184 0.630637 0.453681 0.131101
H18   H     H_    0.199567 0.373848 0.555814 0.116904
N1    N     N_R   0.799120 0.480200 0.517090 -0.097338
N2    N     N_R   0.200880 0.519800 0.482910 -0.095646
O1    O     O_R   0.580150 0.341050 0.504560 -0.616938
O2    O     O_R   0.419850 0.658950 0.495440 -0.630263
O3    O     O_R   0.388090 0.353760 0.493600 -0.628959
O4    O     O_R   0.611910 0.646240 0.506400 -0.620252
O5    O     O_R   0.650890 0.490020 0.640860 -0.611164
O6    O     O_R   0.349110 0.509980 0.359140 -0.617660
O7    O     O_R   0.458830 0.502730 0.629890 -0.613281
O8    O     O_R   0.541170 0.497270 0.370110 -0.601665
Zn1   Zn    Zn3+2 0.628240 0.491510 0.507320 0.928955
Zn2   Zn    Zn3+2 0.371760 0.508490 0.492680 0.925491
C41   C     C_3   0.508698 0.640994 0.185367 -0.375334
C42   C     C_3   0.646845 0.650336 0.252097 -0.879488
H19   H     H_    0.668898 0.721088 0.295605 0.234542
H20   H     H_    0.675916 0.580782 0.301025 0.278359
H21   H     H_    0.701779 0.659615 0.209721 0.253361
H22   H     H_    0.493129 0.680275 0.114890 0.205998
H23   H     H_    0.459989 0.688003 0.214982 0.185279
C43   C     C_3   0.465663 0.334855 0.773699 -0.387923
C44   C     C_3   0.480792 0.239574 0.842399 -0.872896
H24   H     H_    0.580278 0.224343 0.884032 0.265111
H25   H     H_    0.440088 0.251158 0.892871 0.270057
H26   H     H_    0.432483 0.169400 0.800320 0.240484
H27   H     H_    0.367127 0.351192 0.731893 0.191978
H28   H     H_    0.494688 0.309748 0.719499 0.196418
C45   C     C_3   0.526815 0.818552 0.658757 -0.439576
C46   C     C_3   0.658232 0.785583 0.722307 -0.864438
H29   H     H_    0.685231 0.724559 0.688558 0.255964
H30   H     H_    0.724974 0.854576 0.736011 0.264661
H31   H     H_    0.663640 0.752744 0.792350 0.252620
H32   H     H_    0.505385 0.870130 0.703169 0.205740
H33   H     H_    0.460736 0.749315 0.645715 0.228220
C47   C     C_3   0.499974 0.185827 0.346679 -0.407330
C48   C     C_3   0.633419 0.208424 0.360157 -0.823062
H34   H     H_    0.633134 0.234819 0.290100 0.240440
H35   H     H_    0.679553 0.271758 0.411269 0.282281
H36   H     H_    0.688863 0.138299 0.387493 0.246032
H37   H     H_    0.447823 0.137329 0.282860 0.191854
H38   H     H_    0.453090 0.260995 0.327169 0.199283

loop_
_geom_bond_atom_site_label_1
_geom_bond_atom_site_label_2
_ccdc_geom_bond_type
C48   H34   S    
C5    C37   A    
C1    C8    S    
C2    C7    S    
C22   H17   S    
C45   H33   S    
C47   H38   S    
C29   H9    S    
C45   C46   S    
C27   C33   A    
C30   C38   A    
C8    C13   A    
C4    H12   S    
C17   C26   A    
C35   C37   A    
C9    C16   A    
C17   H5    S    
C10   C15   A    
C41   H22   S    
C46   H30   S    
C33   C43   S    
C15   C16   A    
C1    O3    A    
O2    Zn2   S    
C23   O7    A    
C36   C40   A    
C5    H1    S    
C17   C19   A    
C43   H27   S    
C7    C14   A    
O8    Zn1   S    
C6    C38   A    
C9    H15   S    
C23   C27   S    
C10   H16   S    
C34   C36   A    
C12   H13   S    
C24   O6    A    
C30   H10   S    
C28   C34   A    
C22   N1    A    
C18   C25   A    
C42   H21   S    
C18   H6    S    
C2    O4    A    
C47   H37   S    
C7    C12   A    
O3    Zn2   S    
C27   C31   A    
C28   C32   A    
C21   N2    A    
C4    C6    A    
C39   C40   A    
C44   H25   S    
C3    H11   S    
C46   H29   S    
C25   C26   A    
C35   C39   A    
C4    C39   A    
N2    Zn2   S    
O4    Zn1   S    
C20   N1    A    
C9    C11   A    
C11   H14   S    
C10   C12   A    
N1    Zn1   S    
C42   H20   S    
C3    C40   A    
C48   H36   S    
C31   H8    S    
C13   C15   A    
C13   C47   S    
C6    H2    S    
C32   H7    S    
C14   C16   A    
C41   H23   S    
C20   H3    S    
C19   H4    S    
O1    Zn1   S    
C21   C25   A    
C43   C44   S    
C24   C28   S    
C14   C45   S    
C42   H19   S    
C3    C5    A    
C46   H31   S    
C1    O1    A    
C44   H26   S    
C45   H32   S    
C19   N2    A    
O7    Zn2   S    
C23   O5    A    
C36   C38   A    
C41   C42   S    
C29   C31   A    
C30   C32   A    
O6    Zn2   S    
C8    C11   A    
O5    Zn1   S    
C47   C48   S    
C33   C35   A    
C18   C20   A    
C24   O8    A    
C44   H24   S    
C43   H28   S    
C21   H18   S    
C48   H35   S    
C22   C26   A    
C29   C37   A    
C34   C41   S    
C2    O2    A    
