data_mof_unit_51327.cif
_audit_creation_date              2012-12-10T17:57:25-0500
_audit_creation_method            fapswitch 2.2
_symmetry_space_group_name_H-M    P1
_symmetry_Int_Tables_number       1
_space_group_crystal_system       triclinic
_cell_length_a                    9.50995
_cell_length_b                    10.812285
_cell_length_c                    13.454531
_cell_angle_alpha                 90.145663
_cell_angle_beta                  72.464229
_cell_angle_gamma                 89.845811
_cell_volume                      1319.14927346

loop_
_atom_site_label
_atom_site_type_symbol
_atom_type_description
_atom_site_fract_x
_atom_site_fract_y
_atom_site_fract_z
_atom_type_partial_charge
C1    C     C_R   0.500986 0.737902 0.496592 0.824722
C2    C     C_R   0.433775 0.482701 0.979552 0.082598
C3    C     C_R   0.471230 0.453896 0.871748 0.084919
C4    C     C_R   0.542658 0.467246 0.031609 0.072498
C5    C     C_R   0.681093 0.412999 0.978196 0.168403
C6    C     C_R   0.708350 0.371528 0.876137 -0.248508
C7    C     C_R   0.604230 0.389616 0.824262 -0.207050
C8    C     C_R   0.518766 0.505045 0.135108 -0.239878
C9    C     C_R   0.760723 0.431901 0.132563 -0.199391
C10   C     C_R   0.373382 0.488798 0.814959 -0.103604
C11   C     C_R   0.596407 0.935296 0.537562 -0.198864
C12   C     C_R   0.421323 0.493610 0.700159 0.783048
C13   C     C_R   0.597091 0.063217 0.538983 -0.178681
C14   C     C_R   0.501487 0.128697 0.497215 -0.054916
C15   C     C_R   0.407888 0.066366 0.451649 -0.192625
C16   C     C_R   0.408205 0.938228 0.447899 0.155117
C17   C     C_R   0.501354 0.871918 0.493318 -0.073001
C18   C     C_R   0.896470 0.573153 0.567929 -0.005987
C19   C     C_R   0.045327 0.572989 0.567999 0.004328
C20   C     C_R   0.103554 0.426928 0.431990 -0.008712
C21   C     C_R   0.954653 0.426971 0.432012 -0.023647
C22   C     C_R   0.500325 0.262224 0.499593 0.791955
C23   C     C_R   0.578771 0.498429 0.299947 0.811878
C24   C     C_R   0.789723 0.397919 0.028417 -0.198781
C25   C     C_R   0.623482 0.482677 0.186766 -0.046775
C26   C     C_R   0.231043 0.531003 0.868741 -0.191882
C27   C     C_R   0.188192 0.545544 0.976127 -0.150125
C28   C     C_R   0.288478 0.524440 0.031061 -0.174614
Cu1   Cu    Cu3+1 0.359340 0.499980 0.500000 0.963073
Cu2   Cu    Cu3+1 0.640660 0.500020 0.500000 0.946665
H1    H     H_    0.843060 0.414062 0.171584 0.150870
H2    H     H_    0.670120 0.110855 0.574372 0.151180
H3    H     H_    0.336768 0.117475 0.416725 0.162775
H4    H     H_    0.817076 0.631864 0.622275 0.124306
H5    H     H_    0.078242 0.631505 0.622372 0.120877
H6    H     H_    0.182959 0.368227 0.377632 0.121869
H7    H     H_    0.921742 0.368451 0.377635 0.121249
H8    H     H_    0.810777 0.324684 0.836069 0.148325
H9    H     H_    0.895621 0.356748 0.987899 0.142356
H10   H     H_    0.418472 0.551241 0.178302 0.162351
H11   H     H_    0.153284 0.555688 0.827464 0.153038
H12   H     H_    0.247329 0.538946 0.114049 0.134802
H13   H     H_    0.077629 0.577207 0.016837 0.152950
H14   H     H_    0.628551 0.349248 0.747433 0.173117
H15   H     H_    0.668796 0.885888 0.572494 0.157975
N1    N     N_R   0.147940 0.499970 0.499970 -0.155612
N2    N     N_R   0.852060 0.500060 0.499990 -0.162617
O1    O     O_R   0.381250 0.680340 0.500010 -0.552690
O2    O     O_R   0.618820 0.680370 0.500010 -0.581521
O3    O     O_R   0.323240 0.499950 0.650980 -0.585153
O4    O     O_R   0.560810 0.499980 0.650980 -0.590918
O5    O     O_R   0.381180 0.319630 0.499990 -0.587007
O6    O     O_R   0.618750 0.319660 0.499990 -0.592053
O7    O     O_R   0.439190 0.500020 0.349020 -0.578221
O8    O     O_R   0.676760 0.500050 0.349020 -0.584188
I1    I     I_    0.272966 0.856866 0.364801 -0.400223

loop_
_geom_bond_atom_site_label_1
_geom_bond_atom_site_label_2
_ccdc_geom_bond_type
C12   O3    A    
Cu2   O4    S    
C16   I1    S    
C9    C24   A    
C23   O8    A    
C6    C7    A    
C11   C13   A    
Cu2   O8    S    
C13   H2    S    
C1    C17   S    
Cu1   N1    S    
C4    C8    A    
C18   N2    A    
C14   C22   S    
C6    H8    S    
C2    C3    A    
C19   N1    A    
C9    C25   A    
C1    O1    A    
C3    C10   A    
C19   H5    S    
C13   C14   A    
C8    C25   A    
C18   H4    S    
C10   C26   A    
C26   C27   A    
Cu1   Cu2   S    
C5    C24   A    
C10   C12   S    
C2    C4    A    
C28   H12   S    
Cu2   O2    S    
C22   O6    A    
C3    C7    A    
Cu1   O3    S    
C23   C25   S    
C5    C6    A    
Cu2   O6    S    
C11   H15   S    
Cu1   O7    S    
C9    H1    S    
Cu1   O1    S    
C15   C16   A    
C20   H6    S    
C27   H13   S    
Cu2   N2    S    
C4    C5    A    
C12   O4    A    
C21   H7    S    
C20   C21   A    
C23   O7    A    
C22   O5    A    
C18   C19   A    
C27   C28   A    
C14   C15   A    
C11   C17   A    
C2    C28   A    
C8    H10   S    
C7    H14   S    
C1    O2    A    
C24   H9    S    
C15   H3    S    
C20   N1    A    
C26   H11   S    
C16   C17   A    
C21   N2    A    
Cu1   O5    S    
