data_mof_unit_42240.cif
_audit_creation_date              2012-12-11T15:16:39-0500
_audit_creation_method            fapswitch 2.2
_symmetry_space_group_name_H-M    P1
_symmetry_Int_Tables_number       1
_space_group_crystal_system       triclinic
_cell_length_a                    25.151997
_cell_length_b                    7.2273
_cell_length_c                    21.939509
_cell_angle_alpha                 89.999815
_cell_angle_beta                  110.025821
_cell_angle_gamma                 90.000067
_cell_volume                      3747.05432164

loop_
_atom_site_label
_atom_site_type_symbol
_atom_type_description
_atom_site_fract_x
_atom_site_fract_y
_atom_site_fract_z
_atom_type_partial_charge
O1    O     O_R   0.554350 0.505270 0.581390 -0.539051
O2    O     O_R   0.445650 0.005270 0.418610 -0.539051
O3    O     O_R   0.553380 0.177580 0.454800 -0.543193
O4    O     O_R   0.446620 0.677580 0.545200 -0.543194
C1    C     C_R   0.565768 0.344555 0.438163 0.738886
C2    C     C_R   0.434232 0.844555 0.561837 0.738887
O5    O     O_R   0.560970 0.175640 0.583140 -0.530220
O6    O     O_R   0.439030 0.675640 0.416860 -0.530215
O7    O     O_R   0.453290 0.004120 0.547860 -0.541895
O8    O     O_R   0.546710 0.504120 0.452140 -0.541896
C3    C     C_R   0.576746 0.344370 0.607000 0.774480
C4    C     C_R   0.423254 0.844371 0.392999 0.774486
O9    O     O_3   0.464660 0.338800 0.488280 -0.385214
O10   O     O_3   0.535340 0.838800 0.511720 -0.385217
V1    V     V_3+5 0.506560 0.064420 0.502170 1.405971
V2    V     V_3+5 0.493440 0.564420 0.497830 1.405976
C5    C     C_R   0.143529 0.899584 0.287917 -0.132012
C6    C     C_R   0.856471 0.399573 0.712084 -0.132013
H1    H     H_    0.058931 0.931731 0.221292 0.105524
H2    H     H_    0.941069 0.431719 0.778709 0.105524
H3    H     H_    0.224855 0.830887 0.398278 0.145497
H4    H     H_    0.775145 0.330870 0.601724 0.145503
H5    H     H_    0.129266 0.887195 0.329098 0.117635
H6    H     H_    0.870734 0.387178 0.670904 0.117637
C7    C     C_R   0.119948 0.937514 0.172243 -0.035994
C8    C     C_R   0.880052 0.437515 0.827756 -0.035994
C9    C     C_R   0.397299 0.881553 0.275722 -0.179929
C10   C     C_R   0.602701 0.381559 0.724277 -0.179927
C11   C     C_R   0.359185 0.910795 0.213660 -0.106924
C12   C     C_R   0.640815 0.410805 0.786339 -0.106926
C13   C     C_R   0.301343 0.917743 0.202377 -0.128653
C14   C     C_R   0.698657 0.417752 0.797622 -0.128655
C15   C     C_R   0.279548 0.891867 0.253252 0.020193
C16   C     C_R   0.720452 0.391870 0.746748 0.020196
C17   C     C_R   0.318924 0.856204 0.317410 -0.027369
C18   C     C_R   0.681076 0.356203 0.682590 -0.027373
C19   C     C_R   0.219922 0.902180 0.242284 0.070434
C20   C     C_R   0.780078 0.402181 0.757716 0.070435
C21   C     C_R   0.201241 0.885165 0.296111 0.069120
C22   C     C_R   0.798759 0.385159 0.703890 0.069116
C23   C     C_R   0.239773 0.847836 0.357720 -0.276234
C24   C     C_R   0.760227 0.347827 0.642281 -0.276229
C25   C     C_R   0.297325 0.822620 0.368222 0.396082
C26   C     C_R   0.702676 0.322614 0.631778 0.396074
C27   C     C_R   0.177799 0.927444 0.179866 -0.192998
C28   C     C_R   0.822201 0.427449 0.820133 -0.192999
C29   C     C_R   0.103335 0.925191 0.226579 -0.161072
C30   C     C_R   0.896665 0.425183 0.773421 -0.161072
C31   C     C_R   0.378504 0.855133 0.328126 -0.080372
C32   C     C_R   0.621496 0.355133 0.671873 -0.080379
H7    H     H_    0.188163 0.934963 0.136176 0.090462
H8    H     H_    0.811837 0.434973 0.863823 0.090462
H9    H     H_    0.442190 0.882106 0.283154 0.102432
H10   H     H_    0.557810 0.382114 0.716845 0.102433
H11   H     H_    0.274821 0.946076 0.153178 0.107561
H12   H     H_    0.725179 0.446089 0.846821 0.107561
H13   H     H_    0.374743 0.931825 0.173867 0.122285
H14   H     H_    0.625257 0.431841 0.826131 0.122286
C33   C     C_R   0.121037 0.765224 0.881952 -0.159760
C34   C     C_R   0.878965 0.265224 0.118052 -0.159760
H15   H     H_    0.106164 0.637075 0.896045 0.123624
H16   H     H_    0.893841 0.137075 0.103961 0.123624
C35   C     C_R   0.156752 0.755421 0.845131 -0.139121
C36   C     C_R   0.843250 0.255421 0.154872 -0.139121
H17   H     H_    0.168170 0.620323 0.832169 0.134243
H18   H     H_    0.831835 0.120323 0.167837 0.134243
C37   C     C_R   0.177188 0.917295 0.825156 0.020493
C38   C     C_R   0.822811 0.417294 0.174843 0.020493
C39   C     C_R   0.161090 0.089426 0.843382 -0.136024
C40   C     C_R   0.838907 0.589424 0.156614 -0.136025
H19   H     H_    0.175958 0.217170 0.829004 0.138505
H20   H     H_    0.824037 0.717169 0.170988 0.138505
C41   C     C_R   0.125372 0.099331 0.880300 -0.161923
C42   C     C_R   0.874625 0.599330 0.119696 -0.161923
H21   H     H_    0.113805 0.234488 0.893037 0.121411
H22   H     H_    0.886190 0.734486 0.106955 0.121412
C43   C     C_R   0.104673 0.937309 0.900025 -0.046763
C44   C     C_R   0.895327 0.437308 0.099975 -0.046764
N1    N     N_R   0.234091 0.062293 0.765279 -0.280772
N2    N     N_R   0.765904 0.562292 0.234714 -0.280773
N3    N     N_R   0.267688 0.052258 0.729721 -0.284347
N4    N     N_R   0.732306 0.552258 0.270272 -0.284347
C45   C     C_R   0.283587 0.885821 0.712661 0.513348
C46   C     C_R   0.716412 0.385822 0.287338 0.513352
N5    N     N_R   0.264314 0.729861 0.732829 -0.280940
N6    N     N_R   0.735690 0.229862 0.267176 -0.280941
N7    N     N_R   0.230706 0.739896 0.768371 -0.284363
N8    N     N_R   0.769297 0.239897 0.231634 -0.284363
C47   C     C_R   0.214830 0.906321 0.785460 0.513227
C48   C     C_R   0.785169 0.406321 0.214539 0.513229
C49   C     C_R   0.338709 0.702500 0.656483 -0.134973
C50   C     C_R   0.661293 0.202501 0.343521 -0.134973
H23   H     H_    0.324506 0.574808 0.671701 0.138109
H24   H     H_    0.675500 0.074810 0.328306 0.138108
C51   C     C_R   0.374920 0.692428 0.620186 -0.162288
C52   C     C_R   0.625083 0.192430 0.379817 -0.162277
H25   H     H_    0.387549 0.557251 0.608778 0.109305
H26   H     H_    0.612457 0.057253 0.391229 0.109305
C53   C     C_R   0.394858 0.854362 0.599508 -0.026473
C54   C     C_R   0.605142 0.354363 0.400491 -0.026475
C55   C     C_R   0.377192 0.026541 0.615888 -0.156442
C56   C     C_R   0.622804 0.526541 0.384106 -0.156446
H27   H     H_    0.391373 0.154565 0.600851 0.116467
H28   H     H_    0.608619 0.654565 0.399139 0.116468
C57   C     C_R   0.341054 0.036534 0.652193 -0.139895
C58   C     C_R   0.658941 0.536535 0.347800 -0.139892
H29   H     H_    0.328664 0.171695 0.663930 0.133711
H30   H     H_    0.671327 0.671695 0.336059 0.133712
C59   C     C_R   0.321437 0.874738 0.673220 0.020041
C60   C     C_R   0.678562 0.374739 0.326778 0.020040
O11   O     O_R   0.953220 0.285790 0.047790 -0.537331
O12   O     O_R   0.046780 0.785790 0.952210 -0.537331
O13   O     O_R   0.939020 0.617570 0.916840 -0.534693
O14   O     O_R   0.060980 0.117570 0.083160 -0.534693
C61   C     C_R   0.923988 0.448330 0.892635 0.680608
C62   C     C_R   0.076011 0.948329 0.107365 0.680609
O15   O     O_R   0.946600 0.615450 0.045180 -0.541775
O16   O     O_R   0.053400 0.115450 0.954820 -0.541775
O17   O     O_R   0.054370 0.786770 0.081410 -0.531263
O18   O     O_R   0.945630 0.286770 0.918590 -0.531263
C63   C     C_R   0.934274 0.446965 0.061712 0.676332
C64   C     C_R   0.065726 0.946965 0.938288 0.676332
O19   O     O_3   0.035300 0.454160 0.011680 -0.373418
O20   O     O_3   0.964700 0.954160 0.988320 -0.373418
V3    V     V_3+5 0.993450 0.728620 0.997830 1.411442
V4    V     V_3+5 0.006550 0.228620 0.002170 1.411442
O21   O     O_3   0.332085 0.764960 0.428857 -0.568056
C65   C     C_3   0.322086 0.574718 0.435410 -0.195650
H31   H     H_    0.329417 0.491397 0.396300 0.132988
H32   H     H_    0.278701 0.549941 0.436233 0.123309
H33   H     H_    0.351974 0.524239 0.482248 0.163662
O22   O     O_3   0.667916 0.264953 0.571144 -0.568058
C66   C     C_3   0.677907 0.074702 0.564599 -0.195631
H34   H     H_    0.670553 0.991402 0.603700 0.133003
H35   H     H_    0.721298 0.049886 0.563800 0.123296
H36   H     H_    0.648030 0.024236 0.517752 0.163654

loop_
_geom_bond_atom_site_label_1
_geom_bond_atom_site_label_2
_ccdc_geom_bond_type
C12   C14   A    
C35   H17   S    
C9    C11   A    
C23   C25   A    
O1    C3    A    
C37   C47   S    
O2    C4    A    
C65   H31   S    
C33   C43   A    
C2    O7    A    
C4    C31   S    
O3    V1    S    
C21   C23   A    
O12   C64   A    
C57   H29   S    
C34   C44   A    
C5    H5    S    
C42   H22   S    
C6    H6    S    
C36   C38   A    
C46   N6    A    
C5    C21   A    
O14   V4    S    
O18   V4    S    
O11   C63   A    
C27   H7    S    
C28   H8    S    
C50   C52   A    
C34   H16   S    
O16   C64   A    
C39   H19   S    
C44   C63   S    
O15   C63   A    
C8    C61   S    
C6    C22   A    
C43   C64   S    
C12   H14   S    
C10   C32   A    
O22   C66   S    
C52   H26   S    
C17   C31   A    
C66   H36   S    
C38   C48   S    
C13   C15   A    
C39   C41   A    
C17   C25   A    
C7    C29   A    
C16   C18   A    
C8    C30   A    
C22   C24   A    
C55   H27   S    
C9    H9    S    
C11   C13   A    
C41   H21   S    
C24   C26   A    
C54   C56   A    
N3    C45   A    
N5    N7    A    
C55   C57   A    
C35   C37   A    
C33   H15   S    
N1    C47   A    
N6    N8    A    
N2    N4    A    
C7    C62   S    
C25   O21   S    
N1    N3    A    
C10   H10   S    
O19   V4    S    
C15   C19   A    
C65   H32   S    
C37   C39   A    
C36   H18   S    
O4    V2    S    
O5    C3    A    
C40   C42   A    
C49   H23   S    
C1    C54   S    
O6    C4    A    
O11   V4    S    
C50   H24   S    
H1    C29   S    
O1    V2    S    
C56   H28   S    
O2    V1    S    
O12   V3    S    
H2    C30   S    
H3    C23   S    
O17   V3    S    
O4    C2    A    
C45   N5    A    
C11   H13   S    
N4    C46   A    
N7    C47   A    
C66   H34   S    
C18   C26   A    
C19   C27   A    
O21   C65   S    
C65   H33   S    
C7    C27   A    
C18   C32   A    
C58   C60   A    
C57   C59   A    
C53   C55   A    
C16   C20   A    
C5    C29   A    
N8    C48   A    
O3    C1    A    
C6    C30   A    
O14   C62   A    
C51   H25   S    
C26   O22   S    
C45   C59   S    
C33   C35   A    
C62   O17   A    
C34   C36   A    
C2    C53   S    
C49   C59   A    
C10   C12   A    
O7    V1    S    
C1    O8    A    
C19   C21   A    
C3    C32   S    
O8    V2    S    
C20   C22   A    
C50   C60   A    
H4    C24   S    
C58   H30   S    
C52   C54   A    
O5    V1    S    
C15   C17   A    
C56   C58   A    
C51   C53   A    
N2    C48   A    
C46   C60   S    
C20   C28   A    
C8    C28   A    
C49   C51   A    
O13   V3    S    
O6    V2    S    
C61   O18   A    
C42   C44   A    
O9    V2    S    
C66   H35   S    
C38   C40   A    
C41   C43   A    
O10   V1    S    
C40   H20   S    
O16   V4    S    
C13   H11   S    
O15   V3    S    
C14   H12   S    
C9    C31   A    
C14   C16   A    
O20   V3    S    
O13   C61   A    
