data_mof_unit_50711.cif
_audit_creation_date              2012-12-10T18:05:58-0500
_audit_creation_method            fapswitch 2.2
_symmetry_space_group_name_H-M    P1
_symmetry_Int_Tables_number       1
_space_group_crystal_system       triclinic
_cell_length_a                    12.578854
_cell_length_b                    13.120463
_cell_length_c                    15.005243
_cell_angle_alpha                 90.4723
_cell_angle_beta                  102.553367
_cell_angle_gamma                 82.220192
_cell_volume                      2394.44474099

loop_
_atom_site_label
_atom_site_type_symbol
_atom_type_description
_atom_site_fract_x
_atom_site_fract_y
_atom_site_fract_z
_atom_type_partial_charge
C1    C     C_R   0.438209 0.691632 0.490572 0.849291
C2    C     C_R   0.594233 0.521897 0.832467 -0.267740
C3    C     C_R   0.500399 0.501810 0.769255 -0.074173
C4    C     C_R   0.500357 0.500589 0.673131 0.883356
C5    C     C_R   0.405916 0.482731 0.797782 -0.256046
C6    C     C_R   0.699679 0.066043 0.637086 -0.203440
C7    C     C_R   0.597785 0.200290 0.531097 -0.053169
C8    C     C_R   0.297657 0.840102 0.420379 -0.007373
C9    C     C_R   0.271521 0.945522 0.402328 -0.191840
C10   C     C_R   0.346098 0.011836 0.438578 -0.212164
C11   C     C_R   0.446787 0.974719 0.498875 0.089563
C12   C     C_R   0.404553 0.481192 0.075126 0.121325
C13   C     C_R   0.464730 0.871601 0.529716 0.080531
C14   C     C_R   0.529784 0.037057 0.530567 0.088221
C15   C     C_R   0.619935 0.001947 0.603191 0.178991
C16   C     C_R   0.561287 0.308763 0.511405 0.862851
C17   C     C_R   0.627286 0.904697 0.642315 -0.259078
C18   C     C_R   0.550374 0.840358 0.606319 -0.197308
C19   C     C_R   0.525815 0.133423 0.491193 -0.254212
C20   C     C_R   0.687341 0.166205 0.602291 -0.194331
C21   C     C_R   0.397232 0.802009 0.482634 -0.166685
C22   C     C_R   0.086877 0.349358 0.370687 -0.317534
C23   C     C_R   0.688001 0.541063 0.081325 -0.221219
C24   C     C_R   0.800107 0.629252 0.608876 0.023738
C25   C     C_R   0.904531 0.658427 0.630252 -0.252945
C26   C     C_R   0.985663 0.610121 0.588369 -0.207408
C27   C     C_R   0.962487 0.531394 0.525019 0.007278
C28   C     C_R   0.499541 0.499787 0.326877 0.877341
C29   C     C_R   0.854461 0.504904 0.505333 0.231583
C30   C     C_R   0.041589 0.478235 0.480498 -0.021994
C31   C     C_R   0.010589 0.401631 0.416112 0.191756
C32   C     C_R   0.904079 0.377181 0.398232 -0.295430
C33   C     C_R   0.827661 0.427350 0.443015 -0.216257
C34   C     C_R   0.688201 0.541625 0.988749 -0.222675
C35   C     C_R   0.151069 0.497405 0.497281 -0.029288
C36   C     C_R   0.193497 0.372531 0.389981 0.010099
C37   C     C_R   0.405375 0.479968 0.167522 -0.277856
C38   C     C_R   0.499196 0.499857 0.230751 -0.074888
C39   C     C_R   0.593293 0.520142 0.202229 -0.261102
C40   C     C_R   0.594100 0.521072 0.110254 0.116453
C41   C     C_R   0.499345 0.501649 0.046329 0.062640
C42   C     C_R   0.219821 0.772854 0.371420 0.138472
C43   C     C_R   0.121644 0.765702 0.399571 -0.159523
C44   C     C_R   0.047925 0.702026 0.353636 -0.140902
C45   C     C_R   0.594522 0.522200 0.924827 0.121400
C46   C     C_R   0.071807 0.645187 0.279534 -0.112841
C47   C     C_R   0.168994 0.652683 0.250695 -0.120874
C48   C     C_R   0.242870 0.716485 0.296272 -0.098444
C49   C     C_R   0.499530 0.502302 0.953608 0.060591
C50   C     C_R   0.404827 0.482711 0.889712 0.115120
C51   C     C_R   0.310828 0.463015 0.918643 -0.217814
C52   C     C_R   0.310726 0.462179 0.011219 -0.226401
H1    H     H_    0.333123 0.463345 0.189993 0.156505
H2    H     H_    0.064380 0.291029 0.321219 0.141094
H3    H     H_    0.666173 0.535249 0.251383 0.169710
H4    H     H_    0.182657 0.553252 0.545217 0.124071
H5    H     H_    0.736869 0.666174 0.641415 0.127921
H6    H     H_    0.065031 0.636147 0.606797 0.137055
H7    H     H_    0.922499 0.718395 0.679003 0.145363
H8    H     H_    0.748160 0.403332 0.427675 0.216496
H9    H     H_    0.761073 0.556047 0.130215 0.143790
H10   H     H_    0.761408 0.556998 0.967160 0.143267
H11   H     H_    0.667082 0.537002 0.810051 0.159704
H12   H     H_    0.693228 0.877795 0.699971 0.139025
H13   H     H_    0.333074 0.467473 0.748665 0.164238
H14   H     H_    0.237757 0.448034 0.869772 0.147421
H15   H     H_    0.237589 0.446647 0.032843 0.141539
H16   H     H_    0.743502 0.218295 0.634154 0.158050
H17   H     H_    0.102698 0.808842 0.457317 0.129409
H18   H     H_    0.972588 0.696256 0.375824 0.142357
H19   H     H_    0.014949 0.595451 0.244432 0.123795
H20   H     H_    0.186873 0.609244 0.192881 0.119901
H21   H     H_    0.318109 0.721505 0.273572 0.113008
H22   H     H_    0.768214 0.040447 0.693131 0.135935
H23   H     H_    0.463568 0.160896 0.431679 0.138687
H24   H     H_    0.321220 0.092259 0.420411 0.139045
H25   H     H_    0.194969 0.976157 0.356393 0.145894
H26   H     H_    0.557669 0.766276 0.639842 0.154002
H27   H     H_    0.253991 0.332945 0.355781 0.123621
H28   H     H_    0.879838 0.318209 0.349912 0.157722
N1    N     N_R   0.222190 0.444670 0.452360 -0.096287
N2    N     N_R   0.776970 0.554790 0.547140 -0.129648
O1    O     O_R   0.366740 0.627160 0.477250 -0.601284
O2    O     O_R   0.544830 0.662520 0.507680 -0.609956
O3    O     O_R   0.410940 0.482340 0.616930 -0.625094
O4    O     O_R   0.589030 0.517700 0.647360 -0.634097
O5    O     O_R   0.455170 0.337480 0.492320 -0.611013
O6    O     O_R   0.633260 0.372840 0.522750 -0.638986
O7    O     O_R   0.410970 0.482300 0.352640 -0.622066
O8    O     O_R   0.589060 0.517660 0.383070 -0.640580
Zn1   Zn    Zn3+2 0.381090 0.476390 0.479680 0.947444
Zn2   Zn    Zn3+2 0.618910 0.523610 0.520320 0.925295

loop_
_geom_bond_atom_site_label_1
_geom_bond_atom_site_label_2
_ccdc_geom_bond_type
C25   H7    S    
C1    C21   S    
O5    Zn1   S    
C27   C29   A    
O3    Zn1   S    
C22   H2    S    
C1    O2    A    
C26   C27   A    
C37   C38   A    
C13   C18   A    
C8    C42   S    
C17   H12   S    
C30   C31   A    
C11   C14   A    
C4    O4    A    
C23   C40   A    
C29   C33   A    
C34   H10   S    
N2    Zn2   S    
C12   C37   A    
C24   N2    A    
C6    C15   A    
C10   H24   S    
C39   H3    S    
O6    Zn2   S    
C8    C9    A    
C16   O5    A    
C44   H18   S    
C28   O7    A    
C45   C49   A    
O7    Zn1   S    
C9    C10   A    
C37   H1    S    
C43   H17   S    
C27   C30   A    
C14   C19   A    
C41   C49   A    
C12   C52   A    
C44   C46   A    
C6    H22   S    
C2    C45   A    
C35   N1    A    
C22   C31   A    
C51   C52   A    
C24   C25   A    
C5    H13   S    
C39   C40   A    
C24   H5    S    
C42   C48   A    
C4    O3    A    
C50   C51   A    
C25   C26   A    
C51   H14   S    
C43   C44   A    
C12   C41   A    
C32   H28   S    
O8    Zn2   S    
C47   C48   A    
C28   C38   S    
C36   N1    A    
C18   H26   S    
C23   C34   A    
C17   C18   A    
C13   C21   A    
C34   C45   A    
C9    H25   S    
C26   H6    S    
C46   H19   S    
C52   H15   S    
C30   C35   A    
C7    C16   S    
C49   C50   A    
C33   H8    S    
C7    C19   A    
C5    C50   A    
C42   C43   A    
C3    C4    S    
C22   C36   A    
C2    H11   S    
C15   C17   A    
C46   C47   A    
C40   C41   A    
C35   H4    S    
C48   H21   S    
C20   H16   S    
C31   C32   A    
C3    C5    A    
C36   H27   S    
C8    C21   A    
C1    O1    A    
C6    C20   A    
C32   C33   A    
C19   H23   S    
C2    C3    A    
C29   N2    A    
O4    Zn2   S    
C11   C13   A    
C38   C39   A    
O1    Zn1   S    
C47   H20   S    
C10   C11   A    
N1    Zn1   S    
C23   H9    S    
C7    C20   A    
C16   O6    A    
C14   C15   A    
C28   O8    A    
O2    Zn2   S    
