data_mof_unit_32772.cif
_audit_creation_date              2012-12-10T17:02:28-0500
_audit_creation_method            fapswitch 2.2
_symmetry_space_group_name_H-M    P1
_symmetry_Int_Tables_number       1
_space_group_crystal_system       triclinic
_cell_length_a                    10.923157
_cell_length_b                    11.003656
_cell_length_c                    9.710159
_cell_angle_alpha                 109.248408
_cell_angle_beta                  96.966015
_cell_angle_gamma                 90.939147
_cell_volume                      1091.75141371

loop_
_atom_site_label
_atom_site_type_symbol
_atom_type_description
_atom_site_fract_x
_atom_site_fract_y
_atom_site_fract_z
_atom_type_partial_charge
C1    C     C_R   0.491294 0.254254 0.443407 0.750898
C2    C     C_R   0.515719 0.746062 0.556206 0.744526
C3    C     C_2   0.486435 0.114494 0.418374 0.228536
C4    C     C_2   0.538442 0.885541 0.580809 0.268621
C5    C     C_2   0.574747 0.065981 0.491938 0.121995
C6    C     C_2   0.565763 0.926776 0.470686 0.110947
C7    C     C_2   0.482202 0.526741 0.078919 -0.136718
C8    C     C_2   0.482904 0.492779 0.916973 -0.054723
C9    C     C_R   0.261524 0.500463 0.503557 0.833662
C10   C     C_R   0.736839 0.518686 0.501115 0.789463
C11   C     C_R   0.152827 0.635476 0.783762 0.089570
C12   C     C_R   0.867275 0.509547 0.235442 0.184031
C13   C     C_R   0.096744 0.658795 0.912622 0.084140
C14   C     C_R   0.903732 0.427304 0.104462 0.128349
C15   C     C_R   0.974278 0.691657 0.909477 0.469839
C16   C     C_R   0.002413 0.348902 0.111714 0.395774
C17   C     C_R   0.902908 0.667347 0.771974 -0.333886
C18   C     C_R   0.075305 0.370148 0.247298 -0.249869
C19   C     C_R   0.949479 0.596793 0.640144 0.004141
C20   C     C_R   0.043805 0.460946 0.378069 -0.018787
C21   C     C_R   0.078583 0.581398 0.644583 0.046594
C22   C     C_R   0.925108 0.506264 0.372677 -0.029668
C23   C     C_R   0.871050 0.548370 0.503857 -0.166547
C24   C     C_R   0.126720 0.510587 0.511335 -0.130786
Cu1   Cu    Cu3+1 0.521920 0.521810 0.644910 0.956903
Cu2   Cu    Cu3+1 0.478080 0.478190 0.355090 0.942802
H1    H     H_    0.810549 0.700638 0.769974 0.169540
H2    H     H_    0.155404 0.314577 0.248365 0.160678
H3    H     H_    0.420444 0.414793 0.842644 0.172679
H4    H     H_    0.518555 0.620907 0.149546 0.184259
H5    H     H_    0.610818 0.630537 0.935442 0.198851
H6    H     H_    0.410256 0.356540 0.066365 0.212053
N1    N     N_2   0.445130 0.445420 0.137360 -0.273472
N2    N     N_2   0.554870 0.554580 0.862640 -0.281404
O1    O     O_R   0.511700 0.332340 0.577400 -0.546143
O2    O     O_R   0.488300 0.667660 0.422600 -0.556328
O3    O     O_R   0.474680 0.295500 0.332650 -0.616034
O4    O     O_R   0.525320 0.704500 0.667350 -0.584146
O5    O     O_R   0.338170 0.518410 0.622370 -0.554137
O6    O     O_R   0.661830 0.481590 0.377630 -0.581432
O7    O     O_R   0.301150 0.481570 0.377630 -0.565055
O8    O     O_R   0.698850 0.518430 0.622370 -0.555030
O9    O     O_3   0.039126 0.266521 0.984232 -0.573735
C25   C     C_3   0.982927 0.142741 0.955628 0.030108
H7    H     H_    0.880690 0.145294 0.953080 0.143894
H8    H     H_    0.020808 0.101627 0.041161 0.146654
C26   C     C_3   0.009168 0.054516 0.805880 -0.787963
H9    H     H_    0.110171 0.047094 0.804392 0.243412
H10   H     H_    0.965612 0.956582 0.781768 0.194795
H11   H     H_    0.970980 0.093507 0.718760 0.249773
O10   O     O_3   0.926193 0.738732 0.041967 -0.545883
C27   C     C_3   0.855050 0.846584 0.049344 0.087087
H12   H     H_    0.755701 0.813891 0.021315 0.150487
H13   H     H_    0.878445 0.898819 0.974426 0.114470
C28   C     C_3   0.876248 0.942586 0.205551 -0.832293
H14   H     H_    0.967561 0.995366 0.226632 0.227844
H15   H     H_    0.803889 0.013861 0.220539 0.193848
H16   H     H_    0.873843 0.891915 0.286957 0.268257
N3    N     N_3   0.262970 0.711958 0.793567 -0.567444
H17   H     H_    0.329295 0.704481 0.876822 0.224281
H18   H     H_    0.239797 0.807705 0.818282 0.187782
N4    N     N_3   0.790073 0.611321 0.227210 -0.515190
H19   H     H_    0.705895 0.567334 0.171564 0.245981
H20   H     H_    0.776809 0.672437 0.331609 0.210188
N5    N     N_3   0.161075 0.644403 0.044130 -0.539389
H21   H     H_    0.160971 0.729567 0.132576 0.256493
H22   H     H_    0.252483 0.622694 0.031623 0.217254
N6    N     N_3   0.840827 0.425382 0.965208 -0.530618
H23   H     H_    0.906475 0.441186 0.902169 0.264886
H24   H     H_    0.798308 0.333464 0.910466 0.227932
N7    N     N_3   0.582554 0.838108 0.329259 -0.637320
H25   H     H_    0.668757 0.861147 0.305885 0.205657
H26   H     H_    0.516385 0.851514 0.249305 0.250507
N8    N     N_3   0.679198 0.145643 0.584508 -0.562434
H27   H     H_    0.735120 0.090595 0.633084 0.231947
H28   H     H_    0.732452 0.173887 0.516495 0.186233
O11   O     O_3   0.544622 0.975481 0.720925 -0.594795
C29   C     C_3   0.430987 0.975722 0.776131 0.084705
H29   H     H_    0.437285 0.917922 0.851039 0.165906
H30   H     H_    0.350011 0.937812 0.688720 0.136421
C30   C     C_3   0.408880 0.113666 0.864205 -0.814508
H31   H     H_    0.401303 0.173198 0.791137 0.258252
H32   H     H_    0.322169 0.117155 0.913705 0.201344
H33   H     H_    0.487362 0.153727 0.953265 0.245290
O12   O     O_3   0.383987 0.033452 0.338587 -0.604633
C31   C     C_3   0.332557 0.067641 0.217299 0.064183
H34   H     H_    0.405051 0.079677 0.150710 0.162997
H35   H     H_    0.281137 0.155991 0.254895 0.160832
C32   C     C_3   0.242004 0.960832 0.119037 -0.863583
H36   H     H_    0.166430 0.947839 0.180174 0.266116
H37   H     H_    0.202602 0.984629 0.021168 0.206160
H38   H     H_    0.291835 0.871431 0.083755 0.243124

loop_
_geom_bond_atom_site_label_1
_geom_bond_atom_site_label_2
_ccdc_geom_bond_type
C28   H14   S    
C10   O8    A    
C2    C4    S    
C30   H31   S    
C7    C8    S    
C26   H10   S    
C13   N5    S    
O11   C29   S    
C25   H7    S    
N8    H28   S    
C8    H3    S    
C19   C21   A    
C5    C6    S    
C31   H35   S    
C3    O12   S    
C12   C22   A    
C9    O5    A    
C10   O6    A    
C5    N8    S    
N4    H20   S    
C20   C24   A    
C25   H8    S    
N6    H23   S    
N5    H22   S    
C15   O10   S    
C32   H37   S    
C18   C20   A    
C25   C26   S    
C1    O3    A    
Cu1   N2    S    
N3    H17   S    
C7    H4    S    
C7    N1    D    
C11   N3    S    
C30   H32   S    
C27   H13   S    
C26   H11   S    
C6    N7    S    
N3    H18   S    
N8    H27   S    
O10   C27   S    
C17   H1    S    
C18   H2    S    
C4    C6    D    
N7    H26   S    
C31   H34   S    
Cu1   Cu2   S    
O12   C31   S    
C11   C21   A    
C1    C3    S    
C19   C23   A    
O9    C25   S    
N4    H19   S    
Cu1   O4    S    
C12   N4    S    
C2    O4    A    
Cu2   N1    S    
C26   H9    S    
H5    N2    S    
Cu2   O3    S    
C8    N2    D    
C32   H38   S    
C16   O9    S    
Cu1   O1    S    
Cu2   O2    S    
C12   C14   A    
C28   H15   S    
C14   C16   A    
C28   H16   S    
C30   H33   S    
C27   H12   S    
C1    O1    A    
C2    O2    A    
C15   C17   A    
C29   H29   S    
C20   C22   A    
C3    C5    D    
C31   C32   S    
Cu1   O8    S    
C27   C28   S    
C9    C24   S    
C10   C23   S    
C9    O7    A    
H6    N1    S    
C13   C15   A    
C4    O11   S    
Cu1   O5    S    
C11   C13   A    
C29   C30   S    
Cu2   O6    S    
C17   C19   A    
C29   H30   S    
N7    H25   S    
C16   C18   A    
N5    H21   S    
C21   C24   A    
N6    H24   S    
C14   N6    S    
C22   C23   A    
C32   H36   S    
Cu2   O7    S    
