data_mof_unit_37938.cif
_audit_creation_date              2013-03-05T16:10:14-0500
_audit_creation_method            fapswitch 2.2
_symmetry_space_group_name_H-M    P1
_symmetry_Int_Tables_number       1
_space_group_crystal_system       triclinic
_cell_length_a                    9.838416
_cell_length_b                    10.719386
_cell_length_c                    13.056128
_cell_angle_alpha                 90.097544
_cell_angle_beta                  70.326122
_cell_angle_gamma                 90.031842
_cell_volume                      1296.54156037

loop_
_atom_site_label
_atom_site_type_symbol
_atom_site_description
_atom_site_fract_x
_atom_site_fract_y
_atom_site_fract_z
_atom_type_partial_charge
O1    O     O_R   0.385370 0.683250 0.500010 -0.629393
O2    O     O_R   0.614700 0.683220 0.500010 -0.623952
C1    C     C_R   0.499948 0.740156 0.500262 0.874641
O3    O     O_R   0.328400 0.499990 0.653620 -0.599933
O4    O     O_R   0.557730 0.499960 0.653620 -0.614151
C2    C     C_R   0.420308 0.492632 0.704320 0.867848
Zn1   Zn    Zn3+2 0.346870 0.500020 0.500000 0.964878
Zn2   Zn    Zn3+2 0.653130 0.499980 0.500000 0.971364
O5    O     O_R   0.385300 0.316780 0.499990 -0.622389
O6    O     O_R   0.614630 0.316750 0.499990 -0.640156
O7    O     O_R   0.442270 0.500040 0.346380 -0.617912
O8    O     O_R   0.671600 0.500010 0.346380 -0.590173
C3    C     C_R   0.499845 0.259860 0.500200 0.860085
C4    C     C_R   0.579771 0.498876 0.295265 0.871439
C5    C     C_R   0.775389 0.362118 0.020820 -0.159794
H1    H     H_    0.832444 0.391286 0.163992 0.180755
H2    H     H_    0.875406 0.313614 0.979949 0.191121
C6    C     C_R   0.626979 0.475760 0.178726 -0.054795
C7    C     C_R   0.230305 0.519655 0.882770 -0.228351
C8    C     C_R   0.182732 0.514726 0.995412 -0.119402
C9    C     C_R   0.276077 0.476082 0.050027 0.019396
C10   C     C_R   0.422160 0.444774 0.988099 -0.019141
C11   C     C_R   0.458013 0.424652 0.875682 0.035389
C12   C     C_R   0.535778 0.436139 0.031541 0.026436
C13   C     C_R   0.666967 0.374260 0.973141 0.116123
C14   C     C_R   0.686198 0.328310 0.868475 0.222793
C15   C     C_R   0.583475 0.355422 0.820059 -0.218232
C16   C     C_R   0.526656 0.497720 0.127392 -0.247512
C17   C     C_R   0.753437 0.409602 0.124771 -0.212447
C18   C     C_R   0.367858 0.475546 0.822163 -0.091379
H3    H     H_    0.438251 0.560766 0.165614 0.161583
H4    H     H_    0.158485 0.556546 0.842967 0.175080
H5    H     H_    0.072206 0.541059 0.039879 0.185488
H6    H     H_    0.602359 0.320219 0.738768 0.192741
C19   C     C_R   0.612776 0.936266 0.519998 -0.175140
H7    H     H_    0.700562 0.887730 0.535413 0.156387
C20   C     C_R   0.612676 0.064080 0.520073 -0.186043
H8    H     H_    0.700369 0.112844 0.535593 0.167955
C21   C     C_R   0.499542 0.127451 0.500795 -0.019075
C22   C     C_R   0.386164 0.063799 0.481999 -0.168599
H9    H     H_    0.298362 0.112295 0.466564 0.155503
C23   C     C_R   0.386209 0.936026 0.482013 -0.185860
H10   H     H_    0.298398 0.887329 0.466623 0.158283
C24   C     C_R   0.499676 0.872613 0.500764 -0.023302
C25   C     C_R   0.946892 0.401567 0.457770 0.027216
H11   H     H_    0.907968 0.323200 0.423263 0.116875
C26   C     C_R   0.090760 0.401641 0.457741 -0.001521
H12   H     H_    0.160463 0.323307 0.423240 0.106892
N1    N     N_R   0.142790 0.500030 0.500030 -0.080751
C27   C     C_R   0.052570 0.597766 0.543385 -0.060942
H13   H     H_    0.091372 0.675931 0.578223 0.128530
C28   C     C_R   0.908723 0.597712 0.543387 -0.037876
H14   H     H_    0.838824 0.675817 0.578271 0.126111
N2    N     N_R   0.857180 0.499940 0.500010 -0.079422
Br1   Br    Br    0.855414 0.237984 0.783322 -0.573911
C29   C     C_2   0.212647 0.452813 0.168764 0.330405
H15   H     H_    0.266666 0.391660 0.208958 0.079219
O9    O     O_2   0.098224 0.500541 0.222787 -0.588983

loop_
_geom_bond_atom_site_label_1
_geom_bond_atom_site_label_2
_geom_bond_distance
_ccdc_geom_bond_type
O4    Zn2   1.906869 S    
C27   C28   1.415217 A    
C5    H2    1.081400 S    
C20   H8    1.084215 S    
C11   C15   1.413270 A    
C9    C29   1.484800 S    
C4    C6    1.454380 S    
C26   H12   1.081490 S    
O8    C4    1.291390 A    
Zn2   O8    1.952019 S    
C14   Br1   1.922761 S    
C8    C9    1.402074 A    
C22   C23   1.369654 A    
C27   H13   1.081625 S    
C13   C14   1.403399 A    
C26   N1    1.366357 A    
C6    C17   1.398658 A    
O1    Zn1   2.000104 S    
C9    C10   1.431487 A    
C12   C13   1.422613 A    
Zn1   O7    1.906870 S    
C19   C24   1.397674 A    
C14   C15   1.391589 A    
C23   C24   1.397721 A    
O3    Zn1   1.952018 S    
C8    H5    1.083451 S    
O3    C2    1.290473 A    
C22   H9    1.084031 S    
C2    C18   1.460578 S    
C28   N2    1.366412 A    
C25   N2    1.366180 A    
C5    C17   1.395740 A    
O2    C1    1.282707 A    
C25   C26   1.415305 A    
C15   H6    1.081350 S    
O4    C2    1.292182 A    
C20   C21   1.397765 A    
O7    C4    1.291385 A    
C10   C12   1.416682 A    
C1    C24   1.419866 S    
C3    C21   1.419381 S    
C5    C13   1.410622 A    
C29   H15   1.084851 S    
C7    H4    1.083496 S    
C11   C18   1.411300 A    
C12   C16   1.389802 A    
C6    C16   1.387454 A    
C28   H14   1.081550 S    
Zn1   N1    2.007692 S    
Zn2   O6    2.000106 S    
N1    C27   1.366242 A    
C23   H10   1.084089 S    
Zn2   N2    2.007573 S    
C21   C22   1.397465 A    
Zn1   O5    2.000476 S    
O5    C3    1.282628 A    
C10   C11   1.405553 A    
C19   C20   1.370083 A    
H1    C17   1.083275 S    
C25   H11   1.081586 S    
C7    C18   1.399827 A    
O6    C3    1.282327 A    
C16   H3    1.081440 S    
O2    Zn2   2.000476 S    
C7    C8    1.386180 A    
C29   O9    1.221191 D    
O1    C1    1.282406 A    
C19   H7    1.083992 S    
