data_mof_unit_51399.cif
_audit_creation_date              2012-12-10T18:54:28-0500
_audit_creation_method            fapswitch 2.2
_symmetry_space_group_name_H-M    P1
_symmetry_Int_Tables_number       1
_space_group_crystal_system       triclinic
_cell_length_a                    10.769543
_cell_length_b                    9.801487
_cell_length_c                    23.263597
_cell_angle_alpha                 90.924305
_cell_angle_beta                  89.674347
_cell_angle_gamma                 89.155391
_cell_volume                      2455.01860733

loop_
_atom_site_label
_atom_site_type_symbol
_atom_type_description
_atom_site_fract_x
_atom_site_fract_y
_atom_site_fract_z
_atom_type_partial_charge
C1    C     C_R   0.259632 0.501021 0.498250 1.025931
C2    C     C_R   0.569232 0.422120 0.708610 0.108196
C3    C     C_R   0.363411 0.570623 0.243927 -0.162485
C4    C     C_R   0.551435 0.430514 0.768141 -0.158251
C5    C     C_R   0.446593 0.496358 0.209063 0.134078
C6    C     C_R   0.464094 0.521877 0.792316 0.155393
C7    C     C_R   0.069175 0.382212 0.471292 0.309510
C8    C     C_R   0.934317 0.620831 0.483638 0.312528
C9    C     C_R   0.943363 0.370725 0.483466 0.294739
C10   C     C_R   0.056768 0.623285 0.500287 0.297095
C11   C     C_R   0.873134 0.495021 0.487490 -0.423748
C12   C     C_R   0.740452 0.498259 0.496281 0.997953
C13   C     C_R   0.127651 0.502588 0.490590 -0.440347
C14   C     C_R   0.468411 0.074286 0.548475 -0.045817
C15   C     C_R   0.530852 0.925806 0.451478 0.016999
C16   C     C_R   0.530371 0.069713 0.451396 0.044660
C17   C     C_R   0.468519 0.930281 0.548483 0.004000
C18   C     C_R   0.496174 0.499259 0.389366 0.932072
C19   C     C_R   0.502220 0.501086 0.610866 0.900202
C20   C     C_R   0.529726 0.608058 0.884091 0.593076
C21   C     C_R   0.351161 0.434025 0.119432 0.562970
C22   C     C_R   0.360962 0.453916 0.878494 0.669859
C23   C     C_R   0.543251 0.418484 0.233281 0.419707
C24   C     C_R   0.505153 0.606287 0.122346 0.664463
C25   C     C_R   0.355185 0.445731 0.938546 -0.164314
C26   C     C_R   0.489832 0.631418 0.063709 -0.155097
C27   C     C_R   0.425362 0.540492 0.971074 -0.081909
C28   C     C_R   0.418090 0.539298 0.031299 -0.076655
C29   C     C_R   0.509766 0.629494 0.943631 -0.034679
C30   C     C_R   0.339103 0.446518 0.059364 -0.036592
C31   C     C_R   0.279503 0.349771 0.966732 0.416004
C32   C     C_R   0.545465 0.743359 0.036635 0.421185
C33   C     C_R   0.256295 0.365879 0.026208 0.045881
C34   C     C_R   0.392807 0.607884 0.757370 0.414882
C35   C     C_R   0.567505 0.736082 0.976452 0.015315
C36   C     C_3   0.137685 0.307039 0.051657 -0.292378
C37   C     C_3   0.052456 0.418887 0.077330 -0.703177
C38   C     C_3   0.651066 0.842038 0.948998 -0.323616
C39   C     C_3   0.577819 0.943565 0.912445 -0.584872
C40   C     C_3   0.278949 0.650969 0.338743 -0.343923
C41   C     C_3   0.295299 0.804817 0.334143 -0.728287
C42   C     C_3   0.672332 0.330219 0.684928 -0.394330
C43   C     C_3   0.782096 0.413671 0.664107 -0.698246
C44   C     C_R   0.556474 0.419625 0.292857 -0.302702
C45   C     C_R   0.409051 0.598623 0.698190 -0.330365
C46   C     C_R   0.475751 0.498025 0.327786 -0.111957
C47   C     C_R   0.494719 0.505925 0.673404 -0.096644
C48   C     C_R   0.376169 0.572866 0.303428 0.135075
H1    H     H_    0.631936 0.362446 0.312162 0.209658
H2    H     H_    0.514068 0.954620 0.164514 0.396023
H3    H     H_    0.096816 0.473985 0.113563 0.276198
H4    H     H_    0.027351 0.493634 0.043767 0.253743
H5    H     H_    0.965877 0.372488 0.093583 0.295804
H6    H     H_    0.081012 0.256263 0.018243 0.251082
H7    H     H_    0.158517 0.226859 0.083356 0.281631
H8    H     H_    0.542103 0.895300 0.872654 0.283276
H9    H     H_    0.497475 0.986470 0.936973 0.306742
H10   H     H_    0.638955 0.028514 0.899964 0.237920
H11   H     H_    0.702928 0.900916 0.981695 0.249667
H12   H     H_    0.353188 0.662961 0.671053 0.216475
H13   H     H_    0.727727 0.792828 0.924066 0.254131
H14   H     H_    0.521142 0.202551 0.143865 0.381627
H15   H     H_    0.124445 0.600664 0.758429 0.363236
H16   H     H_    0.390607 0.833377 0.346888 0.242516
H17   H     H_    0.278635 0.838099 0.289405 0.259964
H18   H     H_    0.227841 0.858888 0.363082 0.303120
H19   H     H_    0.184894 0.623850 0.323208 0.240437
H20   H     H_    0.280738 0.623174 0.384631 0.229668
H21   H     H_    0.755942 0.475440 0.626386 0.233974
H22   H     H_    0.814563 0.482672 0.699090 0.263282
H23   H     H_    0.289039 0.628508 0.224098 0.171629
H24   H     H_    0.860125 0.344138 0.651391 0.281261
H25   H     H_    0.706878 0.260564 0.718744 0.219567
H26   H     H_    0.637810 0.263416 0.649789 0.238637
H27   H     H_    0.280417 0.273421 0.354814 0.382205
H28   H     H_    0.760164 0.786745 0.369628 0.381651
H29   H     H_    0.760970 0.109928 0.556655 0.387270
H30   H     H_    0.219190 0.809931 0.613896 0.381981
H31   H     H_    0.607056 0.367826 0.796382 0.167180
H32   H     H_    0.442819 0.130427 0.587224 0.144132
H33   H     H_    0.556979 0.869775 0.412861 0.138418
H34   H     H_    0.555016 0.122268 0.412552 0.148051
H35   H     H_    0.443318 0.877671 0.587225 0.140818
H36   H     H_    0.304806 0.069687 0.860248 0.425687
N1    N     N_R   0.451096 0.528165 0.853260 -0.343657
N2    N     N_R   0.435767 0.510238 0.148465 -0.339978
N3    N     N_R   0.500000 0.857200 0.500000 -0.078823
N4    N     N_R   0.500000 0.142800 0.500000 -0.082356
O1    O     O_R   0.316770 0.614620 0.500000 -0.567105
O2    O     O_2   0.285718 0.341433 0.148625 -0.554636
O3    O     O_2   0.275729 0.392364 0.845147 -0.440456
O4    O     O_2   0.592972 0.671770 0.152834 -0.456594
O5    O     O_2   0.230025 0.080673 0.974847 -0.275722
O6    O     O_2   0.111794 0.211939 0.904333 -0.235408
O7    O     O_3   0.342282 0.147284 0.881313 -0.539736
O8    O     O_2   0.698319 0.904304 0.097632 -0.229915
O9    O     O_2   0.540243 0.021970 0.040933 -0.264471
O10   O     O_3   0.468391 0.906523 0.133611 -0.526920
O11   O     O_2   0.755266 0.419492 0.173859 -0.219394
O12   O     O_R   0.683230 0.385380 0.500000 -0.553806
O13   O     O_2   0.706783 0.209260 0.223786 -0.259767
O14   O     O_3   0.586975 0.263774 0.130199 -0.488333
O15   O     O_2   0.320371 0.783817 0.842076 -0.286242
O16   O     O_2   0.254886 0.836709 0.744418 -0.290814
O17   O     O_3   0.146354 0.638900 0.796660 -0.457787
O18   O     O_2   0.213879 0.156329 0.455190 -0.229281
O19   O     O_2   0.048239 0.194756 0.385247 -0.195435
O20   O     O_3   0.242223 0.345470 0.379804 -0.608355
O21   O     O_2   0.802501 0.857031 0.486570 -0.231592
O22   O     O_2   0.975567 0.839872 0.417964 -0.208665
O23   O     O_R   0.683230 0.614620 0.500000 -0.560331
O24   O     O_3   0.775364 0.706931 0.394334 -0.566595
O25   O     O_2   0.802716 0.164366 0.445308 -0.256488
O26   O     O_2   0.986137 0.100196 0.500715 -0.119660
O27   O     O_3   0.799545 0.201043 0.556494 -0.571077
O28   O     O_2   0.181386 0.859328 0.498324 -0.214944
O29   O     O_2   0.001079 0.850347 0.562951 -0.212553
O30   O     O_3   0.201067 0.723663 0.593038 -0.587890
O31   O     O_R   0.316770 0.385380 0.500000 -0.563583
O32   O     O_R   0.499970 0.614690 0.416160 -0.625679
O33   O     O_R   0.500030 0.385310 0.583840 -0.638590
O34   O     O_R   0.500030 0.614690 0.583840 -0.623422
O35   O     O_R   0.499970 0.385310 0.416160 -0.617111
O36   O     O_2   0.625788 0.664663 0.856456 -0.561013
S1    S     S_3+6 0.236731 0.193363 0.931871 0.072774
S2    S     S_3+6 0.566425 0.899102 0.076908 0.080215
S3    S     S_3+6 0.652474 0.325635 0.190408 0.077836
S4    S     S_3+6 0.279007 0.723207 0.785792 0.061101
S5    S     S_3+6 0.143258 0.263132 0.422534 0.101259
S6    S     S_3+6 0.872163 0.762917 0.445794 0.117577
S7    S     S_3+6 0.883175 0.203883 0.495256 0.134256
S8    S     S_3+6 0.109659 0.770529 0.538354 0.106562
Zn1   Zn    Zn3+2 0.500000 0.653120 0.500000 1.045813
Zn2   Zn    Zn3+2 0.500000 0.346880 0.500000 1.046748

loop_
_geom_bond_atom_site_label_1
_geom_bond_atom_site_label_2
_ccdc_geom_bond_type
C44   H1    S    
C25   C31   A    
O18   S5    D    
C19   O34   A    
C26   C32   A    
C43   H24   S    
C27   C29   A    
O26   S7    D    
N3    Zn1   S    
C2    C4    A    
O19   S5    D    
C15   H33   S    
O27   S7    S    
C6    N1    S    
C15   N3    A    
C36   C37   S    
H30   O30   S    
C24   C26   A    
C38   C39   S    
C37   H3    S    
C19   C47   S    
C15   C16   A    
C39   H9    S    
C24   O4    S    
C3    C48   A    
C33   C36   S    
C40   C48   S    
O32   Zn1   S    
C1    O31   A    
C22   N1    A    
C32   S2    S    
O29   S8    D    
C45   H12   S    
O12   Zn2   S    
C22   C25   A    
C5    C23   A    
C22   O3    S    
C31   C33   A    
C14   H32   S    
O33   Zn2   S    
H15   O17   S    
C30   C33   A    
C18   O35   A    
C21   O2    S    
C38   H13   S    
C37   H5    S    
C9    S7    S    
H27   O20   S    
C43   H21   S    
C36   H6    S    
C14   C17   A    
C18   C46   S    
C44   C46   A    
O5    S1    D    
C20   C29   A    
C45   C47   A    
C46   C48   A    
C42   H26   S    
O31   Zn2   S    
C20   O36   S    
O35   Zn2   S    
C32   C35   A    
C35   C38   S    
O1    Zn1   S    
C4    H31   S    
C4    C6    A    
O14   S3    S    
H2    O10   S    
C37   H4    S    
O23   Zn1   S    
C41   H17   S    
C39   H10   S    
C40   H19   S    
C23   C44   A    
C6    C34   A    
C12   O12   A    
C17   H35   S    
H36   O7    S    
C3    H23   S    
O34   Zn1   S    
O7    S1    S    
C39   H8    S    
O28   S8    D    
O10   S2    S    
H28   O24   S    
C20   N1    A    
C16   H34   S    
O8    S2    D    
C34   C45   A    
O15   S4    D    
C9    C11   A    
O20   S5    S    
C5    N2    S    
C8    C10   A    
C40   C41   S    
C43   H22   S    
C8    S6    S    
C1    C13   S    
C42   C43   S    
C31   S1    S    
C18   O32   A    
O21   S6    D    
C23   S3    S    
O6    S1    D    
C7    C9    A    
C21   N2    A    
C19   O33   A    
C42   H25   S    
C1    O1    A    
O25   S7    D    
O17   S4    S    
C17   N3    A    
O9    S2    D    
C3    C5    A    
C10   C13   A    
O11   S3    D    
C11   C12   S    
C41   H18   S    
C2    C47   A    
C25   C27   A    
C21   C30   A    
C29   C35   A    
C26   C28   A    
C28   C30   A    
N4    Zn2   S    
C36   H7    S    
C2    C42   S    
C8    C11   A    
O13   S3    D    
O22   S6    D    
O16   S4    D    
C10   S8    S    
C7    S5    S    
O30   S8    S    
C14   N4    A    
C38   H11   S    
C7    C13   A    
C34   S4    S    
C40   H20   S    
C27   C28   A    
C16   N4    A    
C41   H16   S    
O24   S6    S    
H29   O27   S    
C24   N2    A    
C12   O23   A    
H14   O14   S    
