data_mof_unit_61089.cif
_audit_creation_date              2012-12-10T17:04:21-0500
_audit_creation_method            fapswitch 2.2
_symmetry_space_group_name_H-M    P1
_symmetry_Int_Tables_number       1
_space_group_crystal_system       triclinic
_cell_length_a                    11.695443
_cell_length_b                    10.990628
_cell_length_c                    9.906727
_cell_angle_alpha                 110.136818
_cell_angle_beta                  98.556503
_cell_angle_gamma                 91.888038
_cell_volume                      1177.39814683

loop_
_atom_site_label
_atom_site_type_symbol
_atom_type_description
_atom_site_fract_x
_atom_site_fract_y
_atom_site_fract_z
_atom_type_partial_charge
C1    C     C_R   0.487791 0.254265 0.442286 0.876055
C2    C     C_R   0.504061 0.745319 0.557572 0.891845
C3    C     C_R   0.284248 0.499794 0.500355 0.803937
C4    C     C_R   0.715749 0.500195 0.499649 0.810318
C5    C     C_1   0.162587 0.499955 0.501009 -0.118579
C6    C     C_1   0.837429 0.500034 0.499046 -0.136677
C7    C     C_1   0.059998 0.499995 0.500553 0.025954
C8    C     C_1   0.940027 0.499998 0.499546 0.024523
C9    C     C_2   0.473919 0.114673 0.413953 -0.358304
C10   C     C_2   0.497730 0.883750 0.584956 -0.360165
C11   C     C_2   0.445521 0.067843 0.514762 0.315302
C12   C     C_2   0.441544 0.926559 0.483404 0.326002
C13   C     C_2   0.500199 0.524423 0.086156 0.655376
C14   C     C_2   0.477788 0.506902 0.925985 0.528187
Cu1   Cu    Cu3+1 0.519790 0.521810 0.644910 1.008081
Cu2   Cu    Cu3+1 0.480210 0.478190 0.355090 1.050752
H1    H     H_    0.540155 0.952218 0.690284 0.130183
H2    H     H_    0.487334 0.048632 0.308198 0.124136
N1    N     N_2   0.450460 0.445430 0.137370 -0.044743
N2    N     N_2   0.549540 0.554570 0.862630 -0.096590
O1    O     O_R   0.510560 0.332330 0.577400 -0.538517
O2    O     O_R   0.489440 0.667670 0.422600 -0.474846
O3    O     O_R   0.477140 0.295500 0.332650 -0.608693
O4    O     O_R   0.522860 0.704500 0.667350 -0.601425
O5    O     O_R   0.353910 0.518430 0.622380 -0.572891
O6    O     O_R   0.646090 0.481570 0.377620 -0.541062
O7    O     O_R   0.320490 0.481600 0.377630 -0.573109
O8    O     O_R   0.679510 0.518400 0.622370 -0.587190
O9    O     O_3   0.382530 0.839879 0.351701 -0.697487
H3    H     H_    0.338102 0.889646 0.298510 0.318483
O10   O     O_3   0.423513 0.150826 0.647285 -0.712740
H4    H     H_    0.392250 0.098260 0.699472 0.335513
O11   O     O_3   0.371900 0.444362 0.848929 -0.690065
H5    H     H_    0.386328 0.381799 0.755949 0.392259
O12   O     O_3   0.570524 0.630325 0.184761 -0.688946
H6    H     H_    0.565990 0.702222 0.145887 0.328723
O13   O     O_3   0.655956 0.601426 0.939894 -0.663105
H7    H     H_    0.695414 0.637549 0.878674 0.378089
O14   O     O_3   0.386960 0.338034 0.042160 -0.624058
H8    H     H_    0.355389 0.294744 0.102979 0.365477

loop_
_geom_bond_atom_site_label_1
_geom_bond_atom_site_label_2
_ccdc_geom_bond_type
C2    O2    A    
C4    O6    A    
C11   C12   S    
C1    O1    A    
O13   H7    S    
C12   O9    S    
O12   H6    S    
Cu1   O1    S    
Cu2   O7    S    
C3    O7    A    
O11   H5    S    
C11   O10   S    
C7    C8    S    
C13   C14   S    
C2    O4    A    
N2    O13   S    
C9    C11   D    
Cu1   O8    S    
O9    H3    S    
C10   C12   D    
C14   O11   S    
Cu2   N1    S    
N1    O14   S    
Cu1   O4    S    
C4    O8    A    
C1    O3    A    
Cu2   O3    S    
Cu2   O6    S    
Cu1   N2    S    
Cu1   O5    S    
C13   N1    D    
C10   H1    S    
Cu1   Cu2   S    
C2    C10   S    
C14   N2    D    
C9    H2    S    
C3    O5    A    
C1    C9    S    
C4    C6    S    
O14   H8    S    
C5    C7    T    
C6    C8    T    
C13   O12   S    
O10   H4    S    
Cu2   O2    S    
C3    C5    S    
