data_mof_unit_64306.cif
_audit_creation_date              2012-12-11T15:44:50-0500
_audit_creation_method            fapswitch 2.2
_symmetry_space_group_name_H-M    P1
_symmetry_Int_Tables_number       1
_space_group_crystal_system       monoclinic
_cell_length_a                    22.696378
_cell_length_b                    30.524189
_cell_length_c                    19.025172
_cell_angle_alpha                 90.0
_cell_angle_beta                  123.915108
_cell_angle_gamma                 90.0
_cell_volume                      10937.9725249

loop_
_atom_site_label
_atom_site_type_symbol
_atom_type_description
_atom_site_fract_x
_atom_site_fract_y
_atom_site_fract_z
_atom_type_partial_charge
C1    C     C_R   0.121665 0.385624 0.066271 -0.113962
C2    C     C_R   0.121663 0.614377 0.066271 -0.113835
C3    C     C_R   0.621663 0.885623 0.066271 -0.113834
C4    C     C_R   0.621665 0.114376 0.066271 -0.113963
C5    C     C_R   0.874559 0.384839 0.934181 0.199986
C6    C     C_R   0.874559 0.615161 0.934181 0.199974
C7    C     C_R   0.374559 0.884839 0.934181 0.199973
C8    C     C_R   0.374559 0.115161 0.934181 0.199987
C9    C     C_R   0.942761 0.610387 0.075727 -0.143295
C10   C     C_R   0.942762 0.389612 0.075727 -0.143292
C11   C     C_R   0.442762 0.110388 0.075727 -0.143293
C12   C     C_R   0.442761 0.889613 0.075727 -0.143295
C13   C     C_R   0.027374 0.500000 0.274258 -0.041475
C14   C     C_R   0.527374 0.000000 0.274258 -0.041475
C15   C     C_R   0.769731 0.499999 0.724624 0.058763
C16   C     C_R   0.269731 0.000001 0.724624 0.058763
C17   C     C_R   0.885573 0.367459 0.007831 0.008114
C18   C     C_R   0.885572 0.632541 0.007830 0.008150
C19   C     C_R   0.385572 0.867460 0.007830 0.008150
C20   C     C_R   0.385573 0.132541 0.007831 0.008115
C21   C     C_3   0.493809 0.542598 0.365696 0.362377
C22   C     C_3   0.492709 0.456094 0.368743 0.362000
C23   C     C_3   0.992690 0.043928 0.368795 0.361993
C24   C     C_3   0.993828 0.957425 0.365645 0.362380
C25   C     C_3   0.572649 0.458140 0.442274 -0.472798
C26   C     C_3   0.573675 0.540557 0.439608 -0.473266
C27   C     C_3   0.073693 0.959466 0.439564 -0.473271
C28   C     C_3   0.072631 0.041881 0.442319 -0.472793
C29   C     C_1   0.712466 0.499998 0.639219 -0.008936
C30   C     C_1   0.212466 0.000002 0.639219 -0.008937
C31   C     C_3   0.455267 0.499977 0.368414 0.068092
C32   C     C_3   0.955267 0.000023 0.368414 0.068092
C33   C     C_3   0.587877 0.499990 0.495798 0.249590
C34   C     C_3   0.087877 0.000010 0.495798 0.249593
C35   C     C_R   0.057238 0.610855 0.926821 -0.095655
C36   C     C_R   0.057239 0.389146 0.926822 -0.095636
C37   C     C_R   0.557239 0.110854 0.926822 -0.095636
C38   C     C_R   0.557238 0.889145 0.926821 -0.095654
C39   C     C_3   0.538578 0.501265 0.528094 -0.363989
C40   C     C_3   0.038579 0.998693 0.528093 -0.363988
C41   C     C_3   0.460655 0.501346 0.453700 -0.433408
C42   C     C_3   0.960655 0.998607 0.453699 -0.433404
C43   C     C_1   0.659271 0.499996 0.570432 -0.026690
C44   C     C_1   0.159271 0.000004 0.570432 -0.026690
C45   C     C_1   0.380477 0.499993 0.303030 0.049564
C46   C     C_1   0.880477 0.000007 0.303030 0.049563
C47   C     C_1   0.317542 0.500000 0.259690 0.053350
C48   C     C_1   0.817542 0.000000 0.259690 0.053349
C49   C     C_1   0.153323 0.669798 0.994595 -0.010120
C50   C     C_1   0.153326 0.330204 0.994596 -0.009912
C51   C     C_1   0.653326 0.169796 0.994596 -0.009910
C52   C     C_1   0.653323 0.830202 0.994595 -0.010121
C53   C     C_1   0.189164 0.700007 0.997246 0.034784
C54   C     C_1   0.189168 0.299995 0.997248 0.034984
C55   C     C_1   0.689168 0.200005 0.997248 0.034984
C56   C     C_1   0.689164 0.799993 0.997246 0.034783
C57   C     C_1   0.232726 0.735047 0.002383 0.028955
C58   C     C_1   0.232730 0.264955 0.002385 0.029156
C59   C     C_1   0.732730 0.235045 0.002385 0.029156
C60   C     C_1   0.732726 0.764953 0.002383 0.028956
C61   C     C_1   0.770036 0.264832 0.006972 0.027436
C62   C     C_1   0.770032 0.735166 0.006970 0.027249
C63   C     C_1   0.270033 0.764834 0.006970 0.027248
C64   C     C_1   0.270036 0.235168 0.006972 0.027436
C65   C     C_1   0.812998 0.299990 0.011116 0.046164
C66   C     C_1   0.812995 0.700008 0.011115 0.046025
C67   C     C_1   0.312995 0.799992 0.011115 0.046025
C68   C     C_1   0.312998 0.200010 0.011116 0.046164
C69   C     C_R   0.982079 0.463185 0.776639 -0.123211
C70   C     C_R   0.982079 0.536815 0.776639 -0.123250
C71   C     C_R   0.482079 0.963185 0.776639 -0.123250
C72   C     C_R   0.482079 0.036815 0.776639 -0.123212
C73   C     C_1   0.847751 0.330380 0.011962 0.040690
C74   C     C_1   0.847749 0.669619 0.011961 0.040610
C75   C     C_1   0.347749 0.830381 0.011961 0.040610
C76   C     C_1   0.347751 0.169620 0.011962 0.040690
C77   C     C_1   0.030895 0.500000 0.352603 0.087582
C78   C     C_1   0.530895 0.000000 0.352603 0.087582
C79   C     C_1   0.028829 0.500000 0.414814 0.046593
C80   C     C_1   0.528829 0.000000 0.414814 0.046593
C81   C     C_1   0.022341 0.500000 0.484849 0.020106
C82   C     C_1   0.522341 0.000000 0.484849 0.020106
C83   C     C_1   0.014761 0.500000 0.542985 0.022962
C84   C     C_1   0.514761 0.000000 0.542985 0.022963
C85   C     C_1   0.004723 0.500000 0.610284 0.024766
C86   C     C_1   0.504723 0.000000 0.610284 0.024766
C87   C     C_1   0.996366 0.500000 0.667810 -0.025933
C88   C     C_1   0.496366 1.000000 0.667810 -0.025933
C89   C     C_R   0.200763 0.535957 0.195621 -0.076646
C90   C     C_R   0.200763 0.464044 0.195622 -0.075487
C91   C     C_R   0.700763 0.035956 0.195622 -0.075467
C92   C     C_R   0.700763 0.964043 0.195620 -0.076666
C93   C     C_R   0.113424 0.366986 0.995301 0.077455
C94   C     C_R   0.113421 0.633015 0.995300 0.077426
C95   C     C_R   0.613421 0.866985 0.995300 0.077426
C96   C     C_R   0.613424 0.133014 0.995301 0.077455
C97   C     C_R   0.987866 0.500000 0.737640 0.088898
C98   C     C_R   0.487866 1.000000 0.737640 0.088898
C99   C     C_R   0.243386 0.500000 0.217154 0.047373
C100  C     C_R   0.743386 1.000000 0.217154 0.047374
C101  C     C_R   0.028213 0.463472 0.231622 0.159746
C102  C     C_R   0.028212 0.536528 0.231622 0.159802
C103  C     C_R   0.528212 0.963472 0.231622 0.159803
C104  C     C_R   0.528213 0.036528 0.231622 0.159745
C105  C     C_R   0.807253 0.535631 0.770842 -0.093398
C106  C     C_R   0.807254 0.464368 0.770843 -0.093139
C107  C     C_R   0.307254 0.035632 0.770843 -0.093135
C108  C     C_R   0.307253 0.964369 0.770842 -0.093403
H1    H     H_    0.433685 0.530458 0.458285 0.209608
H2    H     H_    0.432779 0.473386 0.460219 0.209674
H3    H     H_    0.932763 0.026547 0.460249 0.209674
H4    H     H_    0.933702 0.969477 0.458250 0.209606
H5    H     H_    0.031026 0.619996 0.861134 0.112071
H6    H     H_    0.031028 0.380004 0.861134 0.112127
H7    H     H_    0.531027 0.119996 0.861134 0.112126
H8    H     H_    0.531026 0.880003 0.861134 0.112072
H9    H     H_    0.977707 0.429630 0.756330 0.111836
H10   H     H_    0.977707 0.570370 0.756330 0.111776
H11   H     H_    0.477707 0.929630 0.756330 0.111777
H12   H     H_    0.477707 0.070370 0.756330 0.111835
H13   H     H_    0.217355 0.569725 0.206990 0.123227
H14   H     H_    0.217357 0.430276 0.206996 0.123707
H15   H     H_    0.717357 0.069724 0.206996 0.123714
H16   H     H_    0.717355 0.930275 0.206990 0.123218
H17   H     H_    0.800692 0.568044 0.745647 0.149010
H18   H     H_    0.800693 0.431956 0.745649 0.149007
H19   H     H_    0.300693 0.068044 0.745649 0.149007
H20   H     H_    0.300692 0.931956 0.745647 0.149010
H21   H     H_    0.607608 0.538669 0.414471 0.193334
H22   H     H_    0.606431 0.458278 0.416837 0.193489
H23   H     H_    0.106410 0.041772 0.416876 0.193492
H24   H     H_    0.107628 0.961382 0.414434 0.193332
N1    N     N_R   0.075400 0.419050 0.040930 -0.045530
N2    N     N_R   0.075400 0.580950 0.040930 -0.045463
N3    N     N_R   0.575400 0.919050 0.040930 -0.045462
N4    N     N_R   0.575400 0.080950 0.040930 -0.045531
N5    N     N_R   0.035610 0.578860 0.956800 -0.046712
N6    N     N_R   0.035610 0.421140 0.956800 -0.046729
N7    N     N_R   0.535610 0.078860 0.956800 -0.046729
N8    N     N_R   0.535610 0.921140 0.956800 -0.046712
N9    N     N_R   0.976800 0.476930 0.840160 -0.045948
N10   N     N_R   0.976800 0.523070 0.840160 -0.045927
N11   N     N_R   0.476800 0.976930 0.840160 -0.045926
N12   N     N_R   0.476800 0.023070 0.840160 -0.045948
N13   N     N_R   0.134210 0.520980 0.157560 -0.044524
N14   N     N_R   0.134210 0.479020 0.157560 -0.044678
N15   N     N_R   0.634210 0.020980 0.157560 -0.044681
N16   N     N_R   0.634210 0.979020 0.157560 -0.044521
N17   N     N_R   0.020160 0.476910 0.158980 -0.076712
N18   N     N_R   0.020160 0.523090 0.158980 -0.076677
N19   N     N_R   0.520160 0.976910 0.158980 -0.076677
N20   N     N_R   0.520160 0.023090 0.158980 -0.076713
N21   N     N_R   0.864590 0.520950 0.843300 -0.049105
N22   N     N_R   0.864590 0.479050 0.843300 -0.049148
N23   N     N_R   0.364590 0.020950 0.843300 -0.049149
N24   N     N_R   0.364590 0.979050 0.843300 -0.049104
N25   N     N_R   0.919150 0.419020 0.955970 -0.069988
N26   N     N_R   0.919150 0.580980 0.955970 -0.069948
N27   N     N_R   0.419150 0.919020 0.955970 -0.069948
N28   N     N_R   0.419150 0.080980 0.955970 -0.069989
N29   N     N_R   0.965610 0.578840 0.046310 -0.053372
N30   N     N_R   0.965610 0.421160 0.046310 -0.053396
N31   N     N_R   0.465610 0.078840 0.046310 -0.053396
N32   N     N_R   0.465610 0.921160 0.046310 -0.053372
Ni1   Ni    Ni4+2 0.047340 0.448440 0.099050 0.247688
Ni2   Ni    Ni4+2 0.047340 0.551560 0.099050 0.247578
Ni3   Ni    Ni4+2 0.547340 0.948440 0.099050 0.247576
Ni4   Ni    Ni4+2 0.547340 0.051560 0.099050 0.247689
Ni5   Ni    Ni4+2 0.950540 0.549450 0.900950 0.235931
Ni6   Ni    Ni4+2 0.950540 0.450550 0.900950 0.235938
Ni7   Ni    Ni4+2 0.450540 0.049450 0.900950 0.235938
Ni8   Ni    Ni4+2 0.450540 0.950550 0.900950 0.235932
H25   H     H_    0.154701 0.373334 0.130282 0.123384
H26   H     H_    0.154698 0.626668 0.130281 0.123118
H27   H     H_    0.654698 0.873332 0.130281 0.123114
H28   H     H_    0.654701 0.126666 0.130282 0.123389
I1    I     I_    0.483290 0.555397 0.247591 -0.285380
I2    I     I_    0.481492 0.439509 0.251527 -0.285768
I3    I     I_    0.981458 0.060577 0.251596 -0.285777
I4    I     I_    0.983322 0.944692 0.247527 -0.285370
I5    I     I_    0.445858 0.398166 0.385305 -0.353728
I6    I     I_    0.448171 0.602495 0.377620 -0.354855
I7    I     I_    0.948210 0.897496 0.377486 -0.354870
I8    I     I_    0.945819 0.101820 0.385438 -0.353710
H29   H     H_    0.588275 0.428696 0.483407 0.201926
H30   H     H_    0.589829 0.570779 0.478790 0.201823
H31   H     H_    0.089854 0.929231 0.478713 0.201821
H32   H     H_    0.088250 0.071312 0.483485 0.201927
H33   H     H_    0.549490 0.531128 0.567272 0.189457
H34   H     H_    0.548637 0.472300 0.569028 0.189631
H35   H     H_    0.048623 0.027642 0.569055 0.189635
H36   H     H_    0.049506 0.968815 0.567242 0.189452
I9    I     I_    0.081157 0.405245 0.297691 -0.392185
I10   I     I_    0.081152 0.594755 0.297691 -0.393499
I11   I     I_    0.581152 0.905245 0.297691 -0.393516
I12   I     I_    0.581157 0.094755 0.297691 -0.392166
I13   I     I_    0.822287 0.350099 0.818294 -0.411901
I14   I     I_    0.822288 0.649901 0.818294 -0.412746
I15   I     I_    0.322288 0.850099 0.818294 -0.412751
I16   I     I_    0.322288 0.149901 0.818295 -0.411897
H37   H     H_    0.967729 0.619624 0.140644 0.163609
H38   H     H_    0.967731 0.380376 0.140644 0.163582
H39   H     H_    0.467731 0.119624 0.140644 0.163581
H40   H     H_    0.467729 0.880376 0.140644 0.163610

loop_
_geom_bond_atom_site_label_1
_geom_bond_atom_site_label_2
_ccdc_geom_bond_type
C105  N21   A    
C21   C26   S    
C55   C59   S    
N6    Ni6   S    
N15   N16   A    
C24   C27   S    
C22   I2    S    
C36   H6    S    
N2    N5    A    
C91   N15   A    
N13   N14   A    
C47   C99   S    
C39   C41   S    
C72   C98   A    
C89   N13   A    
C21   C31   S    
N12   Ni7   S    
N22   Ni6   S    
C2    N2    A    
C89   C99   A    
C34   C40   S    
C64   C68   S    
C15   C106  A    
C71   N11   A    
C36   N6    A    
C84   C86   S    
N11   Ni8   S    
C22   I5    S    
C28   H32   S    
C39   H33   S    
C78   C80   T    
C7    N27   A    
C10   C17   A    
C16   C30   S    
N11   N12   A    
N18   Ni2   S    
C14   C78   S    
C65   C73   T    
C20   C76   S    
C52   C95   S    
C60   C62   T    
C45   C47   T    
C101  N17   A    
C42   H4    S    
C7    C19   A    
C16   C107  A    
C6    N26   A    
C4    C96   A    
C36   C93   A    
C106  N22   A    
C22   C25   S    
C108  N24   A    
C38   C95   A    
C24   I4    S    
N19   N20   A    
N2    Ni2   S    
C15   C29   S    
C69   C97   A    
C49   C94   S    
C23   I3    S    
N29   Ni2   S    
N26   N29   A    
C70   C97   A    
C103  N19   A    
C51   C96   S    
C4    N4    A    
C21   I1    S    
C27   H31   S    
C28   C34   S    
N1    N6    A    
C10   N30   A    
C91   H15   S    
C29   C43   T    
C24   I7    S    
C17   C73   S    
C27   H24   S    
C90   H14   S    
C30   C44   T    
C21   I6    S    
C103  I11   S    
N4    N7    A    
C1    N1    A    
C25   H22   S    
C102  I10   S    
C81   C83   T    
C101  I9    S    
C57   C63   T    
C46   C48   T    
N13   Ni2   S    
C85   C87   T    
C27   C34   S    
C58   C64   T    
N3    N8    A    
C6    C18   A    
C71   C98   A    
C13   C77   S    
C11   C20   A    
C70   N10   A    
C3    N3    A    
C59   C61   T    
N27   Ni8   S    
C62   C66   S    
C33   C43   S    
N28   N31   A    
C2    C94   A    
C48   C100  S    
N17   Ni1   S    
C80   C82   S    
C22   C31   S    
C79   C81   S    
C39   H34   S    
C53   C57   S    
C9    H37   S    
C11   H39   S    
N4    Ni4   S    
C51   C55   T    
N24   Ni8   S    
C1    C93   A    
C56   C60   S    
C37   C96   A    
C42   H3    S    
C24   C32   S    
C63   C67   S    
N1    Ni1   S    
N25   Ni6   S    
C12   N32   A    
N30   Ni1   S    
C38   H8    S    
C26   C33   S    
C14   C104  A    
C40   H36   S    
C88   C98   S    
C1    H25   S    
C72   H12   S    
C11   N31   A    
C104  I12   S    
C77   C79   T    
C34   C44   S    
N26   Ni5   S    
C33   C39   S    
C23   C28   S    
C108  H20   S    
C9    N29   A    
C10   H38   S    
C26   H21   S    
C25   H29   S    
C102  N18   A    
N10   Ni5   S    
C3    H27   S    
C83   C85   S    
N14   Ni1   S    
C16   C108  A    
C82   C84   T    
C41   H2    S    
C37   N7    A    
C91   C100  A    
C8    I16   S    
C67   C75   T    
N20   Ni4   S    
C13   C101  A    
C8    N28   A    
C90   C99   A    
C50   C54   T    
C3    C95   A    
C92   C100  A    
C6    I14   S    
C54   C58   S    
C35   C94   A    
C72   N12   A    
N3    Ni3   S    
C31   C41   S    
C92   H16   S    
C32   C46   S    
N5    Ni5   S    
N32   Ni3   S    
C23   C32   S    
C40   C42   S    
C8    C20   A    
C5    I13   S    
C50   C93   S    
C31   C45   S    
C37   H7    S    
N19   Ni3   S    
C71   H11   S    
C68   C76   T    
C106  H18   S    
C5    N25   A    
C105  H17   S    
C28   H23   S    
N7    Ni7   S    
C15   C105  A    
C19   C75   S    
N31   Ni4   S    
C13   C102  A    
C107  H19   S    
C23   I8    S    
C90   N14   A    
N9    N10   A    
C35   N5    A    
C92   N16   A    
C26   H30   S    
C104  N20   A    
C14   C103  A    
C32   C42   S    
C40   H35   S    
C89   H13   S    
C70   H10   S    
C49   C53   T    
C12   C19   A    
C69   H9    S    
N9    Ni6   S    
N28   Ni7   S    
C35   H5    S    
C86   C88   T    
C12   H40   S    
C61   C65   S    
C7    I15   S    
C107  N23   A    
N15   Ni4   S    
N8    Ni8   S    
N23   Ni7   S    
C9    C18   A    
C5    C17   A    
C18   C74   S    
C4    H28   S    
N21   Ni5   S    
N23   N24   A    
N16   Ni3   S    
C38   N8    A    
N27   N32   A    
C41   H1    S    
N21   N22   A    
N17   N18   A    
C69   N9    A    
N25   N30   A    
C2    H26   S    
C52   C56   T    
C25   C33   S    
C87   C97   S    
C66   C74   T    
