data_mof_unit_36518.cif
_audit_creation_date              2012-12-11T15:20:19-0500
_audit_creation_method            fapswitch 2.2
_symmetry_space_group_name_H-M    P1
_symmetry_Int_Tables_number       1
_space_group_crystal_system       triclinic
_cell_length_a                    13.041295
_cell_length_b                    13.081023
_cell_length_c                    15.497958
_cell_angle_alpha                 116.651145
_cell_angle_beta                  62.522323
_cell_angle_gamma                 97.839601
_cell_volume                      2088.07148997

loop_
_atom_site_label
_atom_site_type_symbol
_atom_type_description
_atom_site_fract_x
_atom_site_fract_y
_atom_site_fract_z
_atom_type_partial_charge
C1    C     C_R   0.012118 0.834417 0.039054 -0.160993
C2    C     C_R   0.706424 0.425080 0.302582 0.050629
C3    C     C_R   0.635350 0.563414 0.033716 0.156152
C4    C     C_R   0.970664 0.825713 0.324993 0.119260
C5    C     C_R   0.337347 0.546386 0.981096 0.178089
C6    C     C_R   0.907605 0.198359 0.792175 -0.029379
C7    C     C_R   0.217881 0.439445 0.684764 -0.109591
C8    C     C_R   0.078856 0.249660 0.061235 -0.272512
C9    C     C_R   0.983643 0.166196 0.963698 0.693873
C10   C     C_R   0.321304 0.527572 0.774747 -0.134006
C11   C     C_R   0.255814 0.446325 0.076788 -0.149360
C12   C     C_R   0.702133 0.401508 0.208105 -0.153525
C13   C     C_R   0.990747 0.296957 0.695512 -0.156736
C14   C     C_R   0.359183 0.482563 0.021649 -0.015565
C15   C     C_R   0.935107 0.201249 0.697258 0.032451
C16   C     C_R   0.329129 0.451190 0.674069 0.027446
C17   C     C_R   0.056426 0.142760 0.997126 -0.026891
C18   C     C_R   0.050928 0.939069 0.446268 -0.235558
C19   C     C_R   0.042507 0.033857 0.537516 -0.140115
C20   C     C_R   0.939335 0.104988 0.605071 0.063222
C21   C     C_R   0.842899 0.082371 0.585226 -0.359751
C22   C     C_R   0.851548 0.987176 0.492878 0.745133
C23   C     C_R   0.735850 0.577663 0.952769 -0.155858
C24   C     C_R   0.956394 0.918058 0.423783 -0.067077
C25   C     C_R   0.638892 0.422993 0.479529 -0.174745
C26   C     C_R   0.543712 0.429069 0.573082 -0.153643
C27   C     C_R   0.435837 0.403638 0.572909 0.146055
C28   C     C_R   0.430507 0.347078 0.474147 -0.163697
C29   C     C_R   0.525815 0.340089 0.380471 -0.165887
C30   C     C_R   0.626371 0.389626 0.385639 0.134655
C31   C     C_2   0.467495 0.472705 0.020322 0.174813
C32   C     C_2   0.518852 0.570305 0.050572 -0.342890
C33   C     C_2   0.869096 0.961977 0.047319 -0.276481
C34   C     C_R   0.949715 0.717220 0.316004 -0.151098
C35   C     C_2   0.834865 0.050976 0.145730 0.158780
C36   C     C_R   0.664253 0.491535 0.061621 -0.054921
C37   C     C_R   0.041929 0.819699 0.222790 0.144552
C38   C     C_R   0.801354 0.486667 0.302775 -0.104064
C39   C     C_R   0.918298 0.748555 0.939600 -0.106690
C40   C     C_R   0.933019 0.853714 0.009817 0.146083
H1    H     H_    0.048305 0.900814 0.085412 0.137364
H2    H     H_    0.852678 0.140219 0.821998 0.168295
H3    H     H_    0.191098 0.390230 0.622599 0.090118
H4    H     H_    0.128214 0.263599 0.104785 0.143789
H5    H     H_    0.393178 0.566037 0.787443 0.139304
H6    H     H_    0.239545 0.408373 0.130573 0.115965
H7    H     H_    0.014882 0.328630 0.635712 0.104801
H8    H     H_    0.131326 0.883892 0.391818 0.156979
H9    H     H_    0.116054 0.052553 0.555361 0.143511
H10   H     H_    0.763254 0.138589 0.639782 0.160393
H11   H     H_    0.650047 0.341302 0.174440 0.096112
H12   H     H_    0.718049 0.454254 0.484375 0.111207
H13   H     H_    0.553131 0.463667 0.646570 0.106019
H14   H     H_    0.350686 0.318439 0.469582 0.108690
H15   H     H_    0.515224 0.306954 0.307734 0.111267
H16   H     H_    0.474976 0.654669 0.086876 0.159817
H17   H     H_    0.839963 0.966837 0.994065 0.197289
H18   H     H_    0.739552 0.617295 0.903710 0.098617
H19   H     H_    0.907626 0.690694 0.380306 0.118157
H20   H     H_    0.605922 0.456020 0.115791 0.115242
H21   H     H_    0.839524 0.505918 0.356533 0.080056
H22   H     H_    0.870801 0.734238 0.894473 0.096221
N1    N     N_R   0.037310 0.720000 0.995790 -0.049612
N2    N     N_R   0.946240 0.290860 0.848040 -0.049952
N3    N     N_R   0.146140 0.501160 0.788590 -0.039717
N4    N     N_R   0.025760 0.332690 0.063610 -0.068436
N5    N     N_R   0.962690 0.280000 0.004210 -0.109396
N6    N     N_R   0.209210 0.553840 0.847990 -0.040182
N7    N     N_R   0.175110 0.482040 0.063580 -0.048594
N8    N     N_R   0.996790 0.351810 0.788620 -0.045926
N9    N     N_R   0.790790 0.446160 0.152010 -0.044352
N10   N     N_R   0.824890 0.517960 0.936420 -0.046149
N11   N     N_R   0.003210 0.648190 0.211380 -0.057864
N12   N     N_R   0.774330 0.457010 0.995840 -0.055770
N13   N     N_R   0.053760 0.709140 0.151960 -0.076601
N14   N     N_R   0.853860 0.498840 0.211410 -0.033292
N15   N     N_R   0.974240 0.667310 0.936390 -0.042492
N16   N     N_R   0.225670 0.542990 0.004160 -0.053287
Ni1   Ni    Ni4+2 0.130310 0.630310 0.999970 0.208756
Ni2   Ni    Ni4+2 0.869690 0.369690 0.000030 0.229653
Ni3   Ni    Ni4+2 0.985640 0.509470 0.863740 0.211975
Ni4   Ni    Ni4+2 0.014360 0.490530 0.136260 0.202570
F1    F     F_    0.939069 0.085904 0.901115 -0.757474
F2    F     F_    0.760623 0.964165 0.468889 -0.709573
N17   N     N_2   0.529430 0.361813 0.961964 -0.098464
H23   H     H_    0.553285 0.325979 0.880256 0.173005
C41   C     C_3   0.477804 0.281933 0.008152 -0.938589
H24   H     H_    0.541954 0.207549 0.967994 0.254007
H25   H     H_    0.400432 0.249769 0.995024 0.253662
H26   H     H_    0.452771 0.323404 0.096169 0.245531
N18   N     N_2   0.852786 0.052134 0.229769 -0.110084
H27   H     H_    0.841728 0.975808 0.236145 0.205782
C42   C     C_3   0.796287 0.152381 0.331360 -0.847259
H28   H     H_    0.815107 0.149487 0.393166 0.256140
H29   H     H_    0.700740 0.155359 0.360549 0.261398
H30   H     H_    0.829071 0.231389 0.321487 0.238443
N19   N     N_2   0.123248 0.900489 0.201178 -0.121847
H31   H     H_    0.184680 0.875728 0.122557 0.169121
C43   C     C_3   0.086279 0.022303 0.261986 -0.930085
H32   H     H_    0.107685 0.061333 0.205733 0.246925
H33   H     H_    0.132780 0.064924 0.311904 0.262319
H34   H     H_    0.991670 0.038981 0.315113 0.263046
N20   N     N_2   0.415785 0.616190 0.936173 -0.132007
H35   H     H_    0.503361 0.597505 0.905354 0.164157
C44   C     C_3   0.377252 0.735230 0.982704 -0.981841
H36   H     H_    0.448087 0.779742 0.942166 0.258198
H37   H     H_    0.353777 0.776994 0.070345 0.257001
H38   H     H_    0.302917 0.741654 0.968664 0.257785

loop_
_geom_bond_atom_site_label_1
_geom_bond_atom_site_label_2
_ccdc_geom_bond_type
C23   H18   S    
C41   H24   S    
C5    N20   S    
C8    N4    A    
C42   H28   S    
C31   N17   S    
N2    Ni2   S    
C3    C23   A    
C19   C20   A    
C14   C31   S    
C2    C12   A    
C37   N19   S    
N19   H31   S    
N1    Ni1   S    
N17   H23   S    
C44   H37   S    
C26   C27   A    
C18   C24   A    
C39   N15   A    
C28   C29   A    
N9    N14   A    
C4    C24   S    
C11   C14   A    
N18   C42   S    
C13   N8    A    
C18   C19   A    
C6    N2    A    
N8    Ni3   S    
C2    C38   A    
C21   H10   S    
N7    Ni4   S    
C1    C40   A    
C6    C15   A    
C31   C32   D    
N2    N8    A    
N10   Ni3   S    
C38   H21   S    
C16   C27   S    
N4    N5    A    
C37   N13   A    
C42   H29   S    
N12   Ni2   S    
C21   C22   A    
N11   N13   A    
N7    N16   A    
C1    N1    A    
N9    Ni2   S    
N19   C43   S    
N17   C41   S    
C15   C20   S    
C44   H38   S    
C4    C34   A    
C33   C40   S    
N10   N12   A    
N14   Ni4   S    
C39   C40   A    
C13   H7    S    
C28   H14   S    
N16   Ni1   S    
C38   N14   A    
C29   H15   S    
C25   C26   A    
C22   F2    S    
C9    N5    A    
C29   C30   A    
N4    Ni4   S    
C19   H9    S    
N3    Ni3   S    
C43   H32   S    
N15   Ni3   S    
N3    N6    A    
C10   H5    S    
N20   C44   S    
C20   C21   A    
C5    C14   A    
C36   N12   A    
C9    F1    S    
C9    C17   A    
C7    C16   A    
C43   H33   S    
C12   N9    A    
C42   H30   S    
C7    H3    S    
C13   C15   A    
C34   H19   S    
C22   C24   A    
C26   H13   S    
N11   Ni4   S    
N18   H27   S    
C12   H11   S    
N1    N15   A    
C1    H1    S    
C25   C30   A    
C39   H22   S    
C33   H17   S    
C7    N3    A    
N5    Ni2   S    
C8    H4    S    
C36   H20   S    
C18   H8    S    
C11   N7    A    
C10   N6    A    
C44   H36   S    
C8    C17   A    
C2    C30   S    
C41   H25   S    
C25   H12   S    
C10   C16   A    
C3    C36   A    
N6    Ni1   S    
C33   C35   D    
C23   N10   A    
C3    C32   S    
C34   N11   A    
C43   H34   S    
C4    C37   A    
C6    H2    S    
C41   H26   S    
N20   H35   S    
C11   H6    S    
C5    N16   A    
N13   Ni1   S    
C32   H16   S    
C27   C28   A    
C35   N18   S    
