data_mof_unit_52653.cif
_audit_creation_date              2012-12-10T20:58:04-0500
_audit_creation_method            fapswitch 2.2
_symmetry_space_group_name_H-M    P1
_symmetry_Int_Tables_number       1
_space_group_crystal_system       triclinic
_cell_length_a                    18.19081
_cell_length_b                    18.273601
_cell_length_c                    18.417062
_cell_angle_alpha                 120.264114
_cell_angle_beta                  90.024537
_cell_angle_gamma                 119.957466
_cell_volume                      4313.43258011

loop_
_atom_site_label
_atom_site_type_symbol
_atom_type_description
_atom_site_fract_x
_atom_site_fract_y
_atom_site_fract_z
_atom_type_partial_charge
C1    C     C_R   0.360116 0.220306 0.360713 0.506476
C2    C     C_3   0.762044 0.941522 0.654396 -0.231869
C3    C     C_3   0.697935 0.897316 0.698824 0.034319
C4    C     C_R   0.640873 0.780942 0.639861 0.493478
C5    C     C_3   0.797923 0.102474 0.802374 0.042190
C6    C     C_3   0.813464 0.059899 0.852084 -0.109365
C7    C     C_3   0.824267 0.061680 0.717226 -0.231606
C8    C     C_3   0.677592 0.389774 0.240715 -0.208296
C9    C     C_3   0.737111 0.388541 0.180117 -0.090871
C10   C     C_3   0.680486 0.530704 0.243320 -0.242156
C11   C     C_3   0.799689 0.577795 0.360176 -0.228395
C12   C     C_3   0.346481 0.612124 0.324920 -0.080202
C13   C     C_3   0.698414 0.499715 0.302138 0.046622
C14   C     C_3   0.799962 0.499023 0.200797 0.064746
C15   C     C_3   0.739633 0.529334 0.183156 -0.259967
C16   C     C_R   0.359147 0.500487 0.640593 0.502640
C17   C     C_3   0.859181 0.580141 0.301302 -0.215508
C18   C     C_R   0.579774 0.222225 0.453927 -0.104313
C19   C     C_R   0.499806 0.164496 0.385000 -0.079197
C20   C     C_R   0.416121 0.114288 0.395176 0.034369
C21   C     C_R   0.413495 0.123528 0.475454 -0.084266
C22   C     C_R   0.493644 0.181151 0.544148 -0.093846
C23   C     C_3   0.300882 0.500731 0.301642 0.052896
C24   C     C_R   0.576680 0.230069 0.533224 -0.083500
C25   C     C_R   0.277532 0.945726 0.266897 -0.015604
C26   C     C_R   0.197703 0.892300 0.197569 0.036241
C27   C     C_R   0.174465 0.946950 0.180961 -0.052038
C28   C     C_R   0.640821 0.500173 0.359455 0.498004
C29   C     C_R   0.230803 0.054560 0.233905 -0.154138
C30   C     C_R   0.306925 0.108066 0.304899 0.018302
C31   C     C_R   0.331132 0.054995 0.322709 -0.058188
C32   C     C_R   0.095975 0.906991 0.040784 -0.081003
C33   C     C_R   0.017570 0.853750 0.971920 -0.108016
C34   C     C_3   0.197575 0.499538 0.200079 0.012128
C35   C     C_R   0.933491 0.787353 0.971703 -0.090669
C36   C     C_R   0.927577 0.774397 0.040549 -0.099493
C37   C     C_R   0.005749 0.827606 0.109619 -0.078502
C38   C     C_R   0.090778 0.893575 0.109794 0.048702
C39   C     C_R   0.897213 0.568828 0.536232 -0.119893
C40   C     C_R   0.642005 0.500010 0.639797 0.510806
C41   C     C_R   0.846758 0.525166 0.577888 -0.090370
C42   C     C_R   0.836837 0.586593 0.656945 0.062136
C43   C     C_R   0.878022 0.692032 0.694071 -0.055700
C44   C     C_R   0.927480 0.735085 0.651590 -0.103708
C45   C     C_3   0.148184 0.466998 0.258836 -0.114100
C46   C     C_R   0.937374 0.673640 0.572928 -0.114154
C47   C     C_R   0.839029 0.540298 0.759502 -0.157956
C48   C     C_R   0.799499 0.499588 0.806875 0.019989
C49   C     C_R   0.708481 0.460259 0.799716 -0.043838
C50   C     C_R   0.659225 0.462539 0.744900 -0.162467
C51   C     C_R   0.698577 0.502481 0.696990 0.015859
C52   C     C_R   0.358148 0.500134 0.359295 0.501662
C53   C     C_R   0.789849 0.542789 0.704850 -0.045594
C54   C     C_R   0.619691 0.312414 0.812065 -0.064791
C55   C     C_R   0.570858 0.270742 0.855666 -0.109466
C56   C     C_3   0.286142 0.610307 0.263276 -0.214251
C57   C     C_R   0.562220 0.333511 0.934648 -0.106617
C58   C     C_R   0.602591 0.438071 0.970211 -0.122827
C59   C     C_R   0.652831 0.480446 0.927686 -0.093337
C60   C     C_R   0.661887 0.417827 0.848582 0.062513
C61   C     C_R   0.375867 0.789382 0.704521 -0.100770
C62   C     C_R   0.360482 0.728320 0.734960 -0.059647
C63   C     C_R   0.282777 0.625942 0.687659 0.060848
C64   C     C_3   0.281290 0.422588 0.200983 -0.220163
C65   C     C_R   0.220057 0.585970 0.610631 -0.079919
C66   C     C_R   0.235475 0.647516 0.580731 -0.109116
C67   C     C_3   0.637361 0.937369 0.716277 -0.200830
C68   C     C_R   0.313520 0.748928 0.627363 -0.097900
C69   C     C_R   0.213216 0.557539 0.772286 -0.151326
C70   C     C_R   0.194448 0.497536 0.804648 0.019243
C71   C     C_R   0.230093 0.438412 0.782443 -0.034992
C72   C     C_R   0.283876 0.441732 0.729249 -0.154267
C73   C     C_R   0.302703 0.501801 0.696963 0.017085
C74   C     C_R   0.266873 0.560692 0.718962 -0.035445
C75   C     C_R   0.279424 0.411103 0.887748 -0.079508
C76   C     C_3   0.224270 0.425175 0.142055 -0.241542
C77   C     C_R   0.264280 0.349644 0.917661 -0.112762
C78   C     C_3   0.695165 0.057224 0.772999 -0.072133
C79   C     C_R   0.184055 0.250271 0.874033 -0.101284
C80   C     C_R   0.119256 0.211667 0.799725 -0.098173
C81   C     C_R   0.134422 0.272551 0.769141 -0.059331
C82   C     C_R   0.214262 0.373105 0.813687 0.058631
C83   C     C_R   0.857126 0.499905 0.142926 0.498477
C84   C     C_R   0.138461 0.499369 0.861483 0.508529
C85   C     C_R   0.856610 0.219129 0.861383 0.515644
C86   C     C_R   0.139062 0.779703 0.141533 0.553084
C87   C     C_R   0.855787 0.500475 0.862841 0.507707
C88   C     C_3   0.208753 0.465594 0.316961 -0.267006
C89   C     C_3   0.755018 0.939078 0.790157 -0.253022
C90   C     C_R   0.139953 0.500085 0.142762 0.537214
C91   C     C_2   0.672597 0.094562 0.724971 0.206510
C92   C     C_2   0.795822 0.098709 0.939784 0.203405
C93   C     C_2   0.788140 0.345936 0.186373 0.232393
C94   C     C_2   0.308755 0.889532 0.278761 0.233963
C95   C     C_2   0.057240 0.363397 0.203746 0.245194
C96   C     C_2   0.441925 0.660331 0.323208 0.211645
H1    H     H_    0.244217 0.342450 0.183431 0.113241
H2    H     H_    0.721811 0.915770 0.590521 0.148267
H3    H     H_    0.821188 0.094497 0.681314 0.169383
H4    H     H_    0.895329 0.087668 0.736316 0.104608
H5    H     H_    0.799971 0.912662 0.779779 0.124692
H6    H     H_    0.885541 0.087949 0.867478 0.155202
H7    H     H_    0.605330 0.332273 0.197774 0.110405
H8    H     H_    0.687918 0.365771 0.282420 0.149176
H9    H     H_    0.608206 0.476007 0.200765 0.137459
H10   H     H_    0.263786 0.452194 0.104251 0.154834
H11   H     H_    0.814218 0.554340 0.400257 0.156122
H12   H     H_    0.219377 0.518396 0.388502 0.124517
H13   H     H_    0.906839 0.565278 0.317817 0.182148
H14   H     H_    0.900805 0.659439 0.316891 0.113487
H15   H     H_    0.781911 0.607011 0.195669 0.111499
H16   H     H_    0.638635 0.274410 0.586331 0.118710
H17   H     H_    0.644141 0.260903 0.445891 0.106358
H18   H     H_    0.502939 0.159058 0.323880 0.106195
H19   H     H_    0.163515 0.345116 0.091950 0.123714
H20   H     H_    0.349492 0.086302 0.484686 0.097893
H21   H     H_    0.213312 0.097229 0.221981 0.125293
H22   H     H_    0.022014 0.863582 0.918469 0.099137
H23   H     H_    0.136947 0.526773 0.304896 0.154388
H24   H     H_    0.872940 0.745923 0.918187 0.110150
H25   H     H_    0.000148 0.816786 0.162527 0.086932
H26   H     H_    0.175585 0.386883 0.301954 0.111249
H27   H     H_    0.905131 0.521428 0.475436 0.145132
H28   H     H_    0.816443 0.444120 0.549361 0.102908
H29   H     H_    0.872022 0.740614 0.755860 0.093476
H30   H     H_    0.958775 0.816247 0.680045 0.094327
H31   H     H_    0.908879 0.570135 0.764482 0.148266
H32   H     H_    0.589393 0.432816 0.739937 0.145631
H33   H     H_    0.538970 0.189614 0.827775 0.088845
H34   H     H_    0.594312 0.910900 0.752520 0.094703
H35   H     H_    0.523977 0.301104 0.968119 0.101061
H36   H     H_    0.595143 0.486355 0.030906 0.109848
H37   H     H_    0.683529 0.561394 0.955517 0.096049
H38   H     H_    0.325505 0.796281 0.603908 0.101507
H39   H     H_    0.435995 0.868088 0.740789 0.088049
H40   H     H_    0.409253 0.760212 0.794667 0.099110
H41   H     H_    0.159640 0.507311 0.573789 0.104902
H42   H     H_    0.186915 0.616650 0.521466 0.102277
H43   H     H_    0.186015 0.602754 0.788487 0.145819
H44   H     H_    0.311144 0.396587 0.713096 0.144344
H45   H     H_    0.590509 0.902243 0.651556 0.170790
H46   H     H_    0.341550 0.488231 0.922330 0.113096
H47   H     H_    0.314691 0.379094 0.974727 0.107856
H48   H     H_    0.351432 0.663416 0.394774 0.088610
H49   H     H_    0.172251 0.203080 0.897625 0.098742
H50   H     H_    0.057357 0.134559 0.765812 0.088528
H51   H     H_    0.321726 0.635749 0.222807 0.180455
H52   H     H_    0.270354 0.666793 0.305490 0.118395
H53   H     H_    0.659984 0.153435 0.760364 0.119498
H54   H     H_    0.728030 0.073808 0.940847 0.095258
H55   H     H_    0.790804 0.290822 0.125773 0.152297
H56   H     H_    0.676093 0.084564 0.833907 0.064808
H57   H     H_    0.691022 0.334081 0.109645 0.082019
H58   H     H_    0.695514 0.472427 0.112192 0.139735
H59   H     H_    0.816663 0.657283 0.407356 0.126703
H60   H     H_    0.695622 0.609736 0.286421 0.124871
H61   H     H_    0.491420 0.188062 0.605906 0.102915
H62   H     H_    0.347144 0.921252 0.344423 0.105266
H63   H     H_    0.160771 0.957316 0.039606 0.105402
H64   H     H_    0.862424 0.722866 0.040254 0.094613
H65   H     H_    0.976070 0.707157 0.540324 0.102720
H66   H     H_    0.624409 0.262857 0.749823 0.102207
H67   H     H_    0.709584 0.905239 0.821273 0.109397
H68   H     H_    0.052415 0.292889 0.157100 0.124326
H69   H     H_    0.083773 0.242099 0.711642 0.096623
H70   H     H_    0.498038 0.719500 0.385702 0.113129
H71   H     H_    0.804136 0.911237 0.638200 0.121155
H72   H     H_    0.344936 0.440076 0.186184 0.181930
O1    O     O_3   0.500000 0.500000 0.500000 -0.436007
O2    O     O_R   0.113800 0.731630 0.056520 -0.527523
O3    O     O_R   0.819390 0.439310 0.886160 -0.542609
O4    O     O_R   0.383400 0.268380 0.323710 -0.552048
O5    O     O_R   0.115110 0.560720 0.179280 -0.521568
O6    O     O_R   0.941380 0.560750 0.885620 -0.549964
O7    O     O_R   0.115110 0.439270 0.057830 -0.536238
O8    O     O_R   0.942690 0.268390 0.886930 -0.539812
O9    O     O_R   0.114340 0.731630 0.178520 -0.529727
O10   O     O_R   0.820160 0.439310 0.057830 -0.554935
O11   O     O_R   0.113800 0.560730 0.885620 -0.548476
O12   O     O_R   0.383400 0.560740 0.616060 -0.533493
O13   O     O_R   0.555060 0.731630 0.615290 -0.552573
O14   O     O_R   0.383950 0.439280 0.616600 -0.553290
O15   O     O_R   0.677590 0.560710 0.444390 -0.545831
O16   O     O_R   0.556370 0.439260 0.616600 -0.545213
O17   O     O_R   0.382640 0.439290 0.322940 -0.547047
O18   O     O_R   0.678360 0.560700 0.616060 -0.538230
O19   O     O_R   0.382640 0.560750 0.444390 -0.551677
O20   O     O_2   0.669334 0.060784 0.647605 -0.539097
O21   O     O_2   0.857621 0.157619 0.010300 -0.488119
O22   O     O_2   0.828676 0.374625 0.258433 -0.490878
O23   O     O_R   0.555060 0.439270 0.322940 -0.547628
O24   O     O_2   0.295336 0.809483 0.214927 -0.506446
O25   O     O_2   0.988416 0.358009 0.211643 -0.439480
O26   O     O_2   0.457219 0.632187 0.252878 -0.529281
O27   O     O_R   0.383950 0.268380 0.445700 -0.529960
O28   O     O_R   0.677590 0.731610 0.615290 -0.547953
O29   O     O_3   0.997750 0.500010 0.002220 -0.444452
O30   O     O_R   0.942690 0.560750 0.179280 -0.546300
O31   O     O_R   0.114340 0.439270 0.886160 -0.537012
O32   O     O_R   0.820160 0.268410 0.886930 -0.558900
Zn1   Zn    Zn3+2 0.456040 0.586770 0.543190 0.926448
Zn2   Zn    Zn3+2 0.456820 0.413240 0.543960 0.933712
Zn3   Zn    Zn3+2 0.631110 0.586750 0.543190 0.926574
Zn4   Zn    Zn3+2 0.456040 0.413240 0.369660 0.922523
Zn5   Zn    Zn3+2 0.041710 0.413240 0.959030 0.968625
Zn6   Zn    Zn3+2 0.866640 0.413270 0.959030 0.930451
Zn7   Zn    Zn3+2 0.040930 0.586780 0.958260 0.950783
Zn8   Zn    Zn3+2 0.041710 0.586770 0.132560 0.975559

loop_
_geom_bond_atom_site_label_1
_geom_bond_atom_site_label_2
_ccdc_geom_bond_type
C25   C31   A    
C66   C68   A    
C91   O20   D    
C63   C65   A    
C34   C56   S    
C8    C13   S    
C27   C29   A    
C41   C42   A    
O29   Zn5   S    
C35   C36   A    
C24   H16   S    
C43   C44   A    
C17   H14   S    
C85   O8    A    
C77   H47   S    
C81   C82   A    
C35   H24   S    
C78   H56   S    
C39   C41   A    
O27   Zn2   S    
C54   C60   A    
C93   O22   D    
C90   O5    A    
C44   H30   S    
C26   C27   A    
C62   C63   A    
C49   C60   S    
C7    H3    S    
C18   C24   A    
C41   H28   S    
C36   C37   A    
C1    O27   A    
C28   O15   A    
C10   C15   S    
C42   C53   S    
C30   C31   A    
C88   H12   S    
C16   O14   A    
C40   O18   A    
C27   C38   S    
O31   Zn5   S    
C76   H19   S    
C39   H27   S    
C18   C19   A    
C73   C74   A    
C62   H40   S    
O4    Zn4   S    
C6    C89   S    
C15   H58   S    
O1    Zn2   S    
C25   C94   S    
C2    C7    S    
C58   H36   S    
C8    C9    S    
C55   H33   S    
C46   H65   S    
C66   H42   S    
C48   C49   A    
O32   Zn6   S    
C13   C28   S    
C70   C71   A    
C52   O19   A    
C32   C38   A    
C4    O13   A    
C70   C84   S    
C42   C43   A    
C11   H59   S    
C47   C53   A    
C71   C82   S    
C5    C85   S    
C45   H23   S    
C80   H50   S    
C9    H57   S    
C59   C60   A    
C94   H62   S    
O14   Zn2   S    
C21   C22   A    
C14   C17   S    
C43   H29   S    
O29   Zn6   S    
C61   C62   A    
C67   C78   S    
C14   C83   S    
C21   H20   S    
C18   H17   S    
C44   C46   A    
C57   C58   A    
C77   C79   A    
C84   O31   A    
O11   Zn7   S    
O16   Zn2   S    
C7    H4    S    
O30   Zn8   S    
C16   C73   S    
C15   H15   S    
C69   C74   A    
C45   C88   S    
C79   H49   S    
O12   Zn1   S    
C10   H60   S    
C91   H53   S    
C72   C73   A    
C19   H18   S    
C25   C26   A    
C29   H21   S    
C90   O7    A    
C59   H37   S    
C86   O9    A    
C12   H48   S    
O28   Zn3   S    
O8    Zn5   S    
C56   H52   S    
C84   O11   A    
C9    C14   S    
C34   C90   S    
C29   C30   A    
C75   H46   S    
O1    Zn3   S    
C8    H8    S    
C85   O32   A    
C47   C48   A    
C12   C23   S    
C72   H44   S    
C26   C86   S    
C87   O3    A    
C50   C51   A    
C64   C76   S    
C48   C87   S    
C69   H43   S    
C34   C45   S    
C54   H66   S    
O3    Zn6   S    
C75   C77   A    
C12   C56   S    
C39   C46   A    
C37   H25   S    
C88   H26   S    
C64   H1    S    
C22   H61   S    
C49   C50   A    
C37   C38   A    
C83   O30   A    
C23   C88   S    
C55   C57   A    
C92   H54   S    
O6    Zn7   S    
C22   C24   A    
C93   H55   S    
C67   H34   S    
C50   H32   S    
C52   O17   A    
O7    Zn5   S    
C3    C4    S    
C67   H45   S    
C28   O23   A    
C9    C93   S    
C92   O21   D    
C61   H39   S    
C5    C7    S    
C4    O28   A    
C87   O6    A    
C54   C55   A    
C11   C17   S    
C76   H10   S    
C83   O10   A    
C89   H5    S    
C86   O2    A    
C57   H35   S    
O13   Zn1   S    
C80   C81   A    
O29   Zn8   S    
C10   C13   S    
C17   H13   S    
C75   C82   A    
C47   H31   S    
C63   C74   S    
C78   C91   S    
C40   C51   S    
O19   Zn1   S    
C1    O4    A    
O9    Zn8   S    
C3    C89   S    
O15   Zn3   S    
C32   C33   A    
C32   H63   S    
C19   C20   A    
C68   H38   S    
C2    C3    S    
C58   C59   A    
C23   C64   S    
C65   H41   S    
O2    Zn7   S    
C64   H72   S    
C95   H68   S    
O1    Zn4   S    
C11   H11   S    
C11   C13   S    
C61   C68   A    
C23   C52   S    
C5    C6    S    
C3    C67   S    
C56   H51   S    
C6    C92   S    
O10   Zn6   S    
C96   O26   D    
C1    C30   S    
C33   C35   A    
O18   Zn3   S    
O5    Zn8   S    
C96   H70   S    
C6    H6    S    
C69   C70   A    
C8    H7    S    
C94   O24   D    
O29   Zn7   S    
C36   H64   S    
O1    Zn1   S    
C79   C80   A    
C33   H22   S    
C71   C72   A    
C20   C21   A    
C2    H2    S    
C95   O25   D    
C65   C66   A    
O23   Zn4   S    
O17   Zn4   S    
C81   H69   S    
C14   C15   S    
C12   C96   S    
C10   H9    S    
C51   C53   A    
C5    C78   S    
C2    H71   S    
C89   H67   S    
C16   O12   A    
C34   C76   S    
C40   O16   A    
C20   C31   S    
C45   C95   S    
