data_mof_unit_25955.cif
_audit_creation_date              2012-12-11T14:52:29-0500
_audit_creation_method            fapswitch 2.2
_symmetry_space_group_name_H-M    P1
_symmetry_Int_Tables_number       1
_space_group_crystal_system       triclinic
_cell_length_a                    18.823934
_cell_length_b                    11.001143
_cell_length_c                    18.758564
_cell_angle_alpha                 90.048098
_cell_angle_beta                  91.39944
_cell_angle_gamma                 89.869268
_cell_volume                      3883.44331037

loop_
_atom_site_label
_atom_site_type_symbol
_atom_type_description
_atom_site_fract_x
_atom_site_fract_y
_atom_site_fract_z
_atom_type_partial_charge
C1    C     C_R   0.273038 0.040673 0.854404 0.552079
C2    C     C_R   0.727027 0.040845 0.145644 0.547677
C3    C     C_R   0.773038 0.540673 0.854404 0.552062
C4    C     C_R   0.227027 0.540845 0.145644 0.547685
C5    C     C_3   0.529842 0.727513 0.971720 -0.063152
C6    C     C_3   0.470986 0.727319 0.028032 -0.061434
C7    C     C_3   0.029842 0.227513 0.971720 -0.063149
C8    C     C_3   0.970986 0.227319 0.028032 -0.061435
C9    C     C_R   0.305014 0.524509 0.963814 0.280218
C10   C     C_R   0.695039 0.524608 0.036211 0.251454
C11   C     C_R   0.805014 0.024509 0.963814 0.280221
C12   C     C_R   0.195039 0.024609 0.036211 0.251458
C13   C     C_R   0.300289 0.521001 0.038081 -0.078492
C14   C     C_R   0.699854 0.521142 0.961923 -0.091080
C15   C     C_R   0.800290 0.021001 0.038081 -0.078492
C16   C     C_R   0.199853 0.021142 0.961923 -0.091079
C17   C     C_R   0.241010 0.569383 0.071581 0.011984
C18   C     C_R   0.759137 0.568961 0.928540 0.028591
C19   C     C_R   0.741010 0.069383 0.071581 0.011984
C20   C     C_R   0.259137 0.068961 0.928540 0.028586
C21   C     C_R   0.185483 0.619272 0.030396 -0.056528
C22   C     C_R   0.814765 0.617670 0.969831 -0.059448
C23   C     C_R   0.685483 0.119272 0.030396 -0.056529
C24   C     C_R   0.314765 0.117670 0.969831 -0.059450
C25   C     C_R   0.190005 0.626466 0.957688 -0.126566
C26   C     C_R   0.810178 0.625225 0.042508 -0.121925
C27   C     C_R   0.690005 0.126466 0.957688 -0.126566
C28   C     C_R   0.310177 0.125225 0.042508 -0.121926
C29   C     C_R   0.250725 0.585335 0.923233 0.036533
C30   C     C_R   0.749353 0.584982 0.076851 0.041773
C31   C     C_R   0.750725 0.085335 0.923233 0.036533
C32   C     C_R   0.249353 0.084982 0.076851 0.041772
C33   C     C_R   0.520995 0.726967 0.543398 -0.134404
C34   C     C_R   0.527195 0.723507 0.470685 -0.125774
C35   C     C_R   0.020277 0.226439 0.543201 -0.134407
C36   C     C_R   0.026325 0.223099 0.470485 -0.125973
C37   C     C_R   0.514793 0.828303 0.429410 0.035318
C38   C     C_R   0.498585 0.833597 0.576370 0.034013
C39   C     C_R   0.014669 0.328315 0.429381 0.035268
C40   C     C_R   0.998635 0.333407 0.576374 0.034084
C41   C     C_R   0.497217 0.937924 0.462590 -0.133821
C42   C     C_R   0.488376 0.940359 0.536068 -0.127252
C43   C     C_R   0.997909 0.438209 0.462758 -0.133635
C44   C     C_R   0.989142 0.440553 0.536254 -0.127173
C45   C     C_R   0.470635 0.821515 0.855258 0.538081
C46   C     C_R   0.529506 0.821564 0.144663 0.536460
C47   C     C_R   0.970635 0.321515 0.855258 0.538075
C48   C     C_R   0.029507 0.321564 0.144663 0.536464
C49   C     C_R   0.220685 0.727758 0.518957 -0.132594
C50   C     C_R   0.790924 0.690901 0.475628 -0.131520
C51   C     C_R   0.720653 0.227672 0.518968 -0.132475
C52   C     C_R   0.290926 0.190922 0.475642 -0.131784
C53   C     C_R   0.212357 0.698603 0.447838 -0.125455
C54   C     C_R   0.791001 0.683454 0.548439 -0.128195
C55   C     C_R   0.712336 0.198546 0.447848 -0.125368
C56   C     C_R   0.291025 0.183457 0.548451 -0.128360
C57   C     C_R   0.255054 0.607963 0.418079 0.033005
C58   C     C_R   0.745995 0.600575 0.580874 0.037749
C59   C     C_R   0.755049 0.107945 0.418082 0.033023
C60   C     C_R   0.245987 0.100640 0.580896 0.037763
C61   C     C_R   0.313228 0.560970 0.457062 -0.138341
C62   C     C_R   0.691972 0.542597 0.541231 -0.147153
C63   C     C_R   0.813230 0.060970 0.457060 -0.138435
C64   C     C_R   0.191892 0.042807 0.541276 -0.146864
C65   C     C_R   0.323050 0.593724 0.528128 -0.129495
C66   C     C_R   0.691430 0.550513 0.467608 -0.144929
C67   C     C_R   0.823052 0.093720 0.528127 -0.129565
C68   C     C_R   0.191298 0.050802 0.467654 -0.144528
C69   C     C_R   0.273588 0.671058 0.560359 0.029710
C70   C     C_R   0.743074 0.620702 0.434556 0.039377
C71   C     C_R   0.773576 0.171020 0.560362 0.029795
C72   C     C_R   0.243011 0.120834 0.434585 0.039299
C73   C     C_R   0.260537 0.633672 0.851193 0.559710
C74   C     C_R   0.739493 0.633672 0.148834 0.547679
C75   C     C_R   0.760537 0.133672 0.851193 0.559712
C76   C     C_R   0.239493 0.133672 0.148834 0.547685
C77   C     C_R   0.269458 0.049811 0.648108 0.550519
C78   C     C_R   0.729921 0.048971 0.352945 0.555030
C79   C     C_R   0.769455 0.549808 0.648104 0.550571
C80   C     C_R   0.229923 0.548977 0.352944 0.555025
C81   C     C_R   0.470158 0.823875 0.647321 0.536884
C82   C     C_R   0.532933 0.822987 0.354654 0.544411
C83   C     C_R   0.970183 0.323852 0.647331 0.536949
C84   C     C_R   0.032913 0.322994 0.354647 0.544490
C85   C     C_R   0.275228 0.691502 0.636900 0.564750
C86   C     C_R   0.738490 0.643798 0.359144 0.551733
C87   C     C_R   0.775225 0.191491 0.636898 0.564780
C88   C     C_R   0.238465 0.143872 0.359166 0.551782
C89   C     C_3   0.470539 0.928655 0.028462 -0.136397
C90   C     C_3   0.529408 0.928849 0.971545 -0.136003
C91   C     C_3   0.970539 0.428655 0.028462 -0.136397
C92   C     C_3   0.029408 0.428849 0.971545 -0.136005
C93   C     C_3   0.431263 0.827762 0.986498 0.010941
C94   C     C_3   0.569121 0.828106 0.013401 0.012354
C95   C     C_3   0.931263 0.327762 0.986498 0.010943
C96   C     C_3   0.069121 0.328106 0.013401 0.012355
C97   C     C_3   0.489723 0.827963 0.930684 0.012201
C98   C     C_3   0.510644 0.827936 0.069193 0.009726
C99   C     C_3   0.989723 0.327963 0.930684 0.012204
C100  C     C_3   0.010644 0.327936 0.069193 0.009726
Cr1   Cr    Cr6+3 0.229630 0.835900 0.747350 1.019301
Cr2   Cr    Cr6+3 0.770370 0.835900 0.252650 1.032492
Cr3   Cr    Cr6+3 0.729630 0.335900 0.747350 1.019346
Cr4   Cr    Cr6+3 0.270370 0.335900 0.252650 1.032528
Cr5   Cr    Cr6+3 0.387410 0.989850 0.750850 1.038041
Cr6   Cr    Cr6+3 0.612590 0.989850 0.249150 1.053535
Cr7   Cr    Cr6+3 0.887410 0.489850 0.750850 1.038050
Cr8   Cr    Cr6+3 0.112590 0.489850 0.249150 1.053456
Cr9   Cr    Cr6+3 0.385800 0.677120 0.749340 1.092963
Cr10  Cr    Cr6+3 0.614200 0.677120 0.250660 1.098059
Cr11  Cr    Cr6+3 0.885800 0.177120 0.749340 1.092911
Cr12  Cr    Cr6+3 0.114200 0.177120 0.250660 1.098047
H1    H     H_    0.182898 0.788708 0.542551 0.124544
H2    H     H_    0.828569 0.752187 0.451853 0.133026
H3    H     H_    0.682839 0.288555 0.542569 0.124603
H4    H     H_    0.328614 0.252117 0.451855 0.133037
H5    H     H_    0.168250 0.739121 0.418160 0.135992
H6    H     H_    0.831081 0.733622 0.578637 0.137933
H7    H     H_    0.668222 0.239046 0.418175 0.136061
H8    H     H_    0.331155 0.233537 0.578633 0.137981
H9    H     H_    0.347745 0.492910 0.434464 0.122052
H10   H     H_    0.653916 0.484287 0.566605 0.115571
H11   H     H_    0.847756 0.992932 0.434457 0.121939
H12   H     H_    0.153821 0.984530 0.566657 0.115571
H13   H     H_    0.366276 0.552354 0.558646 0.136004
H14   H     H_    0.651472 0.501350 0.436755 0.117876
H15   H     H_    0.866288 0.052375 0.558642 0.135816
H16   H     H_    0.151269 0.001775 0.436817 0.117987
H17   H     H_    0.446308 0.009599 0.053390 0.133470
H18   H     H_    0.553392 0.009956 0.946802 0.129999
H19   H     H_    0.946308 0.509599 0.053390 0.133471
H20   H     H_    0.053392 0.509956 0.946802 0.129995
H21   H     H_    0.555321 0.646604 0.947770 0.159512
H22   H     H_    0.445891 0.646174 0.051837 0.179807
H23   H     H_    0.055321 0.146604 0.947770 0.159514
H24   H     H_    0.945891 0.146174 0.051837 0.179805
H25   H     H_    0.340985 0.474981 0.069699 0.181325
H26   H     H_    0.659429 0.475417 0.930041 0.141732
H27   H     H_    0.840985 0.974981 0.069699 0.181323
H28   H     H_    0.159429 0.975418 0.930041 0.141732
H29   H     H_    0.136438 0.648117 0.054006 0.219510
H30   H     H_    0.863944 0.644873 0.946253 0.182030
H31   H     H_    0.636438 0.148117 0.054006 0.219509
H32   H     H_    0.363944 0.144874 0.946253 0.182030
H33   H     H_    0.146088 0.668919 0.928749 0.166244
H34   H     H_    0.854161 0.667072 0.071520 0.173072
H35   H     H_    0.646087 0.168919 0.928749 0.166248
H36   H     H_    0.354161 0.167072 0.071519 0.173072
H37   H     H_    0.529707 0.643693 0.573203 0.130547
H38   H     H_    0.543042 0.638073 0.447175 0.135608
H39   H     H_    0.028466 0.142834 0.572841 0.130558
H40   H     H_    0.041536 0.137399 0.446859 0.135433
H41   H     H_    0.489505 0.020383 0.431841 0.127503
H42   H     H_    0.470378 0.023715 0.560593 0.137649
H43   H     H_    0.990835 0.521007 0.432159 0.127671
H44   H     H_    0.971804 0.524220 0.560944 0.137388
O1    O     O_R   0.214270 0.709000 0.827470 -0.532619
O2    O     O_R   0.785730 0.709000 0.172530 -0.530642
O3    O     O_R   0.714270 0.209000 0.827470 -0.532609
O4    O     O_R   0.285730 0.209000 0.172530 -0.530639
O5    O     O_R   0.445950 0.919440 0.676520 -0.506029
O6    O     O_R   0.554050 0.919440 0.323480 -0.502550
O7    O     O_R   0.945950 0.419440 0.676520 -0.505950
O8    O     O_R   0.054050 0.419440 0.323480 -0.502664
O9    O     O_R   0.456730 0.717630 0.669840 -0.535035
O10   O     O_R   0.543270 0.717630 0.330160 -0.526872
O11   O     O_R   0.956730 0.217630 0.669840 -0.535179
O12   O     O_R   0.043270 0.217630 0.330160 -0.526930
O13   O     O_R   0.320620 0.625640 0.672920 -0.497821
O14   O     O_R   0.679380 0.625640 0.327080 -0.503613
O15   O     O_R   0.820620 0.125640 0.672920 -0.497850
O16   O     O_R   0.179380 0.125640 0.327080 -0.503543
O17   O     O_3   0.334280 0.834290 0.749180 -0.300015
O18   O     O_3   0.665720 0.834290 0.250820 -0.281758
O19   O     O_3   0.834280 0.334290 0.749180 -0.299985
O20   O     O_3   0.165720 0.334290 0.250820 -0.281745
O21   O     O_R   0.236160 0.958490 0.823130 -0.516414
O22   O     O_R   0.763840 0.958490 0.176870 -0.515014
O23   O     O_R   0.736160 0.458490 0.823130 -0.516425
O24   O     O_R   0.263840 0.458490 0.176870 -0.515007
O25   O     O_R   0.332080 0.075470 0.831280 -0.492978
O26   O     O_R   0.667920 0.075470 0.168720 -0.489599
O27   O     O_R   0.832080 0.575470 0.831280 -0.493000
O28   O     O_R   0.167920 0.575470 0.168720 -0.489595
O29   O     O_R   0.446300 0.918110 0.826620 -0.517252
O30   O     O_R   0.553700 0.918110 0.173380 -0.515560
O31   O     O_R   0.946300 0.418110 0.826620 -0.517279
O32   O     O_R   0.053700 0.418110 0.173380 -0.515547
O33   O     O_R   0.457110 0.716200 0.831760 -0.463665
O34   O     O_R   0.542890 0.716200 0.168240 -0.463221
O35   O     O_R   0.957110 0.216200 0.831760 -0.463659
O36   O     O_R   0.042890 0.216200 0.168240 -0.463235
O37   O     O_R   0.320980 0.624310 0.823030 -0.431976
O38   O     O_R   0.679020 0.624310 0.176970 -0.439850
O39   O     O_R   0.820980 0.124310 0.823030 -0.431979
O40   O     O_R   0.179020 0.124310 0.176970 -0.439850
O41   O     O_R   0.213890 0.710430 0.665540 -0.512260
O42   O     O_R   0.786110 0.710430 0.334460 -0.527622
O43   O     O_R   0.713890 0.210430 0.665540 -0.512229
O44   O     O_R   0.286110 0.210430 0.334460 -0.527655
O45   O     O_R   0.235810 0.959820 0.673020 -0.527039
O46   O     O_R   0.764190 0.959820 0.326980 -0.507771
O47   O     O_R   0.735810 0.459820 0.673020 -0.527046
O48   O     O_R   0.264190 0.459820 0.326980 -0.507748
O49   O     O_R   0.331700 0.076900 0.669350 -0.514953
O50   O     O_R   0.668300 0.076900 0.330650 -0.514118
O51   O     O_R   0.831700 0.576900 0.669350 -0.514798
O52   O     O_R   0.168300 0.576900 0.330650 -0.514205
C101  C     C_2   0.352999 0.825193 0.972972 0.213163
H45   H     H_    0.331630 0.828031 0.918962 0.116999
O53   O     O_2   0.312936 0.820339 0.022982 -0.515704
C102  C     C_2   0.647384 0.825860 0.026988 0.212198
H46   H     H_    0.668692 0.828784 0.081018 0.116415
O54   O     O_2   0.687510 0.821077 0.977012 -0.514618
C103  C     C_2   0.852999 0.325192 0.972972 0.213164
H47   H     H_    0.831630 0.328031 0.918962 0.117000
O55   O     O_2   0.812936 0.320339 0.022982 -0.515706
C104  C     C_2   0.147384 0.325860 0.026988 0.212199
H48   H     H_    0.168692 0.328784 0.081018 0.116415
O56   O     O_2   0.187510 0.321078 0.977012 -0.514617
S1    S     S_3+6 0.374369 0.439196 0.925783 -0.001525
O57   O     O_2   0.345628 0.367210 0.863388 -0.262907
O58   O     O_2   0.431966 0.521714 0.901515 -0.294850
O59   O     O_3   0.410413 0.344726 0.987065 -0.570098
H49   H     H_    0.447727 0.299768 0.961607 0.358502
S2    S     S_3+6 0.626107 0.438799 0.074317 0.018648
O60   O     O_2   0.655796 0.364488 0.135305 -0.236756
O61   O     O_2   0.568917 0.520161 0.101230 -0.271596
O62   O     O_3   0.588692 0.346004 0.013003 -0.573003
H50   H     H_    0.557242 0.399151 0.983564 0.355857
S3    S     S_3+6 0.874369 0.939196 0.925783 -0.001532
O63   O     O_2   0.845628 0.867210 0.863388 -0.262922
O64   O     O_2   0.931966 0.021714 0.901515 -0.294851
O65   O     O_3   0.910413 0.844726 0.987065 -0.570098
H51   H     H_    0.947727 0.799767 0.961607 0.358500
S4    S     S_3+6 0.126107 0.938799 0.074317 0.018643
O66   O     O_2   0.155796 0.864488 0.135305 -0.236760
O67   O     O_2   0.068917 0.020161 0.101230 -0.271605
O68   O     O_3   0.088692 0.846005 0.013003 -0.573004
H52   H     H_    0.057242 0.899151 0.983564 0.355857

loop_
_geom_bond_atom_site_label_1
_geom_bond_atom_site_label_2
_ccdc_geom_bond_type
C58   C62   A    
C49   H1    S    
C74   O38   A    
Cr11  O35   S    
C88   O16   A    
C73   O37   A    
C65   H13   S    
C8    H24   S    
C34   C37   A    
Cr4   O44   S    
C41   C42   A    
C14   C18   A    
Cr1   O17   S    
C35   C36   A    
C40   C83   S    
Cr6   O6    S    
C87   O43   A    
Cr8   O52   S    
Cr3   O3    S    
O59   H49   S    
Cr2   O2    S    
C5    C94   S    
C34   H38   S    
C47   C99   S    
C7    C8    S    
C35   H39   S    
C55   H7    S    
C85   O13   A    
C5    H21   S    
C7    C96   S    
Cr8   O8    S    
C91   C95   S    
C50   C54   A    
C7    C99   S    
Cr11  O19   S    
C64   C68   A    
C92   H20   S    
Cr4   O4    S    
C39   C84   S    
C48   O32   A    
S1    O59   S    
C77   O49   A    
C103  O55   D    
C82   O10   A    
C5    C6    S    
C30   C74   S    
C91   H19   S    
C53   H5    S    
C67   C71   A    
C29   C73   S    
C94   C98   S    
C95   C99   S    
Cr12  O12   S    
C14   H26   S    
C92   C96   S    
C89   H17   S    
S4    O66   D    
C3    C18   S    
C61   H9    S    
C2    O26   A    
Cr1   O41   S    
Cr5   O29   S    
C6    H22   S    
C26   H34   S    
C9    C13   A    
Cr6   O26   S    
C3    O23   A    
C76   O40   A    
C11   C15   A    
Cr12  O40   S    
O68   H52   S    
Cr9   O33   S    
Cr10  O38   S    
C11   S3    S    
Cr9   O37   S    
C23   C27   A    
C91   C100  S    
Cr2   O42   S    
C24   C28   A    
C68   H16   S    
C90   C97   S    
Cr7   O51   S    
C84   O8    A    
C9    C29   A    
C52   H4    S    
C46   C98   S    
C42   H42   S    
C11   C31   A    
C102  H46   S    
C49   C69   A    
C12   C32   A    
C89   C93   S    
C56   H8    S    
C57   C80   S    
C23   H31   S    
Cr6   O50   S    
C16   H28   S    
C8    C95   S    
C1    O21   A    
C4    O24   A    
C41   H41   S    
C43   H43   S    
C59   C78   S    
C72   C88   S    
Cr9   O13   S    
C90   C94   S    
C15   H27   S    
Cr10  O18   S    
C25   C29   A    
C48   C100  S    
C63   C67   A    
C60   C77   S    
C28   H36   S    
Cr8   O28   S    
S4    O67   D    
C27   C31   A    
C44   H44   S    
C12   C16   A    
C28   C32   A    
C62   C66   A    
Cr6   O30   S    
Cr4   O20   S    
C10   C14   A    
C91   C92   S    
Cr1   O45   S    
C1    O25   A    
C19   C23   A    
C36   H40   S    
C39   C43   A    
C82   O6    A    
C51   C55   A    
C64   H12   S    
Cr3   O23   S    
C83   O11   A    
C96   C104  S    
C17   C21   A    
C66   H14   S    
Cr7   O27   S    
C68   C72   A    
C50   H2    S    
C13   H25   S    
Cr4   O24   S    
C15   C19   A    
C43   C44   A    
C78   O50   A    
C7    H23   S    
O62   H50   S    
C52   C72   A    
C67   H15   S    
Cr12  O36   S    
S1    O57   D    
C10   C30   A    
C93   C97   S    
C31   C75   S    
C101  H45   S    
C45   C97   S    
C16   C20   A    
C6    C93   S    
C87   O15   A    
C22   H30   S    
Cr3   O19   S    
C33   C34   A    
Cr6   O18   S    
S3    O64   D    
Cr3   O43   S    
C4    O28   A    
C74   O2    A    
C57   C61   A    
Cr12  O16   S    
C22   C26   A    
Cr9   O9    S    
C58   C79   S    
C86   O42   A    
C61   C65   A    
C71   C87   S    
C4    C17   S    
Cr10  O14   S    
Cr4   O48   S    
C45   O33   A    
Cr12  O20   S    
C102  O54   D    
C26   C30   A    
C83   O7    A    
S2    O61   D    
C25   H33   S    
C54   H6    S    
C38   C81   S    
C93   C101  S    
Cr2   O22   S    
Cr5   O5    S    
C37   C82   S    
Cr7   O19   S    
Cr11  O11   S    
O65   H51   S    
C47   O31   A    
C70   C86   S    
C6    C98   S    
C62   H10   S    
C69   C85   S    
C55   C59   A    
C54   C58   A    
C75   O3    A    
C12   S4    S    
C21   C25   A    
C76   O4    A    
C1    C20   S    
C53   C57   A    
C80   O52   A    
C2    C19   S    
C86   O14   A    
C81   O5    A    
Cr8   O32   S    
C36   C39   A    
C78   O46   A    
C5    C97   S    
C77   O45   A    
C32   C76   S    
C63   H11   S    
C51   C71   A    
C47   O35   A    
Cr5   O49   S    
C73   O1    A    
Cr2   O18   S    
S2    O62   S    
C66   C70   A    
C59   C63   A    
C33   C38   A    
S4    O68   S    
C13   C17   A    
C104  O56   D    
C60   C64   A    
C79   O47   A    
C88   O44   A    
C18   C22   A    
C35   C40   A    
C8    C100  S    
C21   H29   S    
S1    O58   D    
C33   H37   S    
C94   C102  S    
Cr10  O10   S    
C45   O29   A    
C104  H48   S    
C46   O34   A    
C89   C98   S    
C24   H32   S    
C65   C69   A    
C95   C103  S    
C96   C100  S    
C101  O53   D    
Cr10  O34   S    
S3    O65   S    
Cr9   O17   S    
C79   O51   A    
C103  H47   S    
C37   C41   A    
Cr3   O47   S    
C50   C70   A    
C48   O36   A    
C49   C53   A    
Cr1   O21   S    
C51   H3    S    
Cr1   O1    S    
C90   H18   S    
C38   C42   A    
C9    S1    S    
C40   C44   A    
C56   C60   A    
C84   O12   A    
C46   O30   A    
Cr2   O46   S    
C27   H35   S    
S2    O60   D    
Cr8   O20   S    
S3    O63   D    
C10   S2    S    
C81   O9    A    
C85   O41   A    
Cr7   O31   S    
Cr5   O17   S    
Cr7   O7    S    
C2    O22   A    
Cr5   O25   S    
C89   C90   S    
C80   O48   A    
C3    O27   A    
C20   C24   A    
C52   C56   A    
C92   C99   S    
Cr11  O39   S    
Cr11  O15   S    
C75   O39   A    
