data_mof_unit_46838.cif
_audit_creation_date              2012-12-10T17:02:28-0500
_audit_creation_method            fapswitch 2.2
_symmetry_space_group_name_H-M    P1
_symmetry_Int_Tables_number       1
_space_group_crystal_system       triclinic
_cell_length_a                    11.079875
_cell_length_b                    11.012905
_cell_length_c                    10.087018
_cell_angle_alpha                 111.845551
_cell_angle_beta                  98.342346
_cell_angle_gamma                 90.278724
_cell_volume                      1128.03646837

loop_
_atom_site_label
_atom_site_type_symbol
_atom_type_description
_atom_site_fract_x
_atom_site_fract_y
_atom_site_fract_z
_atom_type_partial_charge
C1    C     C_R   0.487708 0.254511 0.440109 0.809912
C2    C     C_R   0.512279 0.745495 0.559897 0.809900
C3    C     C_2   0.459368 0.115826 0.407317 0.209001
C4    C     C_2   0.540555 0.884193 0.592699 0.208946
C5    C     C_2   0.525388 0.055788 0.485215 0.297930
C6    C     C_2   0.474534 0.944188 0.514768 0.297972
C7    C     C_2   0.479239 0.523503 0.075321 0.423646
C8    C     C_2   0.520685 0.476524 0.924676 0.423584
C9    C     C_R   0.262837 0.494088 0.498816 0.827886
C10   C     C_R   0.737161 0.505896 0.501176 0.827883
C11   C     C_R   0.150561 0.472631 0.736799 0.261723
C12   C     C_R   0.849440 0.527264 0.263146 0.261758
C13   C     C_R   0.121166 0.540446 0.873699 -0.168538
C14   C     C_R   0.878852 0.459454 0.126255 -0.168627
C15   C     C_R   0.003084 0.583047 0.882148 0.229417
C16   C     C_R   0.996886 0.416718 0.117823 0.229668
C17   C     C_R   0.916380 0.528821 0.758631 0.251238
C18   C     C_R   0.083599 0.470995 0.241310 0.251321
C19   C     C_R   0.954408 0.512568 0.626474 -0.025305
C20   C     C_R   0.045580 0.487309 0.373478 -0.025351
C21   C     C_R   0.079108 0.489705 0.617718 -0.012823
C22   C     C_R   0.920883 0.510199 0.382239 -0.012817
C23   C     C_R   0.872186 0.513296 0.504650 -0.086093
C24   C     C_R   0.127807 0.486633 0.495318 -0.086080
Cu1   Cu    Cu3+1 0.521920 0.521810 0.644910 1.155348
Cu2   Cu    Cu3+1 0.478080 0.478190 0.355090 1.155396
H1    H     H_    0.187664 0.555367 0.968020 0.222580
H2    H     H_    0.812420 0.444676 0.031905 0.222538
N1    N     N_2   0.445130 0.445420 0.137360 -0.078608
N2    N     N_2   0.554870 0.554580 0.862640 -0.078690
O1    O     O_R   0.511700 0.332340 0.577400 -0.523028
O2    O     O_R   0.488300 0.667660 0.422600 -0.523021
O3    O     O_R   0.474680 0.295500 0.332650 -0.523952
O4    O     O_R   0.525320 0.704500 0.667350 -0.523944
O5    O     O_R   0.338170 0.518410 0.622370 -0.577017
O6    O     O_R   0.661830 0.481590 0.377630 -0.577003
O7    O     O_R   0.301150 0.481570 0.377630 -0.545152
O8    O     O_R   0.698850 0.518430 0.622370 -0.545214
Br1   Br    Br    0.037996 0.273002 0.957891 -0.219597
Br2   Br    Br    0.961889 0.727032 0.042127 -0.219339
Br3   Br    Br    0.244839 0.321605 0.708147 -0.313732
Br4   Br    Br    0.755174 0.678282 0.291703 -0.313811
Br5   Br    Br    0.834879 0.372070 0.751191 -0.291768
Br6   Br    Br    0.165052 0.627720 0.248645 -0.291854
Cl1   Cl    Cl    0.315123 0.904617 0.478834 -0.384461
Cl2   Cl    Cl    0.684823 0.095244 0.521017 -0.384531
Cl3   Cl    Cl    0.664981 0.961394 0.731519 -0.346158
Cl4   Cl    Cl    0.334851 0.038715 0.268580 -0.346162
Cl5   Cl    Cl    0.556426 0.311864 0.845911 -0.440497
Cl6   Cl    Cl    0.443375 0.688126 0.154071 -0.440508
Br7   Br    Br    0.630093 0.723522 0.972025 -0.151903
Br8   Br    Br    0.369595 0.276703 0.028026 -0.152066

loop_
_geom_bond_atom_site_label_1
_geom_bond_atom_site_label_2
_ccdc_geom_bond_type
Cu1   O1    S    
C19   C23   A    
N2    Br7   S    
C17   Br5   S    
Cu2   O7    S    
Cu2   O2    S    
C7    N1    D    
C6    Cl1   S    
C18   Br6   S    
Cu1   O8    S    
C5    Cl2   S    
Cu2   O3    S    
C2    C4    S    
Cu1   O4    S    
C10   O8    A    
C8    N2    D    
C2    O4    A    
C9    O7    A    
C3    C5    D    
C1    O3    A    
C7    C8    S    
C9    C24   S    
C16   C18   A    
C11   C13   A    
C4    Cl3   S    
Cu1   O5    S    
C4    C6    D    
C19   C21   A    
C20   C22   A    
C11   Br3   S    
C18   C20   A    
C13   C15   A    
C5    C6    S    
C10   C23   S    
C14   C16   A    
C15   Br2   S    
C16   Br1   S    
C12   Br4   S    
C17   C19   A    
C12   C22   A    
C3    Cl4   S    
C1    O1    A    
Cu2   N1    S    
C2    O2    A    
C21   C24   A    
Cu2   O6    S    
Cu1   N2    S    
C9    O5    A    
C22   C23   A    
C13   H1    S    
C10   O6    A    
C14   H2    S    
Cu1   Cu2   S    
C15   C17   A    
C8    Cl5   S    
C11   C21   A    
C20   C24   A    
C7    Cl6   S    
C12   C14   A    
C1    C3    S    
N1    Br8   S    
