data_mof_unit_22972.cif
_audit_creation_date              2012-12-11T16:23:17-0500
_audit_creation_method            fapswitch 2.2
_symmetry_space_group_name_H-M    P1
_symmetry_Int_Tables_number       1
_space_group_crystal_system       triclinic
_cell_length_a                    19.404544
_cell_length_b                    7.203809
_cell_length_c                    20.694076
_cell_angle_alpha                 90.359737
_cell_angle_beta                  98.621176
_cell_angle_gamma                 90.7685
_cell_volume                      2859.71222116

loop_
_atom_site_label
_atom_site_type_symbol
_atom_type_description
_atom_site_fract_x
_atom_site_fract_y
_atom_site_fract_z
_atom_type_partial_charge
O1    O     O_R   0.188410 0.619490 0.310050 -0.518522
O2    O     O_R   0.811590 0.380510 0.689950 -0.509199
O3    O     O_R   0.311590 0.119490 0.189950 -0.507636
O4    O     O_R   0.688410 0.880510 0.810050 -0.508787
O5    O     O_R   0.327280 0.288800 0.321740 -0.520203
O6    O     O_R   0.672720 0.711200 0.678260 -0.534770
O7    O     O_R   0.172720 0.788800 0.178260 -0.505270
O8    O     O_R   0.827280 0.211200 0.821740 -0.535411
C1    C     C_R   0.351052 0.460679 0.339756 0.755552
C2    C     C_R   0.647215 0.539690 0.662517 0.726755
C3    C     C_R   0.146874 0.955466 0.162088 0.678254
C4    C     C_R   0.851266 0.042817 0.839348 0.725716
O9    O     O_R   0.189900 0.289710 0.318190 -0.557214
O10   O     O_R   0.810100 0.710290 0.681810 -0.563331
O11   O     O_R   0.310100 0.789710 0.181810 -0.558792
O12   O     O_R   0.689900 0.210290 0.818190 -0.558579
O13   O     O_R   0.173230 0.120350 0.186370 -0.526789
O14   O     O_R   0.826770 0.879650 0.813630 -0.510501
O15   O     O_R   0.326770 0.620350 0.313630 -0.538909
O16   O     O_R   0.673230 0.379650 0.686370 -0.511570
C5    C     C_R   0.167826 0.458637 0.332021 0.784475
C6    C     C_R   0.830161 0.541455 0.665823 0.782895
C7    C     C_R   0.328741 0.959329 0.164688 0.745218
C8    C     C_R   0.668377 0.040826 0.832741 0.754054
O17   O     O_3   0.244690 0.453290 0.206760 -0.359908
O18   O     O_3   0.755310 0.546710 0.793240 -0.373626
O19   O     O_3   0.255310 0.953290 0.293240 -0.388972
O20   O     O_3   0.744690 0.046710 0.706760 -0.378783
V1    V     V_3+5 0.250980 0.178070 0.258020 1.525901
V2    V     V_3+5 0.749020 0.821930 0.741980 1.508819
V3    V     V_3+5 0.249020 0.678070 0.241980 1.538642
V4    V     V_3+5 0.750980 0.321930 0.758020 1.515007
C9    C     C_R   0.477187 0.086738 0.071412 -0.279977
C10   C     C_R   0.522054 0.860480 0.921151 -0.209039
C11   C     C_R   0.012330 0.594383 0.414299 -0.277118
C12   C     C_R   0.961149 0.362688 0.560632 -0.218799
H1    H     H_    0.524837 0.167163 0.081997 0.156800
H2    H     H_    0.493615 0.731157 0.922195 0.199971
H3    H     H_    0.965959 0.675281 0.401782 0.157555
H4    H     H_    0.987165 0.233049 0.555637 0.189876
C13   C     C_R   0.429639 0.098453 0.115577 0.290682
C14   C     C_R   0.568737 0.875899 0.875770 0.241571
C15   C     C_R   0.062349 0.600288 0.372045 0.260441
C16   C     C_R   0.920430 0.376526 0.610760 0.270032
C17   C     C_R   0.373626 0.971028 0.111876 -0.084188
C18   C     C_R   0.615470 0.027800 0.878360 -0.145554
C19   C     C_R   0.117267 0.471315 0.379508 -0.113851
C20   C     C_R   0.877480 0.529985 0.614868 -0.116241
C21   C     C_R   0.360484 0.855734 0.056154 -0.308703
C22   C     C_R   0.607538 0.173536 0.921451 -0.240556
C23   C     C_R   0.125628 0.359318 0.435204 -0.305158
C24   C     C_R   0.881493 0.674633 0.570608 -0.276788
H5    H     H_    0.315881 0.761731 0.050697 0.140380
H6    H     H_    0.642238 0.292091 0.923018 0.144205
H7    H     H_    0.169119 0.265150 0.443239 0.164582
H8    H     H_    0.847140 0.790525 0.571650 0.155258
C25   C     C_R   0.400639 0.872084 0.004485 0.322349
C26   C     C_R   0.551729 0.175432 0.958015 0.320027
C27   C     C_R   0.084112 0.384066 0.484864 0.310878
C28   C     C_R   0.932821 0.678424 0.528814 0.319830
C29   C     C_R   0.461785 0.987846 0.012498 0.037501
C30   C     C_R   0.511348 0.009370 0.962639 -0.002466
C31   C     C_R   0.023860 0.497955 0.473554 0.040274
C32   C     C_R   0.972220 0.515169 0.521389 0.001029
C33   C     C_R   0.084925 0.952968 0.107545 -0.234468
C34   C     C_R   0.912571 0.038434 0.893593 -0.240333
C35   C     C_R   0.413278 0.476691 0.393480 -0.240549
C36   C     C_R   0.584661 0.522200 0.609914 -0.222807
C37   C     C_R   0.033156 0.136773 0.936368 0.232730
C38   C     C_R   0.971044 0.821289 0.056069 0.262234
C39   C     C_R   0.458232 0.476866 0.576287 0.265709
C40   C     C_R   0.541085 0.479930 0.426590 0.250553
C41   C     C_R   0.977235 0.116522 0.884150 -0.051169
C42   C     C_R   0.029382 0.819615 0.106564 -0.036973
C43   C     C_R   0.517975 0.473881 0.625391 -0.062623
C44   C     C_R   0.481384 0.459305 0.378335 -0.047971
C45   C     C_R   0.907136 0.961143 0.955323 -0.054602
C46   C     C_R   0.083156 0.074391 0.053296 -0.154770
C47   C     C_R   0.592143 0.542710 0.543353 -0.046094
C48   C     C_R   0.406406 0.517171 0.459449 -0.054761
C49   C     C_R   0.967753 0.950141 0.004356 0.005851
C50   C     C_R   0.027985 0.058836 0.998586 -0.015321
C51   C     C_R   0.533670 0.512611 0.492957 -0.016168
C52   C     C_R   0.465682 0.506938 0.509840 -0.004424
N1    N     N_2   0.437459 0.246631 0.161260 -0.478259
H9    H     H_    0.489345 0.275972 0.176762 0.269022
C53   C     C_3   0.401465 0.412715 0.136709 -0.465706
H10   H     H_    0.427329 0.475329 0.097436 0.161148
H11   H     H_    0.402624 0.515338 0.176993 0.209522
H12   H     H_    0.346079 0.381411 0.116902 0.227585
N2    N     N_2   0.563807 0.746998 0.823360 -0.518073
H13   H     H_    0.514258 0.736801 0.797453 0.290040
C54   C     C_3   0.593987 0.569396 0.840542 -0.415474
H14   H     H_    0.555088 0.480036 0.860020 0.198710
H15   H     H_    0.642141 0.585424 0.876803 0.179613
H16   H     H_    0.608788 0.503385 0.796388 0.206116
N3    N     N_2   0.057618 0.741359 0.323937 -0.514505
H17   H     H_    0.006727 0.767049 0.304304 0.275047
C55   C     C_3   0.091390 0.914327 0.347693 -0.468434
H18   H     H_    0.062881 0.979068 0.384632 0.166882
H19   H     H_    0.091253 0.011418 0.306234 0.189489
H20   H     H_    0.146201 0.891902 0.370324 0.210007
N4    N     N_2   0.932104 0.250766 0.663067 -0.492014
H21   H     H_    0.984569 0.242376 0.679792 0.274256
C56   C     C_3   0.900619 0.070296 0.649637 -0.455276
H22   H     H_    0.934664 0.986949 0.622714 0.191514
H23   H     H_    0.847502 0.081475 0.621189 0.202012
H24   H     H_    0.896034 0.000512 0.696376 0.218787
N5    N     N_2   0.377619 0.775120 0.944916 -0.541059
H25   H     H_    0.349518 0.655039 0.950312 0.260975
C57   C     C_3   0.343773 0.890196 0.892905 -0.531439
H26   H     H_    0.331807 0.806263 0.847314 0.207849
H27   H     H_    0.378176 0.008385 0.883501 0.211130
H28   H     H_    0.294314 0.944231 0.905992 0.192169
N6    N     N_2   0.531015 0.349985 0.981661 -0.544104
H29   H     H_    0.480703 0.360762 0.991504 0.263877
C58   C     C_3   0.583205 0.463194 0.021887 -0.556513
H30   H     H_    0.557577 0.580037 0.043752 0.200295
H31   H     H_    0.620539 0.523791 0.991958 0.204708
H32   H     H_    0.611867 0.379841 0.061909 0.204120
N7    N     N_2   0.106034 0.301252 0.546680 -0.544331
H33   H     H_    0.133971 0.181092 0.544443 0.255813
C59   C     C_3   0.139494 0.428992 0.596230 -0.529374
H34   H     H_    0.151470 0.355453 0.643491 0.200271
H35   H     H_    0.104656 0.546331 0.603051 0.210626
H36   H     H_    0.188965 0.483832 0.582222 0.206917
N8    N     N_2   0.950163 0.853078 0.502697 -0.548385
H37   H     H_    0.999713 0.870916 0.491325 0.259803
C60   C     C_3   0.895213 0.949732 0.461683 -0.554276
H38   H     H_    0.917444 0.073690 0.440163 0.197719
H39   H     H_    0.855399 0.998609 0.490859 0.214743
H40   H     H_    0.870108 0.857722 0.421433 0.204084
C61   C     C_2   0.139234 0.218271 0.054483 0.933457
O21   O     O_2   0.123952 0.382084 0.051481 -0.517790
O22   O     O_R   0.209144 0.169624 0.057527 -0.654107
H41   H     H_    0.215632 0.030540 0.055524 0.223680
C62   C     C_2   0.837084 0.909478 0.970989 0.793805
O23   O     O_2   0.817593 0.975673 0.019607 -0.559174
O24   O     O_R   0.794404 0.782554 0.931693 -0.646819
H42   H     H_    0.748427 0.758517 0.948067 0.278874
C63   C     C_2   0.340859 0.598129 0.474835 0.805981
O25   O     O_2   0.343567 0.735088 0.510472 -0.561241
O26   O     O_R   0.276517 0.519966 0.449355 -0.687183
H43   H     H_    0.236857 0.591379 0.463979 0.280121
C64   C     C_2   0.661525 0.594681 0.527216 0.810549
O27   O     O_2   0.669560 0.741324 0.499660 -0.556144
O28   O     O_R   0.716549 0.471282 0.540777 -0.677958
H44   H     H_    0.758283 0.510493 0.519846 0.285337
C65   C     C_2   0.030114 0.672313 0.156659 0.778354
O29   O     O_2   0.073784 0.550703 0.160908 -0.525034
O30   O     O_R   0.975599 0.660085 0.193469 -0.686962
H45   H     H_    0.977195 0.542274 0.220202 0.286761
C66   C     C_2   0.991794 0.148442 0.817694 0.746712
O31   O     O_2   0.994509 0.306518 0.797129 -0.561945
O32   O     O_R   0.009564 0.995837 0.781823 -0.670298
H46   H     H_    0.033987 0.031096 0.743734 0.277719
C67   C     C_2   0.492103 0.422835 0.311166 0.731379
O33   O     O_2   0.489965 0.262844 0.291274 -0.554285
O34   O     O_R   0.511113 0.570119 0.273492 -0.668980
H47   H     H_    0.527597 0.529002 0.231664 0.280049
C68   C     C_2   0.510835 0.402712 0.691120 0.716973
O35   O     O_2   0.470885 0.475970 0.723520 -0.582547
O36   O     O_R   0.547187 0.244672 0.714418 -0.656740
H48   H     H_    0.535950 0.204599 0.758585 0.280465
N9    N     N_2   0.097338 0.217572 0.923695 -0.507731
H49   H     H_    0.092546 0.334536 0.895027 0.287518
C69   C     C_3   0.147676 0.087682 0.905747 -0.522319
H50   H     H_    0.198629 0.160376 0.906903 0.203196
H51   H     H_    0.130850 0.032369 0.855680 0.210414
H52   H     H_    0.154637 0.970223 0.940532 0.200205
N10   N     N_2   0.920156 0.674512 0.051279 -0.520386
H53   H     H_    0.898672 0.646092 0.092699 0.298473
C70   C     C_3   0.936666 0.511261 0.015789 -0.474951
H54   H     H_    0.891119 0.414389 0.008809 0.207208
H55   H     H_    0.981732 0.438973 0.043532 0.220186
H56   H     H_    0.948951 0.549947 0.966835 0.214149
N11   N     N_2   0.391522 0.423257 0.591746 -0.522183
H57   H     H_    0.377737 0.481499 0.633424 0.297056
C71   C     C_3   0.374721 0.227364 0.583759 -0.471122
H58   H     H_    0.320048 0.202340 0.591738 0.199513
H59   H     H_    0.409901 0.145249 0.619729 0.208561
H60   H     H_    0.379672 0.180170 0.533458 0.218939
N12   N     N_2   0.608321 0.445317 0.409274 -0.520374
H61   H     H_    0.617750 0.502704 0.365895 0.279966
C72   C     C_3   0.630446 0.254538 0.417078 -0.456618
H62   H     H_    0.685351 0.244141 0.408373 0.200521
H63   H     H_    0.597251 0.162770 0.381570 0.219738
H64   H     H_    0.627432 0.206237 0.467485 0.226036

loop_
_geom_bond_atom_site_label_1
_geom_bond_atom_site_label_2
_ccdc_geom_bond_type
C27   N7    S    
C6    C20   S    
C53   H10   S    
O1    C5    A    
C54   H14   S    
C7    C17   S    
O19   V1    S    
O13   V1    S    
C56   H22   S    
O3    C7    A    
O36   H48   S    
C10   C14   A    
C10   C30   A    
C40   C44   A    
O15   V3    S    
C58   H31   S    
C1    C35   S    
C68   O35   D    
C65   O29   D    
C59   H34   S    
C47   C64   S    
N9    H49   S    
N1    H9    S    
C36   C43   A    
O7    C3    A    
C56   H23   S    
C37   N9    S    
C22   H6    S    
C51   C52   A    
O9    V1    S    
C45   C62   S    
C60   H38   S    
N12   C72   S    
O4    C8    A    
C72   H63   S    
N6    H29   S    
N3    H17   S    
O1    V3    S    
C21   C25   A    
O2    V4    S    
C14   N2    S    
C14   C18   A    
O3    V1    S    
C38   C49   A    
C54   H15   S    
C12   H4    S    
C37   C50   A    
C24   C28   A    
N5    C57   S    
C68   O36   S    
C1    O15   A    
C67   O33   D    
C25   N5    S    
C57   H26   S    
C2    O16   A    
N11   C71   S    
C38   C42   A    
O30   H45   S    
C42   C65   S    
C37   C41   A    
O14   V2    S    
C45   C49   A    
C39   N11   S    
C66   O32   S    
C11   C15   A    
C48   C52   A    
C60   H40   S    
C36   C47   A    
O11   C7    A    
O12   C8    A    
O10   V2    S    
C64   O28   S    
C16   N4    S    
C64   O27   D    
C69   H52   S    
O5    V1    S    
C70   H55   S    
C56   H24   S    
C44   C67   S    
O32   H46   S    
O7    V3    S    
N1    C53   S    
O28   H44   S    
O8    V4    S    
O22   H41   S    
C69   H51   S    
N3    C55   S    
C58   H32   S    
C69   H50   S    
O18   V4    S    
C59   H36   S    
C19   C23   A    
N6    C58   S    
C70   H54   S    
C34   C41   A    
C4    C34   S    
C49   C50   A    
C33   C42   A    
C31   C32   S    
C63   O26   S    
C22   C26   A    
C67   O34   S    
C11   H3    S    
C38   N10   S    
N8    C60   S    
N12   H61   S    
O5    C1    A    
N2    C54   S    
N10   C70   S    
C46   C50   A    
O34   H47   S    
C17   C21   A    
O8    C4    A    
O9    C5    A    
C57   H27   S    
C60   H39   S    
C25   C29   A    
C62   O24   S    
N10   H53   S    
N7    H33   S    
C26   C30   A    
C9    C29   A    
O6    V2    S    
N11   H57   S    
C54   H16   S    
C53   H11   S    
C61   O21   D    
N4    C56   S    
C12   C16   A    
C23   C27   A    
C4    O14   A    
N8    H37   S    
N2    H13   S    
C41   C66   S    
C39   C52   A    
O16   V4    S    
C70   H56   S    
C34   C45   A    
C3    O13   A    
C33   C46   A    
C55   H19   S    
C10   H2    S    
C3    C33   S    
O17   V3    S    
C28   N8    S    
C35   C48   A    
C15   N3    S    
C40   N12   S    
C72   H64   S    
O6    C2    A    
O24   H42   S    
O11   V3    S    
C2    C36   S    
O12   V4    S    
C13   N1    S    
C62   O23   D    
C18   C22   A    
C27   C31   A    
C55   H18   S    
C28   C32   A    
C43   C68   S    
C9    C13   A    
C71   H60   S    
C65   O30   S    
C8    C18   S    
C16   C20   A    
C12   C32   A    
C58   H30   S    
C39   C43   A    
O10   C6    A    
C72   H62   S    
C26   N6    S    
C21   H5    S    
O20   V2    S    
O2    C6    A    
C57   H28   S    
C23   H7    S    
C29   C30   S    
C46   C61   S    
C9    H1    S    
N7    C59   S    
C40   C51   A    
C59   H35   S    
C71   H58   S    
C47   C51   A    
C24   H8    S    
C20   C24   A    
C55   H20   S    
N9    C69   S    
C48   C63   S    
C53   H12   S    
N5    H25   S    
N4    H21   S    
C61   O22   S    
C13   C17   A    
C11   C31   A    
C35   C44   A    
C71   H59   S    
C66   O31   D    
C63   O25   D    
C15   C19   A    
O4    V2    S    
O26   H43   S    
C5    C19   S    
