data_mof_unit_66266.cif
_audit_creation_date              2012-12-10T19:00:57-0500
_audit_creation_method            fapswitch 2.2
_symmetry_space_group_name_H-M    P1
_symmetry_Int_Tables_number       1
_space_group_crystal_system       triclinic
_cell_length_a                    10.881172
_cell_length_b                    14.25405
_cell_length_c                    13.340058
_cell_angle_alpha                 90.009589
_cell_angle_beta                  89.655056
_cell_angle_gamma                 90.038264
_cell_volume                      2069.01527864

loop_
_atom_site_label
_atom_site_type_symbol
_atom_type_description
_atom_site_fract_x
_atom_site_fract_y
_atom_site_fract_z
_atom_type_partial_charge
C1    C     C_R   0.500142 0.326528 0.499998 0.893655
C2    C     C_R   0.744727 0.492358 0.500139 0.879133
C3    C     C_R   0.499358 0.673490 0.500011 0.907951
C4    C     C_3   0.075999 0.411691 0.434946 0.212604
C5    C     C_3   0.068745 0.597998 0.457273 0.146645
C6    C     C_3   0.928962 0.406436 0.434123 0.129991
C7    C     C_3   0.922008 0.591686 0.452261 0.179265
C8    C     C_3   0.073840 0.486597 0.620986 -0.187480
C9    C     C_3   0.925743 0.482511 0.618442 -0.179974
C10   C     C_3   0.119625 0.499737 0.504365 -0.180524
C11   C     C_3   0.879742 0.493273 0.501496 -0.123890
C12   C     C_1   0.499978 0.957727 0.500021 0.019086
C13   C     C_1   0.500138 0.225917 0.499995 -0.222868
C14   C     C_1   0.500122 0.141353 0.500002 0.008448
C15   C     C_1   0.500067 0.042298 0.500013 0.020819
C16   C     C_2   0.134208 0.401762 0.673401 0.584351
C17   C     C_2   0.124634 0.564409 0.691291 0.351497
C18   C     C_2   0.869261 0.391457 0.665253 0.558891
C19   C     C_2   0.873302 0.563266 0.684636 0.512556
C20   C     C_1   0.499818 0.858671 0.500026 0.003626
C21   C     C_1   0.499632 0.774106 0.500023 -0.230902
C22   C     C_1   0.499990 0.499969 0.169359 0.086072
C23   C     C_1   0.499961 0.499964 0.830635 0.157657
C24   C     C_1   0.499975 0.499961 0.049524 -0.026218
C25   C     C_1   0.499964 0.499959 0.950460 -0.004190
C26   C     C_R   0.254657 0.502453 0.500947 0.868155
H1    H     H_    0.223049 0.323510 0.475954 0.173695
H2    H     H_    0.131775 0.357774 0.295459 0.195345
H3    H     H_    0.213429 0.630736 0.359208 0.215001
H4    H     H_    0.082443 0.676604 0.327122 0.187455
H5    H     H_    0.788959 0.391815 0.327407 0.212830
H6    H     H_    0.922184 0.355974 0.287762 0.172376
H7    H     H_    0.928411 0.566634 0.293696 0.219108
H8    H     H_    0.868485 0.669347 0.325399 0.174382
H9    H     H_    0.210038 0.363855 0.640062 0.026871
H10   H     H_    0.199444 0.609832 0.669341 0.089547
H11   H     H_    0.776408 0.392254 0.695345 0.114155
H12   H     H_    0.087680 0.294081 0.534937 0.231751
H13   H     H_    0.904151 0.634601 0.675094 0.099493
H14   H     H_    0.202935 0.683773 0.524666 0.160793
H15   H     H_    0.061664 0.692545 0.582760 0.187906
H16   H     H_    0.911765 0.260977 0.428735 0.205141
H17   H     H_    0.788852 0.314428 0.477642 0.154460
H18   H     H_    0.769864 0.670340 0.498771 0.192041
H19   H     H_    0.894157 0.734649 0.476725 0.200773
H20   H     H_    0.078366 0.466912 0.285433 0.213576
N1    N     N_1   0.500000 0.499980 0.261870 -0.065173
N2    N     N_3   0.874754 0.599245 0.347988 -0.412923
N3    N     N_1   0.500000 0.499980 0.738130 -0.059072
N4    N     N_3   0.127374 0.321424 0.470201 -0.479515
N5    N     N_3   0.107676 0.681311 0.515346 -0.485120
N6    N     N_3   0.884909 0.316305 0.475581 -0.426174
N7    N     N_3   0.865228 0.670749 0.507521 -0.503988
N8    N     N_3   0.127402 0.422625 0.332169 -0.403534
N9    N     N_3   0.119945 0.614688 0.355871 -0.453787
N10   N     N_3   0.881869 0.409668 0.330014 -0.466701
O1    O     O_R   0.500000 0.373720 0.576470 -0.603604
O2    O     O_2   0.091781 0.570470 0.778973 -0.510664
O3    O     O_2   0.920513 0.315371 0.666644 -0.568018
O4    O     O_2   0.801846 0.549676 0.754318 -0.568353
O5    O     O_R   0.500000 0.373720 0.423530 -0.601196
O6    O     O_R   0.314810 0.499990 0.576450 -0.667904
O7    O     O_R   0.314810 0.499990 0.423550 -0.577300
O8    O     O_R   0.685190 0.499990 0.576450 -0.627801
O9    O     O_R   0.685190 0.499990 0.423550 -0.590211
O10   O     O_R   0.500000 0.626290 0.576440 -0.587594
O11   O     O_R   0.500000 0.626290 0.423560 -0.598290
O12   O     O_2   0.108364 0.381134 0.760097 -0.484403
Zn1   Zn    Zn3+2 0.500000 0.500010 0.602090 0.978151
Zn2   Zn    Zn3+2 0.500000 0.500010 0.397910 0.972117

loop_
_geom_bond_atom_site_label_1
_geom_bond_atom_site_label_2
_ccdc_geom_bond_type
O5    Zn2   S    
C1    C13   S    
C26   O7    A    
C12   C15   T    
N1    Zn2   S    
H12   N4    S    
C17   H10   S    
C1    O1    A    
C19   O4    D    
H14   N5    S    
H4    N9    S    
C18   O3    D    
C8    C17   S    
C6    N10   S    
O7    Zn2   S    
C17   O2    D    
C2    O9    A    
C4    N8    S    
C7    N2    S    
C10   C26   S    
C22   N1    T    
C26   O6    A    
H19   N7    S    
C5    C10   S    
C8    C16   S    
N3    Zn1   S    
C13   C14   T    
C20   C21   T    
C7    C11   S    
C9    C11   S    
C5    N9    S    
C12   C20   S    
C19   H13   S    
C16   O12   D    
C2    C11   S    
C8    C10   S    
H20   N8    S    
C2    O8    A    
C23   C25   S    
C16   H9    S    
O1    Zn1   S    
H5    N10   S    
C22   C24   S    
H17   N6    S    
C3    C21   S    
O10   Zn1   S    
C23   N3    T    
C7    N7    S    
C4    C10   S    
O9    Zn2   S    
C3    O10   A    
H15   N5    S    
C9    C18   S    
H8    N2    S    
C24   C25   T    
C3    O11   A    
H1    N4    S    
C4    C6    S    
C9    C19   S    
C4    N4    S    
C6    C11   S    
C5    C7    S    
H7    N2    S    
H2    N8    S    
C14   C15   S    
C18   H11   S    
H3    N9    S    
O11   Zn2   S    
C6    N6    S    
O8    Zn1   S    
H18   N7    S    
H6    N10   S    
C5    N5    S    
O6    Zn1   S    
H16   N6    S    
C8    C9    S    
C1    O5    A    
