data_mof_unit_37684.cif
_audit_creation_date              2012-10-26T19:57:54-0400
_audit_creation_method            fapswitch 2.2
_symmetry_space_group_name_H-M    P1
_symmetry_Int_Tables_number       1
_space_group_crystal_system       triclinic
_cell_length_a                    7.525867
_cell_length_b                    8.736827
_cell_length_c                    12.921283
_cell_angle_alpha                 86.251276
_cell_angle_beta                  78.854664
_cell_angle_gamma                 102.822827
_cell_volume                      807.567583971

loop_
_atom_site_label
_atom_site_type_symbol
_atom_type_description
_atom_site_fract_x
_atom_site_fract_y
_atom_site_fract_z
_atom_type_partial_charge
C1    C     C_R   0.453451 0.200317 0.503844 0.598485
C2    C     C_R   0.667124 0.657450 0.123055 0.200749
C3    C     C_R   0.529994 0.593826 0.864540 0.222601
C4    C     C_R   0.456709 0.396207 0.137891 0.217372
C5    C     C_R   0.557587 0.564142 0.968122 -0.065110
C6    C     C_R   0.468817 0.412839 0.026975 -0.064552
C7    C     C_2   0.428547 0.032902 0.518289 0.218747
C8    C     C_2   0.570536 0.966965 0.479506 0.206547
C9    C     C_R   0.546514 0.799726 0.495300 0.597728
C10   C     C_R   0.465712 0.492145 0.700894 0.599417
C11   C     C_R   0.534304 0.506711 0.298856 0.590761
C12   C     C_R   0.554358 0.519571 0.184505 -0.017637
C13   C     C_R   0.447827 0.468761 0.814481 -0.015968
C14   C     C_R   0.394434 0.285648 0.972373 0.315536
C15   C     C_R   0.672051 0.679260 0.014677 0.310236
C16   C     C_R   0.382939 0.315401 0.866722 0.196787
Cl1   Cl    Cl    0.302789 0.233118 0.223776 -0.384933
Cl2   Cl    Cl    0.566649 0.787705 0.799886 -0.374934
Cl3   Cl    Cl    0.792115 0.810739 0.183208 -0.366582
Cl4   Cl    Cl    0.291907 0.157983 0.797755 -0.364543
Cl5   Cl    Cl    0.348272 0.084104 0.023825 -0.272225
Cl6   Cl    Cl    0.845422 0.839801 0.938660 -0.264595
Cl7   Cl    Cl    0.211925 0.928117 0.600895 -0.394057
Cl8   Cl    Cl    0.784035 0.071114 0.393882 -0.405796
Cu1   Cu    Cu3+1 0.686350 0.517570 0.488220 1.216935
Cu2   Cu    Cu3+1 0.313650 0.482430 0.511780 1.220235
I1    I     I_    0.871716 0.281152 0.648782 0.094824
I2    I     I_    0.129130 0.718516 0.351286 0.111581
N1    N     N_2   0.033570 0.455950 0.529530 -0.043875
N2    N     N_2   0.966430 0.544050 0.470470 -0.040878
O1    O     O_R   0.621060 0.286250 0.492350 -0.502670
O2    O     O_R   0.378940 0.713750 0.507650 -0.504107
O3    O     O_R   0.306310 0.256580 0.512240 -0.447238
O4    O     O_R   0.693690 0.743420 0.487760 -0.449940
O5    O     O_R   0.631800 0.512400 0.642670 -0.503485
O6    O     O_R   0.368200 0.487600 0.357330 -0.489748
O7    O     O_R   0.317060 0.482730 0.662570 -0.471812
O8    O     O_R   0.682940 0.517270 0.337430 -0.473855

loop_
_geom_bond_atom_site_label_1
_geom_bond_atom_site_label_2
_ccdc_geom_bond_type
Cu1   O1    S    
C11   O8    A    
C11   C12   S    
Cu2   O7    S    
Cu2   O2    S    
C10   O5    A    
Cu1   O8    S    
C4    C12   A    
Cu2   O3    S    
C3    C13   A    
Cu1   O4    S    
C16   Cl4   S    
C2    C12   A    
I2    N2    S    
C2    Cl3   S    
C1    O3    A    
C7    C8    D    
C2    C15   A    
N1    N2    D    
Cu1   O5    S    
C10   O7    A    
C7    Cl7   S    
C4    Cl1   S    
C14   Cl5   S    
Cu2   O6    S    
C11   O6    A    
C8    Cl8   S    
C9    O4    A    
C14   C16   A    
C5    C15   A    
C6    C14   A    
C1    O1    A    
I1    N1    S    
C3    Cl2   S    
C4    C6    A    
C13   C16   A    
Cu1   N2    S    
C5    C6    A    
Cu2   N1    S    
C9    O2    A    
Cu1   Cu2   S    
C1    C7    S    
C15   Cl6   S    
C8    C9    S    
C3    C5    A    
C10   C13   S    
