data_mof_unit_17527.cif
_audit_creation_date              2012-12-11T14:28:24-0500
_audit_creation_method            fapswitch 2.2
_symmetry_space_group_name_H-M    P1
_symmetry_Int_Tables_number       1
_space_group_crystal_system       triclinic
_cell_length_a                    10.950641
_cell_length_b                    19.174687
_cell_length_c                    18.477616
_cell_angle_alpha                 89.989781
_cell_angle_beta                  90.341381
_cell_angle_gamma                 90.622725
_cell_volume                      3879.54147671

loop_
_atom_site_label
_atom_site_type_symbol
_atom_type_description
_atom_site_fract_x
_atom_site_fract_y
_atom_site_fract_z
_atom_type_partial_charge
C1    C     C_R   0.321365 0.970287 0.646753 0.573318
C2    C     C_3   0.185816 0.776081 0.037330 -0.132090
C3    C     C_3   0.957295 0.218180 0.988059 -0.114774
C4    C     C_3   0.611625 0.306816 0.470346 -0.125547
C5    C     C_3   0.509453 0.293954 0.021840 -0.066158
C6    C     C_3   0.524947 0.695932 0.518783 -0.132281
C7    C     C_3   0.524302 0.696404 0.975748 -0.111411
C8    C     C_3   0.211790 0.754382 0.514634 -0.134733
C9    C     C_3   0.106818 0.818015 0.983331 -0.090261
C10   C     C_3   0.120792 0.189933 0.485184 -0.094632
C11   C     C_3   0.088102 0.201490 0.013952 -0.106978
C12   C     C_3   0.695236 0.261685 0.517605 -0.128684
C13   C     C_3   0.184529 0.242296 0.537011 -0.132023
C14   C     C_3   0.640153 0.284853 0.992995 -0.078433
C15   C     C_3   0.658892 0.684377 0.496399 -0.142188
C16   C     C_3   0.660851 0.698082 0.998066 -0.142493
C17   C     C_3   0.103858 0.755462 0.567279 0.057526
C18   C     C_3   0.104498 0.754625 0.932345 0.055720
C19   C     C_3   0.101688 0.249249 0.430945 0.056792
C20   C     C_3   0.075819 0.256069 0.073798 0.050135
C21   C     C_3   0.590059 0.250177 0.570915 0.054728
C22   C     C_3   0.585839 0.245835 0.928046 0.039393
C23   C     C_3   0.641917 0.738627 0.437156 0.060816
C24   C     C_3   0.140644 0.258626 0.964657 -0.105074
C25   C     C_3   0.626708 0.740819 0.064050 0.060543
C26   C     C_3   0.038661 0.809413 0.520134 -0.114147
C27   C     C_3   0.987208 0.726881 0.965574 -0.158879
C28   C     C_3   0.977654 0.266133 0.461644 -0.164240
C29   C     C_3   0.945383 0.272758 0.049727 -0.155135
C30   C     C_3   0.506463 0.296044 0.524888 -0.112979
C31   C     C_3   0.456341 0.255572 0.955235 -0.161624
C32   C     C_3   0.509475 0.750217 0.458032 -0.118264
C33   C     C_3   0.491327 0.738732 0.043824 -0.128945
C34   C     C_3   0.977112 0.747408 0.480669 -0.131428
C35   C     C_3   0.655734 0.194989 0.477227 -0.106016
C36   C     C_3   0.066060 0.685347 0.018776 -0.116401
C37   C     C_3   0.041279 0.318331 0.513569 -0.122767
C38   C     C_3   0.998070 0.329972 0.999023 -0.129514
C39   C     C_3   0.466269 0.228978 0.484135 -0.120477
C40   C     C_3   0.465883 0.184889 0.995874 -0.146688
C41   C     C_3   0.552771 0.808886 0.509377 -0.101395
C42   C     C_3   0.510255 0.807879 0.002071 -0.123756
C43   C     C_3   0.042924 0.694353 0.528821 -0.122263
C44   C     C_3   0.184380 0.713262 0.985130 -0.112711
C45   C     C_3   0.166612 0.301576 0.481658 -0.111957
C46   C     C_3   0.650795 0.214422 0.032412 -0.104576
C47   C     C_3   0.128692 0.313489 0.024420 -0.092986
C48   C     C_3   0.550911 0.183720 0.531364 -0.120018
C49   C     C_3   0.596601 0.175568 0.966854 -0.115069
C50   C     C_3   0.686007 0.797775 0.487178 -0.101978
C51   C     C_3   0.646479 0.809383 0.023240 -0.095561
C52   C     C_3   0.970318 0.922314 0.349570 -0.106623
C53   C     C_3   0.986348 0.968032 0.158291 -0.083712
C54   C     C_3   0.029092 0.076453 0.683729 -0.062959
C55   C     C_3   0.236448 0.130750 0.842280 -0.107676
C56   C     C_3   0.474078 0.478680 0.324395 -0.100105
C57   C     C_3   0.702664 0.743421 0.547814 -0.147968
C58   C     C_3   0.588725 0.406495 0.179251 -0.073122
C59   C     C_3   0.518393 0.598916 0.658864 -0.090494
C60   C     C_3   0.670452 0.606949 0.841804 -0.093914
C61   C     C_3   0.679922 0.766963 0.956121 -0.128956
C62   C     C_3   0.083702 0.745847 0.427565 0.060329
C63   C     C_3   0.068885 0.747537 0.070616 0.069971
C64   C     C_3   0.060576 0.258846 0.567991 0.071444
C65   C     C_R   0.322475 0.969967 0.853021 0.554025
C66   C     C_3   0.011800 0.275540 0.939488 0.051353
C67   C     C_3   0.571704 0.240796 0.431092 0.058212
C68   C     C_3   0.521037 0.223954 0.060926 0.061413
C69   C     C_3   0.570564 0.754703 0.569237 0.042292
C70   C     C_3   0.544371 0.765563 0.935332 0.059702
C71   C     C_R   0.321794 0.994415 0.424442 -0.018163
C72   C     C_R   0.323957 0.999738 0.072412 -0.008975
C73   C     C_R   0.332137 0.005663 0.575827 -0.012481
C74   C     C_R   0.338167 0.008629 0.921354 -0.042360
C75   C     C_R   0.817904 0.497427 0.425995 -0.023564
C76   C     C_R   0.319010 0.029661 0.353220 0.566461
C77   C     C_R   0.835502 0.497711 0.073532 -0.003320
C78   C     C_R   0.817668 0.507269 0.577594 -0.033075
C79   C     C_R   0.828151 0.508959 0.922167 -0.054394
C80   C     C_R   0.540232 0.971606 0.421060 -0.076718
C81   C     C_R   0.545109 0.979939 0.078712 -0.074788
C82   C     C_R   0.558586 0.998652 0.568835 -0.088620
C83   C     C_R   0.562563 0.999688 0.929899 -0.083475
C84   C     C_R   0.042940 0.490023 0.430210 -0.077243
C85   C     C_R   0.062272 0.501102 0.067862 -0.093822
C86   C     C_R   0.039891 0.523971 0.576296 -0.087893
C87   C     C_R   0.319067 0.030833 0.145700 0.555967
C88   C     C_R   0.047705 0.530450 0.919863 -0.077845
C89   C     C_R   0.652605 0.968442 0.455495 -0.126414
C90   C     C_R   0.658295 0.981063 0.045880 -0.129476
C91   C     C_R   0.662547 0.982975 0.529077 -0.129721
C92   C     C_R   0.667236 0.989873 0.971346 -0.137596
C93   C     C_R   0.151657 0.504831 0.466586 -0.133200
C94   C     C_R   0.168046 0.515528 0.028367 -0.146291
C95   C     C_R   0.149594 0.524027 0.539075 -0.124066
C96   C     C_R   0.159628 0.532612 0.955083 -0.124965
C97   C     C_R   0.441697 0.998085 0.535688 -0.025820
C98   C     C_R   0.818746 0.471071 0.647792 0.547715
C99   C     C_R   0.446407 0.000348 0.962478 -0.011853
C100  C     C_R   0.434615 0.988751 0.459950 -0.016890
C101  C     C_R   0.438421 0.993650 0.038505 -0.017112
C102  C     C_R   0.928507 0.510050 0.539932 -0.026120
C103  C     C_R   0.940836 0.514696 0.958277 -0.023921
C104  C     C_R   0.929267 0.498474 0.464889 -0.014023
C105  C     C_R   0.946184 0.505457 0.034414 -0.023457
C106  C     C_R   0.220802 0.016435 0.538568 -0.018700
C107  C     C_R   0.230295 0.026467 0.956445 -0.060798
C108  C     C_R   0.212596 0.995188 0.465884 -0.029613
C109  C     C_R   0.820667 0.470058 0.853254 0.519291
C110  C     C_R   0.217286 0.004699 0.028470 -0.021740
C111  C     C_R   0.703129 0.509424 0.539245 -0.025293
C112  C     C_R   0.719983 0.512389 0.962960 -0.042651
C113  C     C_R   0.703196 0.493373 0.464204 -0.028096
C114  C     C_R   0.726980 0.488396 0.034531 -0.003238
C115  C     C_R   0.115381 0.041984 0.574083 0.303029
C116  C     C_R   0.128299 0.054327 0.918344 0.307085
C117  C     C_R   0.095438 0.980257 0.435407 0.304315
C118  C     C_R   0.098353 0.989089 0.053849 0.299913
C119  C     C_R   0.586630 0.520369 0.574426 0.294211
C120  C     C_R   0.818364 0.530030 0.353539 0.555054
C121  C     C_R   0.602692 0.528200 0.933299 0.309917
C122  C     C_R   0.587590 0.474377 0.430783 0.297667
C123  C     C_R   0.625116 0.457158 0.067137 0.298124
C124  C     C_R   0.001542 0.034955 0.539213 -0.172736
C125  C     C_R   0.012201 0.042194 0.945725 -0.130764
C126  C     C_R   0.991826 0.003948 0.472253 -0.169992
C127  C     C_R   0.997502 0.006620 0.010461 -0.185066
C128  C     C_R   0.482256 0.492207 0.543147 -0.152699
C129  C     C_R   0.500041 0.505498 0.971558 -0.132686
C130  C     C_R   0.483930 0.466777 0.474160 -0.174887
C131  C     C_R   0.821562 0.530656 0.145805 0.542663
C132  C     C_R   0.510012 0.469099 0.036567 -0.158726
C133  C     C_R   0.134907 0.758564 0.643125 0.538889
C134  C     C_R   0.135301 0.758355 0.856755 0.535568
C135  C     C_R   0.134452 0.242158 0.356271 0.545700
C136  C     C_R   0.129585 0.243358 0.145034 0.539124
C137  C     C_R   0.629451 0.256799 0.645423 0.533392
C138  C     C_R   0.633729 0.257442 0.856078 0.526395
C139  C     C_R   0.681862 0.729565 0.363831 0.559103
C140  C     C_R   0.675783 0.730677 0.135624 0.563432
C141  C     C_R   0.535561 0.772070 0.642154 0.538027
C142  C     C_3   0.150072 0.692628 0.475299 -0.094583
C143  C     C_R   0.503564 0.784793 0.863578 0.556083
C144  C     C_R   0.543308 0.230066 0.355270 0.555918
C145  C     C_R   0.495092 0.211595 0.137398 0.571114
C146  C     C_R   0.038001 0.271151 0.643280 0.570000
C147  C     C_R   0.992549 0.288748 0.862231 0.564078
C148  C     C_R   0.047115 0.731598 0.353390 0.553152
C149  C     C_R   0.042728 0.731246 0.145304 0.557599
C150  C     C_3   0.145609 0.807424 0.465769 -0.128104
C151  C     C_3   0.988464 0.789528 0.018335 -0.097926
C152  C     C_3   0.995124 0.206885 0.517588 -0.104823
Cr1   Cr    Cr6+3 0.488160 0.884660 0.750000 0.985996
Cr2   Cr    Cr6+3 0.333410 0.272740 0.250000 0.979103
Cr3   Cr    Cr6+3 0.833410 0.227260 0.750000 0.979368
Cr4   Cr    Cr6+3 0.833410 0.772740 0.250000 0.968025
Cr5   Cr    Cr6+3 0.488160 0.115340 0.250000 0.992345
Cr6   Cr    Cr6+3 0.988160 0.384660 0.750000 0.997367
Cr7   Cr    Cr6+3 0.988160 0.615340 0.250000 0.983708
Cr8   Cr    Cr6+3 0.173480 0.883120 0.750000 1.019057
Cr9   Cr    Cr6+3 0.173480 0.116880 0.250000 1.016635
Cr10  Cr    Cr6+3 0.673480 0.383120 0.750000 1.069241
Cr11  Cr    Cr6+3 0.673480 0.616880 0.250000 0.997273
Cr12  Cr    Cr6+3 0.333410 0.727260 0.750000 0.982333
H1    H     H_    0.306791 0.758946 0.534270 0.125029
H2    H     H_    0.932785 0.058011 0.914934 0.125493
H3    H     H_    0.902472 0.001931 0.448678 0.099830
H4    H     H_    0.907577 0.992364 0.026925 0.102800
H5    H     H_    0.401585 0.484702 0.575480 0.124134
H6    H     H_    0.411951 0.511484 0.947483 0.123659
H7    H     H_    0.403362 0.440228 0.453661 0.112250
H8    H     H_    0.428249 0.447742 0.060626 0.085205
H9    H     H_    0.990429 0.856148 0.540203 0.121107
H10   H     H_    0.910959 0.703641 0.933845 0.091748
H11   H     H_    0.896862 0.276213 0.426793 0.109020
H12   H     H_    0.123914 0.872301 0.965108 0.145722
H13   H     H_    0.869483 0.280889 0.088134 0.134277
H14   H     H_    0.443436 0.335623 0.546735 0.120955
H15   H     H_    0.392466 0.278439 0.915873 0.109769
H16   H     H_    0.432288 0.753152 0.418937 0.121235
H17   H     H_    0.419391 0.724394 0.083236 0.123457
H18   H     H_    0.884762 0.740030 0.459319 0.116809
H19   H     H_    0.043382 0.632530 0.036960 0.164525
H20   H     H_    0.007481 0.370610 0.528282 0.147355
H21   H     H_    0.955059 0.380299 0.988031 0.133063
H22   H     H_    0.375551 0.212521 0.463507 0.123124
H23   H     H_    0.156045 0.138686 0.468308 0.133307
H24   H     H_    0.393561 0.144434 0.001268 0.105486
H25   H     H_    0.504135 0.858380 0.517668 0.139705
H26   H     H_    0.446367 0.852279 0.001381 0.118043
H27   H     H_    0.992737 0.652506 0.557200 0.114315
H28   H     H_    0.262744 0.680237 0.970440 0.125580
H29   H     H_    0.236507 0.340938 0.465659 0.128764
H30   H     H_    0.199847 0.352722 0.039306 0.128582
H31   H     H_    0.522261 0.135439 0.559387 0.122922
H32   H     H_    0.637187 0.129186 0.941575 0.135109
H33   H     H_    0.754123 0.838594 0.473041 0.111012
H34   H     H_    0.128901 0.149908 0.024246 0.120170
H35   H     H_    0.702994 0.852511 0.044781 0.130107
H36   H     H_    0.730480 0.952584 0.424563 0.088281
H37   H     H_    0.737635 0.971645 0.078996 0.084114
H38   H     H_    0.750134 0.980194 0.555963 0.102011
H39   H     H_    0.754678 0.988913 0.944874 0.099935
H40   H     H_    0.236537 0.504246 0.437386 0.090752
H41   H     H_    0.255579 0.516521 0.055509 0.102789
H42   H     H_    0.231837 0.540725 0.566513 0.101755
H43   H     H_    0.237964 0.549680 0.924812 0.114241
H44   H     H_    0.535582 0.957549 0.364343 0.130042
H45   H     H_    0.785715 0.278789 0.537864 0.126548
H46   H     H_    0.542026 0.966553 0.135550 0.132986
H47   H     H_    0.571147 0.012587 0.625107 0.129101
H48   H     H_    0.574697 0.010901 0.873033 0.128998
H49   H     H_    0.048556 0.472921 0.374543 0.127744
H50   H     H_    0.072237 0.486797 0.124183 0.136180
H51   H     H_    0.041624 0.539763 0.632569 0.122732
H52   H     H_    0.044264 0.544223 0.863034 0.126314
H53   H     H_    0.196456 0.849974 0.438693 0.157908
H54   H     H_    0.910612 0.822308 0.034513 0.124918
H55   H     H_    0.922199 0.170286 0.534869 0.122337
H56   H     H_    0.711562 0.326196 0.989116 0.136686
H57   H     H_    0.887284 0.179440 0.970460 0.124060
H58   H     H_    0.650369 0.351632 0.441375 0.153730
H59   H     H_    0.463047 0.337464 0.048057 0.150805
H60   H     H_    0.454388 0.655177 0.527233 0.105580
H61   H     H_    0.471257 0.651517 0.954101 0.146676
H62   H     H_    0.200455 0.646771 0.455250 0.133110
H63   H     H_    0.261600 0.799392 0.069392 0.117093
H64   H     H_    0.264796 0.232197 0.572252 0.120611
H65   H     H_    0.211169 0.252425 0.923878 0.110159
H66   H     H_    0.718715 0.154749 0.456463 0.127398
H67   H     H_    0.707697 0.635273 0.486874 0.113348
H68   H     H_    0.727938 0.194594 0.065254 0.129072
H69   H     H_    0.779973 0.740518 0.586817 0.109893
H70   H     H_    0.753963 0.780519 0.917766 0.124433
H71   H     H_    0.914933 0.968108 0.333599 0.078252
H72   H     H_    0.925296 0.890901 0.392616 0.124814
H73   H     H_    0.976696 0.888984 0.301047 0.166576
H74   H     H_    0.017773 0.967026 0.214981 0.162204
H75   H     H_    0.908921 0.930704 0.151726 0.101306
H76   H     H_    0.955501 0.022551 0.148870 0.098382
H77   H     H_    0.004567 0.021473 0.696920 0.123745
H78   H     H_    0.724901 0.653938 0.002828 0.101393
H79   H     H_    0.949640 0.104769 0.661722 0.111709
H80   H     H_    0.051827 0.104143 0.734168 0.207358
H81   H     H_    0.305395 0.106050 0.807118 0.134810
H82   H     H_    0.205698 0.178638 0.814212 0.157816
H83   H     H_    0.280126 0.146864 0.893925 0.085520
H84   H     H_    0.429213 0.522388 0.353471 0.095797
H85   H     H_    0.406343 0.436208 0.314430 0.109570
H86   H     H_    0.500367 0.502117 0.272086 0.123129
H87   H     H_    0.596432 0.356158 0.207866 0.185219
H88   H     H_    0.490503 0.419658 0.174462 0.085136
H89   H     H_    0.918294 0.054041 0.562187 0.089002
H90   H     H_    0.640067 0.442474 0.214725 0.179384
H91   H     H_    0.429532 0.601915 0.629860 0.110878
H92   H     H_    0.585544 0.640111 0.646121 0.141629
H93   H     H_    0.497646 0.602717 0.717356 0.176906
H94   H     H_    0.723659 0.583792 0.797194 0.142393
H95   H     H_    0.625288 0.652667 0.817959 0.157269
H96   H     H_    0.733076 0.626814 0.884265 0.079584
O1    O     O_R   0.575450 0.828820 0.667950 -0.511650
O2    O     O_R   0.416860 0.942890 0.825320 -0.533573
O3    O     O_R   0.416860 0.057110 0.325320 -0.513035
O4    O     O_R   0.416860 0.057110 0.174680 -0.533550
O5    O     O_R   0.916860 0.442890 0.674680 -0.522959
O6    O     O_R   0.916860 0.442890 0.825320 -0.531244
O7    O     O_R   0.916860 0.557110 0.325320 -0.512207
O8    O     O_R   0.916860 0.557110 0.174680 -0.516718
O9    O     O_R   0.213790 0.953680 0.668330 -0.482967
O10   O     O_R   0.213790 0.953680 0.831670 -0.475469
O11   O     O_R   0.213790 0.046320 0.331670 -0.467512
O12   O     O_R   0.575450 0.828820 0.832050 -0.522618
O13   O     O_R   0.213790 0.046320 0.168330 -0.481734
O14   O     O_R   0.713790 0.453680 0.668330 -0.430773
O15   O     O_R   0.713790 0.453680 0.831670 -0.458452
O16   O     O_R   0.713790 0.546320 0.331670 -0.482776
O17   O     O_R   0.713790 0.546320 0.168330 -0.534983
O18   O     O_R   0.121360 0.817890 0.672660 -0.510735
O19   O     O_R   0.121360 0.817890 0.827340 -0.515370
O20   O     O_R   0.121360 0.182110 0.327340 -0.511000
O21   O     O_R   0.121360 0.182110 0.172660 -0.515172
O22   O     O_R   0.621360 0.317890 0.672660 -0.498309
O23   O     O_R   0.575450 0.171180 0.332050 -0.518219
O24   O     O_R   0.621360 0.317890 0.827340 -0.503268
O25   O     O_R   0.621360 0.682110 0.327340 -0.500206
O26   O     O_R   0.621360 0.682110 0.172660 -0.500469
O27   O     O_R   0.206850 0.711370 0.665820 -0.533780
O28   O     O_R   0.206850 0.711370 0.834180 -0.534179
O29   O     O_R   0.206850 0.288630 0.334180 -0.535972
O30   O     O_R   0.206850 0.288630 0.165820 -0.542139
O31   O     O_R   0.706850 0.211370 0.665820 -0.538158
O32   O     O_R   0.706850 0.211370 0.834180 -0.547805
O33   O     O_R   0.706850 0.788630 0.334180 -0.536361
O34   O     O_R   0.575450 0.171180 0.167950 -0.521516
O35   O     O_R   0.706850 0.788630 0.165820 -0.535434
O36   O     O_R   0.457710 0.733190 0.672630 -0.544009
O37   O     O_R   0.457710 0.733190 0.827370 -0.519427
O38   O     O_R   0.457710 0.266810 0.327370 -0.501452
O39   O     O_R   0.457710 0.266810 0.172630 -0.526466
O40   O     O_R   0.957710 0.233190 0.672630 -0.520991
O41   O     O_R   0.957710 0.233190 0.827370 -0.501064
O42   O     O_R   0.957710 0.766810 0.327370 -0.542895
O43   O     O_R   0.957710 0.766810 0.172630 -0.518797
O44   O     O_3   0.331690 0.831680 0.750000 -0.269718
O45   O     O_R   0.075450 0.328820 0.667950 -0.517893
O46   O     O_3   0.331690 0.168320 0.250000 -0.279411
O47   O     O_3   0.831690 0.331680 0.750000 -0.286906
O48   O     O_3   0.831690 0.668320 0.250000 -0.284565
O49   O     O_3   0.089465 0.943036 0.370206 -0.565040
O50   O     O_3   0.085027 0.947036 0.114669 -0.551066
O51   O     O_3   0.131358 0.080534 0.637616 -0.570783
O52   O     O_3   0.134842 0.085372 0.850469 -0.570658
O53   O     O_3   0.579139 0.450819 0.359627 -0.567450
O54   O     O_3   0.647080 0.400533 0.112210 -0.601128
O55   O     O_3   0.577187 0.536939 0.647218 -0.554818
O56   O     O_R   0.075450 0.328820 0.832050 -0.519760
O57   O     O_3   0.579838 0.559088 0.865857 -0.553650
O58   O     O_R   0.075450 0.671180 0.332050 -0.518568
O59   O     O_R   0.075450 0.671180 0.167950 -0.527346
O60   O     O_R   0.416860 0.942890 0.674680 -0.524920

loop_
_geom_bond_atom_site_label_1
_geom_bond_atom_site_label_2
_ccdc_geom_bond_type
C6    C32   S    
Cr6   O6    S    
C65   O2    A    
C21   C137  S    
C110  C118  A    
C58   H87   S    
C56   H84   S    
C64   C152  S    
C134  O19   A    
C72   C101  A    
C98   O5    A    
C9    H12   S    
C60   H94   S    
C54   O51   S    
C113  C122  A    
C134  O28   A    
C4    C12   S    
C117  C126  A    
Cr7   O48   S    
Cr5   O23   S    
C21   C48   S    
C119  C128  A    
C80   C89   A    
C120  O7    A    
C29   H13   S    
C71   C108  A    
C7    C33   S    
C14   H56   S    
C140  O35   A    
C53   H76   S    
C6    H60   S    
Cr11  O16   S    
Cr2   O46   S    
C121  O57   S    
C11   C20   S    
C79   C109  S    
C59   H91   S    
C135  O20   A    
C25   C140  S    
Cr8   O18   S    
C126  H3    S    
C26   H9    S    
Cr3   O40   S    
C82   C91   A    
Cr5   O34   S    
C8    C150  S    
C55   O52   S    
C17   C43   S    
C18   C44   S    
C42   H26   S    
C90   C92   A    
C130  H7    S    
C56   H85   S    
C123  O54   S    
C111  C113  A    
C94   C96   A    
C135  O29   A    
Cr7   O58   S    
C92   H39   S    
Cr9   O13   S    
C22   C49   S    
C81   C90   A    
Cr5   O3    S    
Cr3   O47   S    
C137  O22   A    
C17   C133  S    
C107  C110  A    
C36   C44   S    
C37   C45   S    
C52   H72   S    
C41   C69   S    
C21   C30   S    
C16   C25   S    
C89   H36   S    
C9    C151  S    
C62   C150  S    
Cr12  O27   S    
C64   C146  S    
Cr9   O46   S    
C50   C57   S    
C141  O1    A    
C124  H89   S    
Cr9   O20   S    
C145  O39   A    
C28   H11   S    
C146  O40   A    
C7    H61   S    
C8    C17   S    
C41   H25   S    
C106  C115  A    
C60   H96   S    
C44   H28   S    
C13   C45   S    
Cr1   O44   S    
C58   H90   S    
C84   C93   A    
C20   C47   S    
C3    C11   S    
C86   C95   A    
C125  C127  A    
C32   H16   S    
C43   C142  S    
C132  H8    S    
C69   C141  S    
C16   H78   S    
C6    C69   S    
C147  O41   A    
C123  C132  A    
C112  C114  A    
C81   C101  A    
C70   C143  S    
Cr4   O33   S    
C33   C42   S    
C12   H45   S    
Cr12  O44   S    
C1    O9    A    
C40   C49   S    
C76   O11   A    
C42   C70   S    
C111  C119  A    
C77   C131  S    
C3    C29   S    
C98   O14   A    
C74   C107  A    
C148  O42   A    
C146  O45   A    
C2    C44   S    
C149  O43   A    
C29   C38   S    
C32   C41   S    
C78   C111  A    
C75   C113  A    
C89   C91   A    
Cr1   O1    S    
C95   H42   S    
Cr11  O26   S    
C128  H5    S    
C93   C95   A    
C62   C148  S    
C79   C103  A    
Cr10  O47   S    
C62   C142  S    
C27   H10   S    
C120  O16   A    
C117  O49   S    
C129  H6    S    
C141  O36   A    
Cr11  O17   S    
Cr7   O8    S    
C65   C74   S    
C46   C68   S    
C65   O10   A    
C35   C67   S    
Cr3   O41   S    
C144  O23   A    
C99   C101  A    
C30   H14   S    
C103  C105  A    
C36   H19   S    
C20   C136  S    
C12   C35   S    
C19   C28   S    
Cr12  O37   S    
C114  C123  A    
C80   H44   S    
C116  C125  A    
C48   H31   S    
C84   C104  A    
C118  C127  A    
C86   C102  A    
Cr7   O59   S    
C72   C87   S    
C2    C63   S    
C124  C126  A    
Cr4   O35   S    
C15   H67   S    
C46   H68   S    
C108  C117  A    
C75   C120  S    
Cr1   O60   S    
C19   C45   S    
C40   H24   S    
Cr2   O29   S    
C35   H66   S    
C54   H79   S    
C14   C22   S    
C11   H34   S    
C112  C121  A    
C136  O30   A    
C85   H50   S    
Cr10  O14   S    
C106  C108  A    
C28   C37   S    
C150  H53   S    
C30   C39   S    
C18   C134  S    
C107  C116  A    
C91   H38   S    
C8    H1    S    
C9    C18   S    
Cr2   O38   S    
C16   C61   S    
C138  O24   A    
C87   O13   A    
C140  O26   A    
C2    C9    S    
C25   C33   S    
C61   C70   S    
C88   C96   A    
Cr3   O32   S    
C78   C102  A    
Cr4   O42   S    
C97   C100  A    
C7    C70   S    
C14   C46   S    
C84   H49   S    
C46   C49   S    
Cr8   O9    S    
C79   C112  A    
C145  O34   A    
C148  O58   A    
C71   C76   S    
Cr9   O21   S    
C149  O59   A    
C67   C144  S    
C19   C135  S    
C152  H55   S    
C34   C62   S    
C31   C40   S    
Cr11  O48   S    
C138  O32   A    
C10   C152  S    
C39   H22   S    
C127  H4    S    
C55   H82   S    
C56   H86   S    
C58   O54   S    
C83   H48   S    
C24   C66   S    
C129  C132  A    
C81   H46   S    
C3    H57   S    
Cr6   O5    S    
C83   C99   A    
C5    C68   S    
C35   C48   S    
C50   H33   S    
C2    H63   S    
C142  H62   S    
C45   H29   S    
C53   H75   S    
Cr12  O28   S    
C54   H77   S    
C26   C150  S    
C96   H43   S    
C131  O8    A    
C133  O18   A    
C31   H15   S    
Cr6   O56   S    
C10   C19   S    
C115  O51   S    
C136  O21   A    
Cr8   O44   S    
C63   C151  S    
C5    C14   S    
C7    C16   S    
C24   H65   S    
Cr5   O46   S    
C118  O50   S    
C33   H17   S    
C75   C104  A    
C82   C97   A    
C119  O55   S    
C3    C66   S    
C77   C114  A    
C41   C50   S    
Cr12  O36   S    
C37   C64   S    
C56   O53   S    
C143  O37   A    
C122  O53   S    
C27   C151  S    
C115  C124  A    
C59   H92   S    
C121  C129  A    
C23   C50   S    
C128  C130  A    
C74   C99   A    
C49   H32   S    
Cr10  O24   S    
C27   C36   S    
C71   C100  A    
C22   C138  S    
C1    C73   S    
C23   C32   S    
C77   C105  A    
C13   C64   S    
C4    H58   S    
C131  O17   A    
Cr5   O4    S    
C40   C68   S    
C59   H93   S    
C8    C142  S    
C68   C145  S    
C52   H71   S    
C39   C48   S    
Cr11  O25   S    
C147  O56   A    
C47   H30   S    
C58   H88   S    
C51   C61   S    
C94   H41   S    
C13   H64   S    
Cr9   O11   S    
C73   C97   A    
C83   C92   A    
Cr4   O48   S    
C17   C26   S    
C60   H95   S    
C23   C139  S    
Cr7   O7    S    
C1    O60   A    
C11   C24   S    
C52   O49   S    
C139  O25   A    
C137  O31   A    
C93   H40   S    
C86   H51   S    
C63   C149  S    
C6    C15   S    
C26   C34   S    
C38   C66   S    
C133  O27   A    
C78   C98   S    
Cr6   O47   S    
Cr4   O43   S    
C36   C63   S    
C42   C51   S    
C90   H37   S    
C85   C94   A    
C15   C23   S    
C43   H27   S    
C55   H83   S    
C80   C100  A    
C61   H70   S    
C15   C57   S    
Cr8   O19   S    
C85   C105  A    
C20   C29   S    
Cr10  O22   S    
C72   C110  A    
C22   C31   S    
C143  O12   A    
C139  O33   A    
C53   O50   S    
C37   H20   S    
C12   C21   S    
Cr2   O30   S    
C54   H80   S    
C25   C51   S    
C59   O55   S    
Cr10  O15   S    
C10   H23   S    
C66   C147  S    
C151  H54   S    
C102  C104  A    
Cr1   O2    S    
C38   C47   S    
C109  O15   A    
C51   H35   S    
C52   H73   S    
C116  O52   S    
C5    H59   S    
C76   O3    A    
Cr2   O39   S    
C28   C152  S    
C88   C103  A    
C82   H47   S    
C88   H52   S    
Cr3   O31   S    
C24   C47   S    
C39   C67   S    
C18   C27   S    
C109  O6    A    
C10   C13   S    
C53   H74   S    
C4    C67   S    
C57   H69   S    
C38   H21   S    
Cr8   O10   S    
C125  H2    S    
C73   C106  A    
Cr6   O45   S    
C34   H18   S    
Cr1   O12   S    
C144  O38   A    
C55   H81   S    
C57   C69   S    
C34   C43   S    
C87   O4    A    
C122  C130  A    
C4    C30   S    
C60   O57   S    
C5    C31   S    
