data_mof_unit_30591.cif
_audit_creation_date              2012-12-10T18:45:11-0500
_audit_creation_method            fapswitch 2.2
_symmetry_space_group_name_H-M    P1
_symmetry_Int_Tables_number       1
_space_group_crystal_system       triclinic
_cell_length_a                    10.612984
_cell_length_b                    9.862409
_cell_length_c                    10.65819
_cell_angle_alpha                 90.008025
_cell_angle_beta                  89.534481
_cell_angle_gamma                 90.478793
_cell_volume                      1115.51259154

loop_
_atom_site_label
_atom_site_type_symbol
_atom_type_description
_atom_site_fract_x
_atom_site_fract_y
_atom_site_fract_z
_atom_type_partial_charge
C1    C     C_R   0.260263 0.499154 0.498524 0.894395
C2    C     C_R   0.739568 0.500652 0.498074 0.922966
C3    C     C_R   0.934698 0.467253 0.382096 0.162619
C4    C     C_R   0.065861 0.458527 0.384396 0.135868
C5    C     C_R   0.555405 0.072372 0.594923 -0.063552
C6    C     C_R   0.445156 0.071300 0.404795 -0.079622
C7    C     C_R   0.555494 0.928657 0.594870 -0.068175
C8    C     C_R   0.444774 0.927638 0.404993 -0.066729
C9    C     C_R   0.493991 0.499901 0.260560 0.903122
C10   C     C_R   0.494088 0.500112 0.739613 0.857376
C11   C     C_R   0.301732 0.657449 0.132671 -0.197977
C12   C     C_R   0.303450 0.660157 0.871497 -0.195347
C13   C     C_R   0.214310 0.735016 0.068163 -0.165430
C14   C     C_R   0.215280 0.736518 0.937783 -0.137112
C15   C     C_R   0.393733 0.581498 0.935306 0.099074
C16   C     C_R   0.393125 0.580601 0.066993 0.106275
C17   C     C_R   0.482042 0.498775 0.128499 -0.101314
C18   C     C_R   0.482836 0.499812 0.872037 -0.096797
C19   C     C_R   0.562473 0.412533 0.063497 -0.229795
C20   C     C_R   0.563428 0.413635 0.935562 -0.227280
C21   C     C_R   0.063578 0.536818 0.602894 -0.237512
C22   C     C_R   0.934600 0.538279 0.602593 -0.246180
C23   C     C_R   0.871803 0.502693 0.493446 -0.064329
C24   C     C_R   0.127771 0.496761 0.495034 -0.061658
H1    H     H_    0.628327 0.347867 0.112090 0.173116
H2    H     H_    0.629965 0.349817 0.885838 0.154478
H3    H     H_    0.293951 0.655663 0.233737 0.160357
H4    H     H_    0.297990 0.661995 0.770514 0.155133
H5    H     H_    0.144557 0.792690 0.119555 0.135800
H6    H     H_    0.146458 0.795661 0.887722 0.137793
H7    H     H_    0.113178 0.564763 0.687443 0.142693
H8    H     H_    0.883577 0.566360 0.687135 0.146312
H9    H     H_    0.599971 0.126978 0.670830 0.127854
H10   H     H_    0.401880 0.124933 0.328174 0.131777
H11   H     H_    0.600125 0.874867 0.670728 0.133483
H12   H     H_    0.400427 0.873134 0.328946 0.131263
N1    N     N_R   0.500000 0.857200 0.500000 -0.082404
N2    N     N_R   0.500000 0.142810 0.500000 -0.080937
O1    O     O_R   0.316770 0.614620 0.499990 -0.637719
O2    O     O_R   0.683230 0.614620 0.500010 -0.619529
O3    O     O_R   0.316800 0.385290 0.500000 -0.610456
O4    O     O_R   0.683200 0.385290 0.500000 -0.610069
O5    O     O_R   0.500010 0.614690 0.316770 -0.635124
O6    O     O_R   0.499990 0.614690 0.683230 -0.632532
O7    O     O_R   0.500040 0.385360 0.316770 -0.613185
O8    O     O_R   0.499960 0.385360 0.683230 -0.622264
Zn1   Zn    Zn3+2 0.500000 0.653120 0.500000 0.936667
Zn2   Zn    Zn3+2 0.500000 0.346880 0.500000 0.953727
N3    N     N_2   0.865914 0.445699 0.269327 -0.320678
H13   H     H_    0.900037 0.369666 0.212566 0.231417
C25   C     C_3   0.841015 0.569046 0.200530 -0.823796
H14   H     H_    0.930682 0.621150 0.174390 0.232813
H15   H     H_    0.782188 0.638556 0.257749 0.266969
H16   H     H_    0.789602 0.544625 0.113174 0.244376
N4    N     N_2   0.136373 0.419823 0.275905 -0.328669
H17   H     H_    0.105764 0.462390 0.193415 0.238650
C26   C     C_3   0.157304 0.275583 0.264094 -0.788555
H18   H     H_    0.068204 0.221954 0.240633 0.222868
H19   H     H_    0.194219 0.232883 0.352614 0.264531
H20   H     H_    0.227211 0.257174 0.188045 0.240955

loop_
_geom_bond_atom_site_label_1
_geom_bond_atom_site_label_2
_ccdc_geom_bond_type
C10   O8    A    
C15   C18   A    
N4    H17   S    
C6    N2    A    
C9    O7    A    
C13   C14   A    
N1    Zn1   S    
O6    Zn1   S    
C11   C13   A    
C11   C16   A    
C22   H8    S    
C3    C23   A    
C19   C20   A    
C12   C15   A    
C11   H3    S    
C25   H16   S    
C6    H10   S    
C3    N3    S    
O4    Zn2   S    
C21   C22   A    
C1    O3    A    
C21   H7    S    
C26   H18   S    
C20   H2    S    
C14   H6    S    
C19   H1    S    
C10   C18   S    
C9    C17   S    
C17   C19   A    
O3    Zn2   S    
C2    O4    A    
C18   C20   A    
N4    C26   S    
C4    N4    S    
C7    N1    A    
C4    C24   A    
O8    Zn2   S    
C9    O5    A    
C26   H19   S    
C8    N1    A    
C1    O1    A    
C10   O6    A    
C15   C16   A    
C2    O2    A    
C7    H11   S    
N2    Zn2   S    
C12   H4    S    
C1    C24   S    
O1    Zn1   S    
N3    H13   S    
C8    H12   S    
C21   C24   A    
C13   H5    S    
C2    C23   S    
C5    C7    A    
C22   C23   A    
C26   H20   S    
C6    C8    A    
O7    Zn2   S    
N3    C25   S    
C5    N2    A    
O2    Zn1   S    
O5    Zn1   S    
C3    C4    A    
C25   H14   S    
C12   C14   A    
C16   C17   A    
C25   H15   S    
C5    H9    S    
