data_mof_unit_39328.cif
_audit_creation_date              2012-12-10T17:55:04-0500
_audit_creation_method            fapswitch 2.2
_symmetry_space_group_name_H-M    P1
_symmetry_Int_Tables_number       1
_space_group_crystal_system       triclinic
_cell_length_a                    8.724268
_cell_length_b                    10.893611
_cell_length_c                    9.595558
_cell_angle_alpha                 90.363605
_cell_angle_beta                  97.578376
_cell_angle_gamma                 92.550117
_cell_volume                      903.02068792

loop_
_atom_site_label
_atom_site_type_symbol
_atom_type_description
_atom_site_fract_x
_atom_site_fract_y
_atom_site_fract_z
_atom_type_partial_charge
C1    C     C_R   0.501846 0.262328 0.499213 0.851652
C2    C     C_R   0.493983 0.737416 0.500452 0.844322
C3    C     C_R   0.204082 0.500064 0.464091 0.886685
C4    C     C_R   0.795903 0.504228 0.535619 0.896465
C5    C     C_2   0.038080 0.496285 0.444435 -0.344201
C6    C     C_2   0.961694 0.515540 0.553552 -0.361970
C7    C     C_R   0.513228 0.059951 0.373856 0.436048
C8    C     C_R   0.471388 0.939156 0.625097 0.432922
C9    C     C_R   0.499539 0.933222 0.376851 -0.285844
C10   C     C_R   0.478769 0.066287 0.621014 -0.260184
C11   C     C_R   0.486537 0.871183 0.502046 -0.184264
C12   C     C_R   0.499978 0.128220 0.497034 -0.184863
C13   C     C_R   0.398424 0.424320 0.061386 0.420046
C14   C     C_R   0.603335 0.574212 0.938913 0.417651
C15   C     C_R   0.399591 0.422977 0.912646 0.214211
C16   C     C_R   0.605077 0.572964 0.087935 0.209085
Cu1   Cu    Cu3+1 0.500000 0.500020 0.640660 1.054505
Cu2   Cu    Cu3+1 0.500000 0.499980 0.359340 1.054243
H1    H     H_    0.978529 0.473576 0.340223 0.191917
H2    H     H_    0.021308 0.540865 0.656754 0.197288
H3    H     H_    0.501672 0.883174 0.280021 0.205064
H4    H     H_    0.467860 0.116519 0.716342 0.203255
N1    N     N_R   0.500040 0.500030 0.852080 -0.234104
N2    N     N_R   0.499960 0.499970 0.147920 -0.234771
O1    O     O_R   0.499990 0.319660 0.618740 -0.590421
O2    O     O_R   0.500010 0.680340 0.381260 -0.587491
O3    O     O_R   0.499990 0.319630 0.381170 -0.490050
O4    O     O_R   0.500010 0.680370 0.618830 -0.491422
O5    O     O_R   0.274840 0.500010 0.591370 -0.562128
O6    O     O_R   0.725160 0.499990 0.408630 -0.566646
O7    O     O_R   0.274830 0.499980 0.353800 -0.542861
O8    O     O_R   0.725170 0.500020 0.646200 -0.542047
Cl1   Cl    Cl    0.556339 0.123980 0.214160 -0.545530
Cl2   Cl    Cl    0.435888 0.873464 0.786236 -0.546505
Cl3   Cl    Cl    0.269029 0.322484 0.134500 -0.552004
Cl4   Cl    Cl    0.740676 0.669663 0.867228 -0.565253
N3    N     N_2   0.309125 0.331750 0.827902 -0.368483
H5    H     H_    0.344184 0.244136 0.850026 0.274325
C17   C     C_3   0.142441 0.339258 0.814031 -0.537834
H6    H     H_    0.091138 0.265806 0.875630 0.250368
H7    H     H_    0.094016 0.323668 0.702382 0.218445
H8    H     H_    0.108271 0.429754 0.850865 0.225137
N4    N     N_2   0.727412 0.636269 0.176349 -0.381095
H9    H     H_    0.833389 0.598882 0.173169 0.254218
C18   C     C_3   0.735006 0.769236 0.172235 -0.492545
H10   H     H_    0.837268 0.802473 0.123034 0.246795
H11   H     H_    0.749804 0.806101 0.281356 0.212336
H12   H     H_    0.629486 0.805304 0.111473 0.255533

loop_
_geom_bond_atom_site_label_1
_geom_bond_atom_site_label_2
_ccdc_geom_bond_type
C14   N1    A    
C1    O1    A    
N4    H9    S    
N3    H5    S    
C5    H1    S    
C9    C11   A    
C16   N2    A    
Cu2   O2    S    
Cu1   O1    S    
C6    H2    S    
C15   N1    A    
Cu1   Cu2   S    
C2    O2    A    
C8    Cl2   S    
C18   H10   S    
C10   H4    S    
C3    O7    A    
N4    C18   S    
C16   N4    S    
C9    H3    S    
C4    O8    A    
C1    C12   S    
C10   C12   A    
Cu1   N1    S    
C8    C11   A    
Cu2   O6    S    
C2    C11   S    
C4    C6    S    
C13   Cl3   S    
C17   H8    S    
C13   C15   A    
C14   Cl4   S    
C5    C6    D    
N3    C17   S    
C14   C16   A    
C7    C12   A    
C1    O3    A    
C7    Cl1   S    
C3    O5    A    
Cu1   O5    S    
Cu2   N2    S    
C17   H7    S    
C18   H11   S    
C18   H12   S    
C17   H6    S    
C7    C9    A    
Cu1   O8    S    
C15   N3    S    
C2    O4    A    
Cu2   O7    S    
Cu1   O4    S    
C8    C10   A    
C4    O6    A    
Cu2   O3    S    
C13   N2    A    
C3    C5    S    
