data_mof_unit_6937.cif
_audit_creation_date              2013-03-05T15:57:37-0500
_audit_creation_method            fapswitch 2.2
_symmetry_space_group_name_H-M    P1
_symmetry_Int_Tables_number       1
_space_group_crystal_system       triclinic
_cell_length_a                    15.101037
_cell_length_b                    13.941835
_cell_length_c                    11.679315
_cell_angle_alpha                 90.000203
_cell_angle_beta                  86.493465
_cell_angle_gamma                 89.998213
_cell_volume                      2454.31468691

loop_
_atom_site_label
_atom_site_type_symbol
_atom_site_description
_atom_site_fract_x
_atom_site_fract_y
_atom_site_fract_z
_atom_type_partial_charge
O1    O     O_R   0.370260 0.582280 0.500020 -0.602214
O2    O     O_R   0.629740 0.417720 0.499980 -0.548485
O3    O     O_R   0.629740 0.582280 0.499980 -0.602243
O4    O     O_R   0.370260 0.417720 0.500020 -0.548435
C1    C     C_R   0.329062 0.500133 0.507758 0.798114
C2    C     C_R   0.670938 0.500130 0.492237 0.798283
O5    O     O_R   0.500010 0.582270 0.337200 -0.579700
O6    O     O_R   0.499990 0.417730 0.662800 -0.601939
O7    O     O_R   0.499990 0.582270 0.662800 -0.579733
O8    O     O_R   0.500010 0.417730 0.337200 -0.601874
C3    C     C_R   0.499063 0.500035 0.284408 0.786501
C4    C     C_R   0.500922 0.500034 0.715594 0.786570
Cu1   Cu    Cu3+1 0.500000 0.597420 0.500000 0.954546
Cu2   Cu    Cu3+1 0.500000 0.402580 0.500000 0.972753
C5    C     C_1   0.499295 0.500092 0.162595 -0.137036
C6    C     C_1   0.500683 0.500092 0.837406 -0.137092
C7    C     C_1   0.499715 0.500123 0.059967 0.040684
C8    C     C_1   0.500260 0.500123 0.940034 0.040554
C9    C     C_R   0.820739 0.511589 0.385466 0.212664
C10   C     C_R   0.179266 0.511614 0.614566 0.212848
C11   C     C_R   0.767852 0.500652 0.488489 -0.042815
C12   C     C_R   0.232149 0.500654 0.511536 -0.042744
C13   C     C_R   0.806423 0.494235 0.592459 -0.230898
C14   C     C_R   0.193573 0.494200 0.407574 -0.230902
C15   C     C_R   0.898177 0.502567 0.599383 -0.004177
C16   C     C_R   0.101821 0.502541 0.400654 -0.004191
C17   C     C_R   0.953360 0.505861 0.496719 -0.007973
C18   C     C_R   0.046640 0.505857 0.503319 -0.007962
C19   C     C_R   0.915037 0.510219 0.387840 0.013958
C20   C     C_R   0.084966 0.510232 0.612196 0.013905
C21   C     C_R   0.935069 0.507634 0.707345 -0.035750
C22   C     C_R   0.064931 0.507602 0.292690 -0.035820
C23   C     C_R   0.027382 0.515610 0.713891 0.231016
C24   C     C_R   0.972620 0.515583 0.286145 0.231065
H1    H     H_    0.762575 0.485132 0.668482 0.130278
H2    H     H_    0.237417 0.485070 0.331551 0.130277
C25   C     C_R   0.448326 0.794610 0.580311 0.136874
C26   C     C_R   0.558846 0.206008 0.428094 0.140164
C27   C     C_R   0.551671 0.794603 0.419682 0.136864
C28   C     C_R   0.441155 0.206016 0.571916 0.140087
N1    N     N_R   0.500000 0.743810 0.500000 -0.271993
N2    N     N_R   0.500000 0.256190 0.500000 -0.256510
C29   C     C_R   0.560295 0.897020 0.426475 -0.000392
C30   C     C_R   0.442811 0.102969 0.578664 -0.025085
C31   C     C_R   0.439687 0.897023 0.573496 -0.000343
C32   C     C_R   0.557164 0.102966 0.421318 -0.024935
C33   C     C_R   0.499988 0.948668 0.499985 0.012715
C34   C     C_R   0.499986 0.051623 0.499987 0.034248
C35   C     C_R   0.624674 0.949470 0.357996 -0.023559
C36   C     C_R   0.385906 0.049140 0.657291 -0.058102
C37   C     C_R   0.375292 0.949470 0.641952 -0.023474
C38   C     C_R   0.614052 0.049140 0.342668 -0.058046
N3    N     N_2   0.779662 0.530774 0.281633 -0.459736
H3    H     H_    0.743819 0.593249 0.281991 0.249879
C39   C     C_3   0.737012 0.451242 0.228412 -0.654461
H4    H     H_    0.731537 0.466933 0.135898 0.241364
H5    H     H_    0.669537 0.442531 0.268030 0.203085
H6    H     H_    0.775907 0.384132 0.236395 0.266659
N4    N     N_2   0.220335 0.530903 0.718380 -0.459741
H7    H     H_    0.256128 0.593411 0.717917 0.249900
C40   C     C_3   0.263123 0.451460 0.771599 -0.654493
H8    H     H_    0.269181 0.467474 0.863905 0.241114
H9    H     H_    0.330357 0.442403 0.731417 0.203320
H10   H     H_    0.224015 0.384438 0.764351 0.266556
C41   C     C_2   0.877119 0.509031 0.815613 0.398321
H11   H     H_    0.816629 0.551163 0.821444 0.049781
O9    O     O_2   0.896435 0.462525 0.899107 -0.505447
C42   C     C_2   0.122880 0.509000 0.184421 0.398381
H12   H     H_    0.183372 0.551126 0.178594 0.049785
O10   O     O_2   0.103563 0.462502 0.100921 -0.505372
N5    N     N_2   0.059271 0.531267 0.824649 -0.358608
H13   H     H_    0.101023 0.481188 0.856919 0.319294
C43   C     C_3   0.068044 0.630224 0.859589 -0.564330
H14   H     H_    0.091630 0.633084 0.947686 0.232929
H15   H     H_    0.002785 0.666946 0.859657 0.207930
H16   H     H_    0.116096 0.668826 0.800496 0.231669
N6    N     N_2   0.940732 0.531244 0.175391 -0.358647
H17   H     H_    0.899032 0.481132 0.143086 0.319298
C44   C     C_3   0.931907 0.630201 0.140477 -0.564426
H18   H     H_    0.908311 0.633063 0.052388 0.232924
H19   H     H_    0.997150 0.666953 0.140407 0.207962
H20   H     H_    0.883844 0.668771 0.199587 0.231693
C45   C     C_2   0.409131 0.743755 0.681292 0.483656
H21   H     H_    0.368142 0.682061 0.670531 0.082492
O11   O     O_2   0.423453 0.770544 0.778002 -0.551656
C46   C     C_2   0.628777 0.259795 0.364142 0.462742
H22   H     H_    0.613706 0.297068 0.286681 0.090120
O12   O     O_2   0.704900 0.257166 0.393820 -0.559899
C47   C     C_2   0.590884 0.743734 0.318719 0.483700
H23   H     H_    0.631910 0.682068 0.329502 0.082436
O13   O     O_2   0.576534 0.770479 0.222000 -0.551676
C48   C     C_2   0.371295 0.259826 0.635984 0.462666
H24   H     H_    0.386428 0.296984 0.713500 0.090144
O14   O     O_2   0.295155 0.257320 0.606364 -0.559776
C49   C     C_2   0.708214 0.903696 0.310300 0.362353
H25   H     H_    0.735767 0.921319 0.224999 0.084477
O15   O     O_2   0.748528 0.847537 0.368246 -0.555456
C50   C     C_2   0.342263 0.092431 0.762328 0.357795
H26   H     H_    0.271049 0.086852 0.779599 0.085586
O16   O     O_2   0.386666 0.132527 0.832001 -0.515724
C51   C     C_2   0.291744 0.903692 0.689614 0.362357
H27   H     H_    0.264143 0.921350 0.774882 0.084489
O17   O     O_2   0.251475 0.847494 0.631671 -0.555499
C52   C     C_2   0.657656 0.092445 0.237612 0.357820
H28   H     H_    0.728853 0.086780 0.220230 0.085518
O18   O     O_2   0.613234 0.132653 0.168044 -0.515793

loop_
_geom_bond_atom_site_label_1
_geom_bond_atom_site_label_2
_geom_bond_distance
_ccdc_geom_bond_type
C15   C21   1.411107 A    
C39   H4    1.110451 S    
C16   C22   1.411100 A    
C51   H27   1.084113 S    
C17   C19   1.430270 A    
C43   H14   1.109920 S    
C49   H25   1.084119 S    
O3    C2    1.303862 A    
Cu1   N1    2.040945 S    
C27   N1    1.378693 A    
C10   C20   1.426116 A    
N6    H17   1.027663 S    
O5    C3    1.302281 A    
C14   H2    1.082128 S    
C26   C46   1.462523 S    
O1    C1    1.303854 A    
C9    C11   1.411143 A    
C14   C16   1.397674 A    
C26   N2    1.375900 A    
C24   N6    1.424423 S    
C46   O12   1.221340 D    
C31   C37   1.422807 A    
C32   C38   1.431207 A    
C5    C7    1.198249 T    
C31   C33   1.410395 A    
C40   H9    1.099425 S    
O7    Cu1   1.913080 S    
C3    C5    1.422478 S    
C1    C12   1.461479 S    
C4    C6    1.422474 S    
C42   H12   1.084647 S    
C41   O9    1.221148 D    
C21   C23   1.405192 A    
C47   O13   1.221449 D    
O3    Cu1   1.970524 S    
C22   C42   1.493247 S    
C9    N3    1.420905 S    
N6    C44   1.447092 S    
N4    H7    1.025336 S    
C51   O17   1.221483 D    
Cu1   Cu2   2.716426 S    
C25   N1    1.378679 A    
C43   H15   1.110477 S    
O2    C2    1.307090 A    
C52   O18   1.221092 D    
C52   H28   1.084761 S    
C36   C37   1.411462 A    
N3    C39   1.442108 S    
C32   C34   1.416028 A    
N4    C40   1.442103 S    
C36   C50   1.484815 S    
C33   C34   1.435369 A    
O8    Cu2   1.913080 S    
C44   H19   1.110478 S    
C46   H22   1.079579 S    
C29   C35   1.422836 A    
C27   C29   1.436440 A    
N3    H3    1.025359 S    
C2    C11   1.461494 S    
C19   C24   1.430418 A    
C28   C48   1.462537 S    
C22   C24   1.405159 A    
C40   H10   1.111399 S    
C28   N2    1.375939 A    
C45   H21   1.071590 S    
C28   C30   1.439126 A    
O6    C4    1.303129 A    
C35   C38   1.411466 A    
C48   O14   1.221298 D    
C7    C8    1.400259 S    
C35   C49   1.490996 S    
C10   N4    1.420927 S    
C42   O10   1.221149 D    
C45   O11   1.221442 D    
C10   C12   1.411209 A    
C41   H11   1.084647 S    
C50   O16   1.221075 D    
C39   H5    1.099749 S    
C43   H16   1.109631 S    
C12   C14   1.381400 A    
O1    Cu1   1.970539 S    
C25   C31   1.436415 A    
C9    C19   1.426090 A    
N5    C43   1.447103 S    
C30   C36   1.431240 A    
C21   C41   1.493235 S    
C38   C52   1.484846 S    
O6    Cu2   1.913078 S    
C20   C23   1.430436 A    
C16   C18   1.418455 A    
O4    C1    1.307085 A    
C44   H20   1.109614 S    
C49   O15   1.221490 D    
C15   C17   1.418453 A    
C13   H1    1.082123 S    
Cu2   N2    2.040945 S    
C11   C13   1.381418 A    
N5    H13   1.027663 S    
C18   C20   1.430284 A    
C48   H24   1.079603 S    
C13   C15   1.397714 A    
O4    Cu2   1.970525 S    
C40   H8    1.110185 S    
O2    Cu2   1.970537 S    
O7    C4    1.302283 A    
C26   C32   1.439087 A    
O8    C3    1.303135 A    
C23   N5    1.424457 S    
C44   H18   1.109892 S    
O5    Cu1   1.913078 S    
C6    C8    1.198248 T    
C50   H26   1.084755 S    
C39   H6    1.111636 S    
C17   C18   1.415431 A    
C25   C45   1.469232 S    
C47   H23   1.071617 S    
C29   C33   1.410416 A    
C27   C47   1.469233 S    
C37   C51   1.491016 S    
C30   C34   1.416052 A    
