data_mof_unit_53169.cif
_audit_creation_date              2012-12-10T17:48:52-0500
_audit_creation_method            fapswitch 2.2
_symmetry_space_group_name_H-M    P1
_symmetry_Int_Tables_number       1
_space_group_crystal_system       triclinic
_cell_length_a                    10.732805
_cell_length_b                    14.698297
_cell_length_c                    14.744563
_cell_angle_alpha                 65.064574
_cell_angle_beta                  103.521482
_cell_angle_gamma                 103.093008
_cell_volume                      2029.01485182

loop_
_atom_site_label
_atom_site_type_symbol
_atom_type_description
_atom_site_fract_x
_atom_site_fract_y
_atom_site_fract_z
_atom_type_partial_charge
C1    C     C_R   0.479361 0.119694 0.312336 0.783719
C2    C     C_3   0.878778 0.999337 0.502739 0.109771
C3    C     C_3   0.918795 0.893168 0.570843 -0.398685
C4    C     C_3   0.967536 0.080967 0.540835 0.029317
C5    C     C_R   0.476926 0.187235 0.205206 -0.053667
C6    C     C_R   0.541877 0.812760 0.795169 -0.055654
C7    C     C_R   0.473325 0.216172 0.030629 -0.199030
C8    C     C_R   0.465313 0.149423 0.130468 -0.193807
C9    C     C_R   0.494793 0.291903 0.178981 -0.250895
C10   C     C_R   0.509688 0.360800 0.080043 0.090593
C11   C     C_R   0.495607 0.321314 0.004904 0.163700
C12   C     C_R   0.260252 0.999833 0.500865 0.768047
C13   C     C_R   0.536283 0.467509 0.053679 0.064230
C14   C     C_R   0.534522 0.533560 0.950025 0.064311
C15   C     C_R   0.522722 0.491100 0.877638 -0.223003
C16   C     C_R   0.504563 0.386971 0.905025 -0.229378
C17   C     C_R   0.567469 0.510299 0.127604 -0.223415
C18   C     C_R   0.588228 0.614445 0.100371 -0.230259
C19   C     C_R   0.575963 0.679754 0.998834 0.164903
C20   C     C_R   0.546991 0.640043 0.922541 0.089541
C21   C     C_R   0.591573 0.784718 0.972729 -0.201705
C22   C     C_R   0.575564 0.850957 0.871416 -0.197341
C23   C     C_R   0.523045 0.880286 0.687682 0.799044
C24   C     C_R   0.527155 0.708210 0.821139 -0.260943
C25   C     C_R   0.716626 0.285560 0.667808 -0.327150
C26   C     C_R   0.682846 0.203684 0.638442 0.074709
C27   C     C_R   0.518338 0.284912 0.509370 -0.000731
C28   C     C_R   0.548169 0.371187 0.535278 -0.022895
C29   C     C_R   0.649499 0.369253 0.616919 0.165926
C30   C     C_R   0.481333 0.458090 0.484293 0.075886
C31   C     C_R   0.517444 0.541327 0.516582 0.078538
C32   C     C_R   0.618277 0.534427 0.599189 -0.245653
C33   C     C_R   0.682774 0.450303 0.647864 -0.203865
C34   C     C_R   0.740306 0.998862 0.501884 0.792767
C35   C     C_R   0.379748 0.464622 0.402244 -0.242023
C36   C     C_R   0.314768 0.548498 0.353949 -0.197158
C37   C     C_R   0.348736 0.629897 0.384369 0.165029
C38   C     C_R   0.450932 0.628397 0.465342 -0.023636
C39   C     C_R   0.281297 0.713436 0.333711 -0.320534
C40   C     C_R   0.315759 0.795670 0.362538 0.071038
C41   C     C_R   0.481861 0.715227 0.490383 0.003272
C42   C     C_3   0.042268 0.021849 0.392030 0.005433
C43   C     C_3   0.899870 0.026118 0.393239 -0.424128
C44   C     C_3   0.064274 0.895773 0.573926 -0.429749
C45   C     C_3   0.110550 0.081424 0.539339 -0.413333
C46   C     C_3   0.122629 0.000946 0.500529 0.094364
Cu1   Cu    Cu3+1 0.465900 0.918260 0.475680 0.923916
Cu2   Cu    Cu3+1 0.534100 0.081740 0.524320 0.933386
H1    H     H_    0.042519 0.956948 0.371704 0.156828
H2    H     H_    0.116189 0.879993 0.652603 0.166909
H3    H     H_    0.897537 0.867805 0.648823 0.164827
H4    H     H_    0.496463 0.357678 0.847251 0.150812
H5    H     H_    0.496267 0.681386 0.760747 0.151911
H6    H     H_    0.587934 0.931703 0.852890 0.152703
H7    H     H_    0.612071 0.643990 0.159405 0.147218
H8    H     H_    0.463601 0.185606 0.973641 0.132105
H9    H     H_    0.451472 0.068564 0.149258 0.153597
H10   H     H_    0.495178 0.317802 0.237279 0.146554
H11   H     H_    0.531280 0.536342 0.799242 0.142860
H12   H     H_    0.580650 0.465524 0.207833 0.146414
H13   H     H_    0.615271 0.815498 0.030789 0.132788
H14   H     H_    0.759612 0.448603 0.710889 0.144251
H15   H     H_    0.559670 0.721760 0.549322 0.120195
H16   H     H_    0.264331 0.860446 0.323115 0.123359
H17   H     H_    0.237059 0.549766 0.291575 0.142127
H18   H     H_    0.794327 0.283196 0.730402 0.139464
H19   H     H_    0.733697 0.138643 0.678310 0.144339
H20   H     H_    0.441529 0.278860 0.449648 0.120197
H21   H     H_    0.873350 0.102789 0.343348 0.169955
H22   H     H_    0.649792 0.592924 0.628758 0.127630
H23   H     H_    0.347539 0.405808 0.373140 0.128611
H24   H     H_    0.202710 0.715337 0.271799 0.137476
H25   H     H_    0.834750 0.971913 0.362103 0.164929
H26   H     H_    0.076155 0.834266 0.552793 0.180318
H27   H     H_    0.861507 0.836113 0.540288 0.174031
H28   H     H_    0.168113 0.065074 0.616457 0.174483
H29   H     H_    0.152839 0.158670 0.491354 0.150248
H30   H     H_    0.941697 0.157046 0.487312 0.147934
N1    N     N_R   0.585360 0.204570 0.560800 -0.177112
N2    N     N_R   0.414550 0.795430 0.439160 -0.175740
O1    O     O_R   0.455060 0.022100 0.338110 -0.587589
O2    O     O_R   0.512640 0.160150 0.379180 -0.590419
O3    O     O_R   0.288900 0.930980 0.479450 -0.592880
O4    O     O_R   0.346480 0.069030 0.520520 -0.589411
O5    O     O_R   0.487360 0.839850 0.620820 -0.590109
O6    O     O_R   0.544940 0.977900 0.661890 -0.585585
O7    O     O_R   0.653520 0.930970 0.479480 -0.596367
O8    O     O_R   0.711100 0.069020 0.520550 -0.561716
N3    N     N_3   0.947470 0.065129 0.642066 -0.594672
H31   H     H_    0.996102 0.128162 0.658087 0.210495
H32   H     H_    0.988120 0.001983 0.697083 0.221910
N4    N     N_3   0.095663 0.114386 0.312983 -0.598304
H33   H     H_    0.188287 0.107707 0.307569 0.208503
H34   H     H_    0.102801 0.177548 0.330204 0.221115

loop_
_geom_bond_atom_site_label_1
_geom_bond_atom_site_label_2
_ccdc_geom_bond_type
C43   H25   S    
C19   C20   A    
C41   N2    A    
C7    C8    A    
C22   H6    S    
C45   C46   S    
C4    H30   S    
C30   C35   A    
C45   H28   S    
C1    C5    S    
C26   H19   S    
Cu1   N2    S    
Cu2   N1    S    
C36   C37   A    
C19   C21   A    
C18   C19   A    
C27   N1    A    
C30   C31   A    
C40   N2    A    
C1    O1    A    
C15   C16   A    
C6    C22   A    
C29   C33   A    
C12   O4    A    
C9    H10   S    
C42   C46   S    
C20   C24   A    
C27   H20   S    
C35   C36   A    
C33   H14   S    
C23   O6    A    
C39   H24   S    
Cu2   O8    S    
Cu1   O3    S    
N3    H32   S    
C3    H27   S    
C9    C10   A    
C21   H13   S    
C2    C34   S    
C35   H23   S    
C43   H21   S    
C21   C22   A    
C7    H8    S    
C44   C46   S    
C7    C11   A    
C4    C45   S    
C25   C29   A    
C3    C44   S    
C14   C20   A    
C38   C41   A    
C12   C46   S    
C39   C40   A    
C3    H3    S    
C36   H17   S    
C32   H22   S    
C17   H12   S    
C1    O2    A    
Cu2   O4    S    
C12   O3    A    
Cu1   O7    S    
C2    C4    S    
C5    C9    A    
C37   C38   A    
C8    H9    S    
C11   C16   A    
Cu1   Cu2   S    
C2    C43   S    
C6    C24   A    
N4    H34   S    
C17   C18   A    
C34   O8    A    
C44   H26   S    
C18   H7    S    
Cu2   O6    S    
C42   C43   S    
C41   H15   S    
Cu1   O5    S    
C4    N3    S    
C44   H2    S    
C28   C29   A    
C15   H11   S    
C31   C32   A    
C25   H18   S    
C16   H4    S    
C10   C13   A    
C5    C8    A    
C24   H5    S    
C26   N1    A    
C40   H16   S    
C31   C38   A    
C13   C17   A    
C32   C33   A    
C28   C30   A    
C2    C3    S    
C25   C26   A    
C37   C39   A    
C6    C23   S    
N4    H33   S    
Cu2   O2    S    
C42   N4    S    
C34   O7    A    
Cu1   O1    S    
C10   C11   A    
C42   H1    S    
C23   O5    A    
C27   C28   A    
C14   C15   A    
C45   H29   S    
N3    H31   S    
C13   C14   A    
