data_mof_unit_23033.cif
_audit_creation_date              2012-12-10T17:46:32-0500
_audit_creation_method            fapswitch 2.2
_symmetry_space_group_name_H-M    P1
_symmetry_Int_Tables_number       1
_space_group_crystal_system       triclinic
_cell_length_a                    20.750341
_cell_length_b                    21.128111
_cell_length_c                    14.765855
_cell_angle_alpha                 90.476645
_cell_angle_beta                  127.947762
_cell_angle_gamma                 89.000749
_cell_volume                      5104.08201865

loop_
_atom_site_label
_atom_site_type_symbol
_atom_type_description
_atom_site_fract_x
_atom_site_fract_y
_atom_site_fract_z
_atom_type_partial_charge
C1    C     C_R   0.602620 0.913257 0.630616 0.806521
C2    C     C_R   0.397203 0.086602 0.369129 0.791489
C3    C     C_R   0.395744 0.915205 0.366376 0.798989
C4    C     C_R   0.602063 0.086585 0.630568 0.801993
C5    C     C_R   0.102620 0.413257 0.630616 0.806530
C6    C     C_R   0.897204 0.586603 0.369130 0.791481
C7    C     C_R   0.895743 0.415206 0.366374 0.798990
C8    C     C_R   0.102060 0.586588 0.630563 0.801990
C9    C     C_R   0.356667 0.739199 0.968134 0.352246
C10   C     C_R   0.628334 0.279152 0.002822 0.360463
C11   C     C_R   0.700260 0.798343 0.106936 0.327410
C12   C     C_R   0.296999 0.199766 0.889358 0.372333
C13   C     C_R   0.856695 0.239160 0.968190 0.352259
C14   C     C_R   0.128353 0.779103 0.002894 0.360478
C15   C     C_R   0.200228 0.298325 0.106905 0.327354
C16   C     C_R   0.796977 0.699754 0.889340 0.372335
C17   C     C_R   0.321218 0.995533 0.664680 0.369497
C18   C     C_R   0.680234 0.995676 0.338159 0.372067
C19   C     C_R   0.821224 0.495541 0.664693 0.369520
C20   C     C_R   0.180239 0.495648 0.338172 0.372047
C21   C     C_R   0.351897 0.001191 0.602938 -0.072746
C22   C     C_R   0.648193 0.995972 0.398525 -0.065155
C23   C     C_R   0.851898 0.501199 0.602945 -0.072765
C24   C     C_R   0.148193 0.495958 0.398531 -0.065172
C25   C     C_R   0.487716 0.997730 0.774981 0.094584
C26   C     C_R   0.513185 0.000862 0.225165 0.122710
C27   C     C_R   0.987721 0.497727 0.774981 0.094674
C28   C     C_R   0.013189 0.500866 0.225165 0.122723
C29   C     C_R   0.461545 0.997124 0.844844 -0.130462
C30   C     C_R   0.540095 0.995212 0.156748 -0.122604
C31   C     C_R   0.961556 0.497121 0.844852 -0.130486
C32   C     C_R   0.040104 0.495205 0.156756 -0.122565
C33   C     C_R   0.376665 0.989882 0.786319 -0.049596
C34   C     C_R   0.625830 0.997463 0.216075 -0.057001
C35   C     C_R   0.876676 0.489883 0.786331 -0.049634
C36   C     C_R   0.125840 0.497440 0.216088 -0.056928
C37   C     C_R   0.516207 0.999790 0.969196 -0.136365
C38   C     C_R   0.485243 0.990073 0.032544 -0.122400
C39   C     C_R   0.016223 0.499779 0.969207 -0.136308
C40   C     C_R   0.985256 0.490067 0.032553 -0.122424
C41   C     C_R   0.401627 0.973327 0.970535 0.372740
C42   C     C_R   0.600650 0.013715 0.033333 0.357725
C43   C     C_R   0.901641 0.473320 0.970546 0.372688
C44   C     C_R   0.100672 0.513691 0.033352 0.357762
C45   C     C_R   0.348919 0.972500 0.848994 0.457509
C46   C     C_R   0.655386 0.004844 0.152828 0.455568
C47   C     C_R   0.848932 0.472494 0.849006 0.457527
C48   C     C_R   0.155404 0.504807 0.152847 0.455447
C49   C     C_R   0.660725 0.135896 0.703139 -0.077824
C50   C     C_R   0.331606 0.871232 0.284101 -0.093846
C51   C     C_R   0.342718 0.139972 0.301477 -0.085334
C52   C     C_R   0.656475 0.859424 0.697305 -0.088234
C53   C     C_R   0.160711 0.635907 0.703121 -0.077827
C54   C     C_R   0.831599 0.371239 0.284089 -0.093844
C55   C     C_R   0.842724 0.639976 0.301484 -0.085332
C56   C     C_R   0.156478 0.359426 0.697308 -0.088237
C57   C     C_R   0.788024 0.187543 0.783252 -0.155208
C58   C     C_R   0.200650 0.823246 0.195528 -0.143001
C59   C     C_R   0.274283 0.237597 0.284919 -0.149604
C60   C     C_R   0.722854 0.761020 0.711634 -0.137943
C61   C     C_R   0.287985 0.687583 0.783194 -0.155211
C62   C     C_R   0.700616 0.323289 0.195459 -0.142996
C63   C     C_R   0.774314 0.737611 0.284946 -0.149591
C64   C     C_R   0.222874 0.261029 0.711649 -0.137956
C65   C     C_R   0.725543 0.148492 0.700613 -0.207685
C66   C     C_R   0.267028 0.856777 0.286257 -0.209758
C67   C     C_R   0.320373 0.184399 0.348566 -0.206796
C68   C     C_R   0.677616 0.814738 0.649033 -0.209014
C69   C     C_R   0.225512 0.648522 0.700569 -0.207671
C70   C     C_R   0.766999 0.356807 0.286209 -0.209752
C71   C     C_R   0.820394 0.684408 0.348585 -0.206801
C72   C     C_R   0.177630 0.314745 0.649044 -0.209012
C73   C     C_R   0.653640 0.168911 0.778753 -0.120618
C74   C     C_R   0.332248 0.847101 0.196478 -0.109325
C75   C     C_R   0.319363 0.149397 0.191808 -0.121912
C76   C     C_R   0.680089 0.849698 0.807001 -0.118014
C77   C     C_R   0.153629 0.668913 0.778745 -0.120719
C78   C     C_R   0.832256 0.347097 0.196485 -0.109318
C79   C     C_R   0.819362 0.649399 0.191811 -0.121914
C80   C     C_R   0.180084 0.349696 0.806999 -0.118003
C81   C     C_R   0.713006 0.212474 0.857506 0.059551
C82   C     C_R   0.271584 0.806279 0.113106 0.062210
C83   C     C_R   0.283518 0.206871 0.133044 0.068274
C84   C     C_R   0.714983 0.791816 0.864630 0.061803
C85   C     C_R   0.212990 0.712482 0.857494 0.059530
C86   C     C_R   0.771582 0.306288 0.113093 0.062211
C87   C     C_R   0.783525 0.706876 0.133053 0.068266
C88   C     C_R   0.214984 0.291815 0.864629 0.061806
C89   C     C_R   0.785392 0.215279 0.867855 -0.020342
C90   C     C_R   0.200381 0.801062 0.105007 -0.002321
C91   C     C_R   0.253717 0.248587 0.175841 -0.000078
C92   C     C_R   0.743887 0.749864 0.820960 -0.005128
C93   C     C_R   0.285364 0.715308 0.867814 -0.020351
C94   C     C_R   0.700360 0.301097 0.104955 -0.002278
C95   C     C_R   0.753741 0.748599 0.175863 -0.000086
C96   C     C_R   0.243901 0.249870 0.820971 -0.005112
C97   C     C_R   0.706090 0.247468 0.933994 -0.129048
C98   C     C_R   0.277871 0.774201 0.033747 -0.107419
C99   C     C_R   0.274741 0.222895 0.032238 -0.109450
C100  C     C_R   0.723545 0.775593 0.965116 -0.108531
C101  C     C_R   0.206082 0.747460 0.934004 -0.129045
C102  C     C_R   0.777879 0.274199 0.033752 -0.107390
C103  C     C_R   0.774741 0.722896 0.032240 -0.109454
C104  C     C_R   0.223537 0.275587 0.965108 -0.108530
C105  C     C_R   0.354352 0.765507 0.054149 0.354012
C106  C     C_R   0.629838 0.256216 0.913979 0.299864
C107  C     C_R   0.680741 0.809350 0.998478 0.320692
C108  C     C_R   0.317255 0.189043 0.998416 0.319611
C109  C     C_R   0.854369 0.265481 0.054187 0.354009
C110  C     C_R   0.129840 0.756180 0.914029 0.299899
C111  C     C_R   0.180718 0.309335 0.998453 0.320686
C112  C     C_R   0.817241 0.689034 0.998403 0.319616
Cu1   Cu    Cu3+1 0.526640 0.000000 0.436960 0.956371
Cu2   Cu    Cu3+1 0.473360 1.000000 0.563040 0.956295
Cu3   Cu    Cu3+1 0.026640 0.500000 0.436960 0.956370
Cu4   Cu    Cu3+1 0.973360 0.500000 0.563040 0.956309
H1    H     H_    0.377655 0.864154 0.189444 0.229083
H2    H     H_    0.604619 0.156004 0.780875 0.196094
H3    H     H_    0.672260 0.889008 0.846626 0.188455
H4    H     H_    0.328056 0.110096 0.153137 0.178000
H5    H     H_    0.877683 0.364133 0.189479 0.229083
H6    H     H_    0.104619 0.655992 0.780879 0.196147
H7    H     H_    0.172245 0.389003 0.846620 0.188465
H8    H     H_    0.828043 0.610094 0.153133 0.177994
H9    H     H_    0.265092 0.875011 0.353335 0.158532
H10   H     H_    0.731102 0.124680 0.640409 0.160539
H11   H     H_    0.659314 0.821333 0.563384 0.164217
H12   H     H_    0.338352 0.177982 0.434073 0.163492
H13   H     H_    0.765052 0.375049 0.353271 0.158523
H14   H     H_    0.231067 0.624719 0.640353 0.160545
H15   H     H_    0.159334 0.321342 0.563398 0.164217
H16   H     H_    0.838380 0.677993 0.434096 0.163497
H17   H     H_    0.340683 0.692544 0.785110 0.187080
H18   H     H_    0.648430 0.316871 0.194271 0.183700
H19   H     H_    0.755414 0.770240 0.321834 0.182444
H20   H     H_    0.240853 0.228198 0.673842 0.184392
H21   H     H_    0.840733 0.192487 0.785191 0.187077
H22   H     H_    0.148479 0.816810 0.194367 0.183724
H23   H     H_    0.255371 0.270220 0.321797 0.182435
H24   H     H_    0.740823 0.728185 0.673820 0.184401
H25   H     H_    0.450297 0.009081 0.187658 0.182422
H26   H     H_    0.550874 0.992844 0.810930 0.205301
H27   H     H_    0.950300 0.509094 0.187650 0.182400
H28   H     H_    0.050876 0.492837 0.810920 0.205322
H29   H     H_    0.688524 0.994311 0.491413 0.123989
H30   H     H_    0.310695 0.004379 0.510172 0.122969
H31   H     H_    0.188521 0.494293 0.491419 0.124000
H32   H     H_    0.810693 0.504393 0.510179 0.122966
N1    N     N_R   0.433280 0.000000 0.657760 -0.207750
N2    N     N_R   0.566720 0.000000 0.342240 -0.208483
N3    N     N_R   0.933280 0.500000 0.657760 -0.207761
N4    N     N_R   0.066720 0.500000 0.342240 -0.208480
O1    O     O_R   0.600040 0.935040 0.546740 -0.584961
O2    O     O_R   0.399960 0.064960 0.453260 -0.585372
O3    O     O_R   0.399960 0.935040 0.453260 -0.576458
O4    O     O_R   0.600040 0.064960 0.546740 -0.579147
O5    O     O_R   0.100040 0.435040 0.546740 -0.584966
O6    O     O_R   0.899960 0.564960 0.453260 -0.585372
O7    O     O_R   0.899960 0.435040 0.453260 -0.576447
O8    O     O_R   0.100040 0.564960 0.546740 -0.579153
O9    O     O_R   0.555010 0.935070 0.653220 -0.566519
O10   O     O_R   0.444990 0.064930 0.346780 -0.572878
O11   O     O_R   0.444990 0.935070 0.346780 -0.584499
O12   O     O_R   0.555010 0.064930 0.653220 -0.585751
O13   O     O_R   0.055010 0.435070 0.653220 -0.566532
O14   O     O_R   0.944990 0.564930 0.346780 -0.572875
O15   O     O_R   0.944990 0.435070 0.346780 -0.584496
O16   O     O_R   0.055010 0.564930 0.653220 -0.585746
O17   O     O_3   0.430207 0.733236 0.985634 -0.615875
C113  C     C_3   0.465916 0.673548 0.036026 -0.379060
H33   H     H_    0.426105 0.633978 0.980077 0.178268
H34   H     H_    0.480711 0.669137 0.122026 0.192132
H35   H     H_    0.523997 0.668581 0.047895 0.188148
O18   O     O_3   0.555627 0.281615 0.988070 -0.615291
C114  C     C_3   0.518817 0.341948 0.944919 -0.381398
H36   H     H_    0.459615 0.343058 0.930395 0.190775
H37   H     H_    0.505802 0.351916 0.861167 0.188099
H38   H     H_    0.557119 0.380051 0.007205 0.173771
O19   O     O_3   0.667201 0.837094 0.145653 -0.635599
C115  C     C_3   0.593967 0.810688 0.113764 -0.298453
H39   H     H_    0.606206 0.766085 0.161640 0.174366
H40   H     H_    0.549959 0.802126 0.019686 0.221393
H41   H     H_    0.564532 0.844798 0.136151 0.202175
O20   O     O_3   0.329106 0.160559 0.849741 -0.596676
C116  C     C_3   0.401344 0.187317 0.878236 -0.310558
H42   H     H_    0.447879 0.193893 0.972500 0.209406
H43   H     H_    0.388638 0.233150 0.833237 0.176043
H44   H     H_    0.427982 0.154426 0.849899 0.189112
O21   O     O_3   0.930245 0.233168 0.985725 -0.615911
C117  C     C_3   0.965921 0.173474 0.036120 -0.379053
H45   H     H_    0.926109 0.133912 0.980138 0.178278
H46   H     H_    0.980663 0.169059 0.122087 0.192147
H47   H     H_    0.024026 0.168492 0.048060 0.188140
O22   O     O_3   0.055661 0.781542 0.988183 -0.615282
C118  C     C_3   0.018818 0.841866 0.945027 -0.381395
H48   H     H_    0.959688 0.842988 0.930704 0.190785
H49   H     H_    0.005665 0.851791 0.861174 0.188128
H50   H     H_    0.057165 0.879992 0.007216 0.173743
O23   O     O_3   0.167151 0.337068 0.145605 -0.635620
C119  C     C_3   0.093918 0.310649 0.113699 -0.298341
H51   H     H_    0.106165 0.266057 0.161606 0.174401
H52   H     H_    0.049930 0.302063 0.019625 0.221373
H53   H     H_    0.064453 0.344761 0.136034 0.202184
O24   O     O_3   0.829071 0.660541 0.849710 -0.596657
C120  C     C_3   0.901314 0.687286 0.878204 -0.310606
H54   H     H_    0.947856 0.693850 0.972469 0.209450
H55   H     H_    0.888620 0.733123 0.833224 0.176018
H56   H     H_    0.927938 0.654392 0.849848 0.189140
O25   O     O_3   0.375495 0.946608 0.028557 -0.605441
C121  C     C_3   0.305887 0.978960 0.004009 -0.292967
H57   H     H_    0.249721 0.952403 0.939290 0.220922
H58   H     H_    0.299586 0.028947 0.975608 0.172973
H59   H     H_    0.310771 0.980139 0.083171 0.148322
O26   O     O_3   0.632456 0.038634 0.982580 -0.605043
C122  C     C_3   0.630319 0.105208 0.988020 -0.253854
H60   H     H_    0.649599 0.123261 0.072447 0.176887
H61   H     H_    0.568256 0.123701 0.917775 0.159248
H62   H     H_    0.674292 0.124005 0.976565 0.185841
O27   O     O_3   0.875515 0.446593 0.028572 -0.605431
C123  C     C_3   0.805898 0.478933 0.004017 -0.292930
H63   H     H_    0.749741 0.452362 0.939310 0.220912
H64   H     H_    0.799577 0.528918 0.975597 0.172961
H65   H     H_    0.810784 0.480114 0.083181 0.148328
O28   O     O_3   0.132490 0.538581 0.982595 -0.605095
C124  C     C_3   0.130529 0.605152 0.988225 -0.253990
H66   H     H_    0.150133 0.623147 0.072846 0.177192
H67   H     H_    0.068441 0.623742 0.918272 0.159246
H68   H     H_    0.174348 0.623902 0.976436 0.185769
O29   O     O_3   0.426668 0.776760 0.162186 -0.744227
H69   H     H_    0.472533 0.779728 0.158523 0.349826
O30   O     O_3   0.557531 0.246335 0.805219 -0.754496
H70   H     H_    0.511080 0.244763 0.807838 0.346321
O31   O     O_3   0.615142 0.848604 0.920500 -0.748768
H71   H     H_    0.601763 0.877272 0.960318 0.348617
O32   O     O_3   0.383205 0.150054 0.076391 -0.757626
H72   H     H_    0.397550 0.122121 0.036898 0.345679
O33   O     O_3   0.926678 0.276723 0.162237 -0.744229
H73   H     H_    0.972558 0.279669 0.158600 0.349822
O34   O     O_3   0.057523 0.746290 0.805285 -0.754481
H74   H     H_    0.011092 0.744677 0.807942 0.346291
O35   O     O_3   0.115113 0.348583 0.920465 -0.748761
H75   H     H_    0.101721 0.377245 0.960274 0.348630
O36   O     O_3   0.883185 0.650039 0.076368 -0.757624
H76   H     H_    0.897508 0.622093 0.036862 0.345664
O37   O     O_3   0.270172 0.950632 0.791299 -0.529432
C125  C     C_3   0.271143 0.884432 0.778257 -0.215475
H77   H     H_    0.311215 0.860058 0.862839 0.163828
H78   H     H_    0.290584 0.871714 0.724923 0.157760
H79   H     H_    0.208304 0.866741 0.733636 0.192325
O38   O     O_3   0.737318 0.016587 0.208591 -0.521778
C126  C     C_3   0.774147 0.962606 0.199887 -0.125812
H80   H     H_    0.742220 0.947627 0.109269 0.150289
H81   H     H_    0.777517 0.922946 0.251662 0.201629
H82   H     H_    0.837717 0.974263 0.235891 0.165438
O39   O     O_3   0.770189 0.450616 0.791312 -0.529424
C127  C     C_3   0.771172 0.384418 0.778264 -0.215528
H83   H     H_    0.811258 0.360042 0.862843 0.163808
H84   H     H_    0.790602 0.371712 0.724914 0.157760
H85   H     H_    0.708338 0.366718 0.733658 0.192339
O40   O     O_3   0.237343 0.516523 0.208621 -0.521900
C128  C     C_3   0.274147 0.462531 0.199897 -0.125793
H86   H     H_    0.242207 0.447554 0.109276 0.150322
H87   H     H_    0.277508 0.422874 0.251671 0.201639
H88   H     H_    0.337719 0.474172 0.235892 0.165423
O41   O     O_3   0.237826 0.996077 0.607816 -0.667625
H89   H     H_    0.208623 0.000344 0.524037 0.305820
O42   O     O_3   0.763876 0.993682 0.397199 -0.686809
H90   H     H_    0.792058 0.992564 0.480999 0.308089
O43   O     O_3   0.737834 0.496095 0.607839 -0.667607
H91   H     H_    0.708627 0.500369 0.524059 0.305822
O44   O     O_3   0.263883 0.493637 0.397218 -0.686800
H92   H     H_    0.292060 0.492517 0.481017 0.308083

loop_
_geom_bond_atom_site_label_1
_geom_bond_atom_site_label_2
_ccdc_geom_bond_type
C10   O18   S    
C79   H8    S    
C22   N2    A    
C117  H45   S    
C29   C33   A    
C33   C45   A    
O17   C113  S    
C5    C56   S    
C9    O17   S    
O34   H74   S    
C6    C55   S    
C53   C69   A    
C6    O14   A    
C76   C84   A    
C64   H20   S    
C61   H17   S    
C126  H80   S    
C19   O43   S    
C116  H44   S    
C120  H54   S    
O20   C116  S    
C47   O39   S    
C99   C108  A    
C30   C38   A    
C55   C79   A    
C37   C38   A    
C98   C105  A    
C57   C89   A    
Cu3   O5    S    
C32   C36   A    
Cu1   O1    S    
C51   C75   A    
C43   O27   S    
C50   C74   A    
C18   O42   S    
C61   C93   A    
C126  H81   S    
C7    O7    A    
C113  H33   S    
C10   C94   A    
C9    C105  A    
O36   H76   S    
C127  H85   S    
C63   C95   A    
C124  H68   S    
C13   O21   S    
C106  O30   S    
C62   C70   A    
C25   N1    A    
O35   H75   S    
C42   C46   A    
C37   C42   A    
C78   H5    S    
O18   C114  S    
C46   O38   S    
C7    O15   A    
C77   H6    S    
C8    O16   A    
C117  H47   S    
C59   C67   A    
Cu1   O10   S    
C85   C93   A    
C58   C66   A    
C40   C43   A    
C14   C90   A    
C20   C24   A    
C66   H9    S    
C119  H51   S    
C56   C72   A    
C127  H84   S    
Cu3   N4    S    
C27   N3    A    
O32   H72   S    
C4    O12   A    
C36   C48   A    
C34   C46   A    
C5    O13   A    
C26   H25   S    
C24   N4    A    
O31   H71   S    
C97   C102  A    
C52   C68   A    
C115  H41   S    
C3    O11   A    
C118  H50   S    
C41   O25   S    
C78   C86   A    
C60   C92   A    
C99   C104  A    
C71   H16   S    
C108  O32   S    
C1    O9    A    
O23   C119  S    
C2    O2    A    
C83   C99   A    
O43   H91   S    
O28   C124  S    
C25   C29   A    
C82   C98   A    
C2    O10   A    
C125  H79   S    
C111  O35   S    
C14   O22   S    
C17   C33   A    
C74   C82   A    
O44   H92   S    
C73   C81   A    
C123  H63   S    
C88   C104  A    
C3    C50   S    
C115  H40   S    
C124  H66   S    
C114  H38   S    
C112  O36   S    
C86   C94   A    
C124  H67   S    
C5    O5    A    
C125  H78   S    
C76   H3    S    
C30   C34   A    
C27   C31   A    
C84   C100  A    
C75   C83   A    
C15   C111  A    
C28   C32   A    
C64   C96   A    
Cu4   O7    S    
C114  H37   S    
C122  H62   S    
C45   O37   S    
C39   C40   A    
C12   C108  A    
C110  O34   S    
C69   H14   S    
Cu2   O9    S    
C51   C67   A    
C101  C110  A    
C100  C103  A    
C17   C21   A    
O19   C115  S    
C87   C95   A    
C103  C112  A    
C104  C111  A    
C105  O29   S    
C19   C23   A    
C122  H60   S    
Cu4   O6    S    
O29   H69   S    
C42   O26   S    
Cu1   O11   S    
C15   O23   S    
Cu2   O12   S    
C114  H36   S    
C54   C70   A    
C22   H29   S    
C59   H23   S    
C26   N2    A    
C57   C65   A    
C127  H83   S    
C3    O3    A    
O25   C121  S    
C57   H21   S    
C28   H27   S    
C59   C91   A    
Cu3   O14   S    
C1    O1    A    
C18   C34   A    
C20   O44   S    
C79   C87   A    
C49   C65   A    
C60   H24   S    
C87   C103  A    
C97   C106  A    
C26   C30   A    
C4    O4    A    
C63   C71   A    
C28   N4    A    
C43   C47   A    
C21   N1    A    
C62   C94   A    
C11   C107  A    
C53   C77   A    
C49   C73   A    
Cu4   O13   S    
C10   C106  A    
C11   O19   S    
Cu1   O4    S    
Cu3   O15   S    
O39   C127  S    
C8    O8    A    
C9    C93   A    
Cu2   O3    S    
O27   C123  S    
C32   C40   A    
C85   C101  A    
C115  H39   S    
C16   C112  A    
C72   H15   S    
C128  H87   S    
Cu1   Cu2   S    
O41   H89   S    
C120  H56   S    
C11   C95   A    
C14   C110  A    
C74   H1    S    
C23   N3    A    
C125  H77   S    
C48   O40   S    
C100  C107  A    
C117  H46   S    
C73   H2    S    
C13   C89   A    
C126  H82   S    
O26   C122  S    
C68   H11   S    
Cu1   N2    S    
Cu4   O16   S    
C75   H4    S    
Cu4   N3    S    
O37   C125  S    
O40   C128  S    
C52   C76   A    
C24   H31   S    
C56   C80   A    
C8    C53   S    
C6    O6    A    
C128  H88   S    
O42   H90   S    
C50   C66   A    
C16   C92   A    
C39   C44   A    
C18   C22   A    
C109  O33   S    
C13   C109  A    
C121  H59   S    
C83   C91   A    
C23   H32   S    
Cu3   O8    S    
C121  H58   S    
C82   C90   A    
C98   C101  A    
C119  H53   S    
C123  H64   S    
C58   C90   A    
C61   C69   A    
C21   H30   S    
C62   H18   S    
C122  H61   S    
O38   C126  S    
C4    C49   S    
C81   C89   A    
C80   C88   A    
C19   C35   A    
C67   H12   S    
C65   H10   S    
C25   H26   S    
C58   H22   S    
C116  H42   S    
C12   O20   S    
C113  H34   S    
C77   C85   A    
C38   C41   A    
C27   H28   S    
C81   C97   A    
C31   C39   A    
C88   C96   A    
O22   C118  S    
C31   C35   A    
C64   C72   A    
Cu2   O2    S    
C107  O31   S    
O21   C117  S    
C17   O41   S    
C1    C52   S    
O33   H73   S    
C116  H43   S    
C2    C51   S    
C15   C91   A    
C118  H48   S    
C20   C36   A    
C44   C48   A    
O24   C120  S    
C60   C68   A    
C119  H52   S    
C121  H57   S    
C70   H13   S    
C29   C37   A    
O30   H70   S    
C128  H86   S    
C41   C45   A    
C12   C96   A    
C102  C109  A    
C84   C92   A    
C7    C54   S    
C54   C78   A    
C35   C47   A    
C16   O24   S    
C120  H55   S    
Cu2   N1    S    
C113  H35   S    
C123  H65   S    
C55   C71   A    
C44   O28   S    
Cu3   Cu4   S    
C63   H19   S    
C118  H49   S    
C80   H7    S    
C86   C102  A    
