data_mof_unit_27256.cif
_audit_creation_date              2012-12-11T14:56:35-0500
_audit_creation_method            fapswitch 2.2
_symmetry_space_group_name_H-M    P1
_symmetry_Int_Tables_number       1
_space_group_crystal_system       triclinic
_cell_length_a                    10.544546
_cell_length_b                    10.632529
_cell_length_c                    17.012105
_cell_angle_alpha                 80.230099
_cell_angle_beta                  89.828261
_cell_angle_gamma                 119.140349
_cell_volume                      1633.60140876

loop_
_atom_site_label
_atom_site_type_symbol
_atom_type_description
_atom_site_fract_x
_atom_site_fract_y
_atom_site_fract_z
_atom_type_partial_charge
C1    C     C_R   0.279461 0.889078 0.132812 0.562025
C2    C     C_R   0.798783 0.424233 0.262496 -0.127205
C3    C     C_R   0.788737 0.411845 0.183484 -0.128099
C4    C     C_R   0.651409 0.344154 0.155880 0.029951
C5    C     C_1   0.685437 0.830611 0.201505 -0.029421
C6    C     C_1   0.703993 0.806378 0.270352 -0.031783
C7    C     C_1   0.228584 0.854364 0.215679 -0.044387
C8    C     C_1   0.179791 0.834912 0.283328 -0.045699
C9    C     C_1   0.665451 0.363392 0.781019 -0.010866
C10   C     C_1   0.688078 0.407319 0.710123 -0.025954
C11   C     C_R   0.496026 0.777749 0.773538 0.254542
C12   C     C_R   0.636467 0.281000 0.085790 0.542355
C13   C     C_R   0.509021 0.770766 0.693652 -0.115524
C14   C     C_R   0.642938 0.859854 0.647870 -0.017244
C15   C     C_R   0.754020 0.979278 0.675700 -0.137833
C16   C     C_R   0.736481 0.997655 0.753187 -0.169567
C17   C     C_R   0.611293 0.892269 0.803873 0.027355
C18   C     C_R   0.296256 0.990696 0.744414 0.239877
C19   C     C_R   0.267354 0.962774 0.667960 -0.106408
C20   C     C_R   0.169494 0.820961 0.658097 -0.020098
C21   C     C_R   0.108482 0.703670 0.723707 -0.152650
C22   C     C_R   0.141369 0.729928 0.799821 -0.115793
C23   C     C_R   0.643641 0.855233 0.124056 0.556233
C24   C     C_R   0.238190 0.872830 0.810030 0.061502
C25   C     C_R   0.711413 0.771974 0.353657 0.564348
C26   C     C_R   0.689330 0.396176 0.394600 0.549773
C27   C     C_R   0.108812 0.812749 0.360073 0.543887
C28   C     C_R   0.673788 0.806698 0.581231 0.549428
C29   C     C_R   0.718412 0.448112 0.625636 0.569572
C30   C     C_R   0.102619 0.803026 0.584668 0.541214
C31   C     C_R   0.282374 0.900565 0.888166 0.589948
C32   C     C_R   0.641255 0.292687 0.862375 0.555128
C33   C     C_R   0.599837 0.894985 0.888910 0.573953
C34   C     C_R   0.525259 0.305398 0.205042 -0.128991
C35   C     C_R   0.535656 0.319436 0.284460 -0.137629
C36   C     C_R   0.671739 0.371998 0.314001 0.029405
Cr1   Cr    Cr6+3 0.402240 0.783890 0.019450 1.042168
Cr2   Cr    Cr6+3 0.382360 0.097900 0.991800 1.015100
Cr3   Cr    Cr6+3 0.715380 0.118170 0.988700 1.013235
Cr4   Cr    Cr6+3 0.936650 0.882420 0.465510 1.017902
Cr5   Cr    Cr6+3 0.605770 0.565620 0.493360 1.009619
Cr6   Cr    Cr6+3 0.921340 0.550490 0.496380 1.011540
H1    H     H_    0.417803 0.253907 0.184190 0.142845
H2    H     H_    0.313277 0.053154 0.616817 0.141403
H3    H     H_    0.028959 0.593870 0.716764 0.132972
H4    H     H_    0.091998 0.638961 0.850518 0.158175
H5    H     H_    0.438115 0.285419 0.323119 0.133084
H6    H     H_    0.906458 0.474280 0.283258 0.146973
H7    H     H_    0.887121 0.445221 0.145715 0.144043
H8    H     H_    0.419282 0.684693 0.670332 0.139252
H9    H     H_    0.857464 0.051991 0.639908 0.142752
H10   H     H_    0.824828 0.087379 0.775035 0.142122
O1    O     O_R   0.521780 0.757110 0.108900 -0.512552
O2    O     O_R   0.513330 0.228330 0.898660 -0.485893
O3    O     O_R   0.739230 0.266130 0.888050 -0.531378
O4    O     O_R   0.712580 0.991850 0.918770 -0.511519
O5    O     O_3   0.499990 0.999980 0.999980 -0.312709
O6    O     O_R   0.083770 0.911170 0.376030 -0.513129
O7    O     O_R   0.808770 0.880340 0.383890 -0.486239
O8    O     O_R   0.584340 0.689460 0.394160 -0.502403
O9    O     O_R   0.614320 0.443940 0.423590 -0.513536
O10   O     O_R   0.805020 0.410040 0.421340 -0.513918
O11   O     O_R   0.049240 0.685450 0.403290 -0.501415
O12   O     O_R   0.275160 0.783810 0.101120 -0.488783
O13   O     O_R   0.077520 0.903010 0.551800 -0.521496
O14   O     O_R   0.802980 0.872780 0.546830 -0.496341
O15   O     O_R   0.578090 0.681300 0.569920 -0.533409
O16   O     O_R   0.608530 0.436370 0.586530 -0.488025
O17   O     O_R   0.798770 0.401880 0.597100 -0.504700
O18   O     O_R   0.043450 0.677890 0.566230 -0.517972
O19   O     O_3   0.821250 0.666180 0.485090 -0.293210
O20   O     O_R   0.237900 0.972600 0.090980 -0.503175
O21   O     O_R   0.511190 0.220540 0.061620 -0.525734
O22   O     O_R   0.736920 0.257720 0.063840 -0.513122
O23   O     O_R   0.710450 0.984050 0.081720 -0.486355
O24   O     O_R   0.524090 0.765520 0.933110 -0.469634
O25   O     O_R   0.277300 0.791600 0.938160 -0.491784
O26   O     O_R   0.240210 0.981010 0.915190 -0.498282
O27   O     O_3   0.370538 0.674389 0.822744 -0.555537
C37   C     C_3   0.346757 0.531102 0.825256 -0.103386
H11   H     H_    0.449669 0.525722 0.828297 0.117434
H12   H     H_    0.289436 0.487313 0.773301 0.091024
H13   H     H_    0.274128 0.458745 0.880210 0.140922
O28   O     O_3   0.384192 0.132401 0.755280 -0.567035
C38   C     C_3   0.307676 0.210632 0.739858 -0.096659
H14   H     H_    0.202206 0.155751 0.778379 0.121767
H15   H     H_    0.289455 0.227469 0.675508 0.115636
H16   H     H_    0.375226 0.320742 0.754130 0.124016

loop_
_geom_bond_atom_site_label_1
_geom_bond_atom_site_label_2
_ccdc_geom_bond_type
Cr4   O19   S    
C12   O22   A    
C19   C20   A    
Cr5   O9    S    
C35   H5    S    
C3    H7    S    
C7    C8    T    
Cr5   O15   S    
C20   C30   S    
C38   H14   S    
C18   C24   A    
C26   O9    A    
C18   C19   A    
C5    C6    T    
C6    C25   S    
C15   C16   A    
Cr2   O5    S    
Cr6   O18   S    
C34   C35   A    
Cr3   O22   S    
C9    C32   S    
Cr3   O3    S    
C35   C36   A    
C16   C17   A    
C5    C23   S    
C12   O21   A    
C18   O28   S    
C31   O25   A    
C25   O8    A    
C15   H9    S    
C4    C12   S    
C9    C10   T    
Cr6   O10   S    
C32   O3    A    
C21   H3    S    
Cr5   O19   S    
Cr1   O1    S    
C33   O4    A    
Cr4   O7    S    
Cr4   O14   S    
C13   C14   A    
C17   C33   S    
C37   H13   S    
C32   O2    A    
C30   O18   A    
C23   O1    A    
Cr5   O16   S    
C29   O17   A    
C38   H15   S    
Cr2   O20   S    
C1    O20   A    
Cr4   O6    S    
C28   O15   A    
O28   C38   S    
C37   H12   S    
Cr2   O26   S    
C2    H6    S    
Cr1   O25   S    
Cr6   O17   S    
C13   H8    S    
C28   O14   A    
C29   O16   A    
C33   O24   A    
Cr3   O4    S    
Cr2   O2    S    
C11   O27   S    
C26   C36   S    
C22   H4    S    
Cr1   O24   S    
Cr3   O23   S    
Cr4   O13   S    
C22   C24   A    
C3    C4    A    
C1    O12   A    
Cr1   O12   S    
C19   H2    S    
C31   O26   A    
C38   H16   S    
C2    C36   A    
C11   C17   A    
C1    C7    S    
C34   H1    S    
C16   H10   S    
Cr5   O8    S    
C23   O23   A    
C37   H11   S    
C27   O6    A    
C2    C3    A    
C26   O10   A    
C24   C31   S    
C11   C13   A    
C10   C29   S    
Cr6   O19   S    
C4    C34   A    
C30   O13   A    
O27   C37   S    
C20   C21   A    
C8    C27   S    
C14   C15   A    
C27   O11   A    
C25   O7    A    
C14   C28   S    
C21   C22   A    
Cr6   O11   S    
Cr1   O5    S    
Cr2   O21   S    
Cr3   O5    S    
