data_mof_unit_58414.cif
_audit_creation_date              2013-03-05T15:44:48-0500
_audit_creation_method            fapswitch 2.2
_symmetry_space_group_name_H-M    P1
_symmetry_Int_Tables_number       1
_space_group_crystal_system       triclinic
_cell_length_a                    13.006359
_cell_length_b                    13.113161
_cell_length_c                    15.46925
_cell_angle_alpha                 116.182907
_cell_angle_beta                  62.760584
_cell_angle_gamma                 97.407323
_cell_volume                      2096.22471203

loop_
_atom_site_label
_atom_site_type_symbol
_atom_site_description
_atom_site_fract_x
_atom_site_fract_y
_atom_site_fract_z
_atom_type_partial_charge
C1    C     C_R   0.028207 0.832842 0.026282 -0.074187
H1    H     H_    0.070626 0.895279 0.069473 0.105851
N1    N     N_R   0.037310 0.720000 0.995790 -0.058479
C2    C     C_R   0.680143 0.453303 0.221866 -0.160427
H2    H     H_    0.617820 0.399380 0.201027 0.119394
N2    N     N_R   0.790790 0.446160 0.152010 -0.043763
C3    C     C_R   0.738574 0.586331 0.958500 -0.057713
H3    H     H_    0.745682 0.645936 0.926435 0.128985
N3    N     N_R   0.824890 0.517960 0.936420 -0.035588
C4    C     C_R   0.986373 0.715620 0.312361 0.171550
N4    N     N_R   0.003210 0.648190 0.211380 -0.062016
C5    C     C_R   0.660622 0.479443 0.046764 -0.129949
H4    H     H_    0.601400 0.433781 0.088652 0.093275
N5    N     N_R   0.774330 0.457010 0.995840 -0.046712
C6    C     C_R   0.060520 0.815413 0.214938 -0.227667
H5    H     H_    0.102599 0.880588 0.189567 0.119794
N6    N     N_R   0.053760 0.709140 0.151960 -0.058922
C7    C     C_R   0.776890 0.552118 0.315242 -0.092686
H6    H     H_    0.796966 0.602853 0.380285 0.083568
N7    N     N_R   0.853860 0.498840 0.211410 -0.037883
C8    C     C_R   0.940854 0.747900 0.920343 -0.042033
N8    N     N_R   0.974240 0.667310 0.936390 -0.045632
C9    C     C_R   0.962587 0.853684 0.984780 0.042991
C10   C     C_R   0.666177 0.530549 0.323839 0.056319
C11   C     C_R   0.635661 0.565666 0.030417 0.103971
C12   C     C_R   0.012448 0.821943 0.316228 0.035741
C13   C     C_R   0.324793 0.577368 0.007889 0.050487
N9    N     N_R   0.225670 0.542990 0.004160 -0.092062
C14   C     C_R   0.904589 0.201764 0.791112 0.211570
N10   N     N_R   0.946240 0.290860 0.848040 -0.067126
C15   C     C_R   0.195115 0.515574 0.698848 -0.102367
H7    H     H_    0.153980 0.496309 0.647290 0.131427
N11   N     N_R   0.146140 0.501160 0.788590 -0.043301
C16   C     C_R   0.108221 0.253413 0.031523 -0.028899
H8    H     H_    0.176460 0.267458 0.055350 0.138217
N12   N     N_R   0.025760 0.332690 0.063610 -0.027416
C17   C     C_R   0.011198 0.171898 0.936793 -0.152507
H9    H     H_    0.990693 0.111363 0.873699 0.102307
N13   N     N_R   0.962690 0.280000 0.004210 -0.051424
C18   C     C_R   0.297503 0.597352 0.790119 -0.075828
H10   H     H_    0.354324 0.651423 0.819128 0.150183
N14   N     N_R   0.209210 0.553840 0.847990 -0.062871
C19   C     C_R   0.241602 0.484183 0.109522 -0.071061
N15   N     N_R   0.175110 0.482040 0.063580 -0.056059
C20   C     C_R   0.992585 0.301436 0.695822 -0.152604
H11   H     H_    0.022454 0.334935 0.636501 0.140990
N16   N     N_R   0.996790 0.351810 0.788620 -0.051961
Ni1   Ni    Ni4+2 0.130310 0.630310 0.999970 0.205746
Ni2   Ni    Ni4+2 0.869690 0.369690 0.000030 0.214088
Ni3   Ni    Ni4+2 0.985640 0.509470 0.863740 0.273175
Ni4   Ni    Ni4+2 0.014360 0.490530 0.136260 0.263500
C21   C     C_R   0.336255 0.543482 0.076081 -0.004949
C22   C     C_R   0.936684 0.205955 0.694075 -0.009950
C23   C     C_R   0.288200 0.579646 0.699041 0.051412
C24   C     C_R   0.102585 0.151815 0.951584 0.065205
C25   C     C_R   0.080532 0.991384 0.413695 -0.181400
H12   H     H_    0.166735 0.968360 0.346187 0.125978
C26   C     C_R   0.060312 0.086423 0.507415 -0.170573
H13   H     H_    0.132277 0.136463 0.512359 0.130291
C27   C     C_R   0.949499 0.113290 0.595559 0.146267
C28   C     C_R   0.857695 0.047964 0.589148 -0.174099
H14   H     H_    0.771465 0.069817 0.655483 0.146307
C29   C     C_R   0.878621 0.951466 0.495483 -0.186451
H15   H     H_    0.808723 0.898362 0.489635 0.113668
C30   C     C_R   0.990376 0.923374 0.409912 0.168974
C31   C     C_R   0.559229 0.653111 0.521130 -0.271777
H16   H     H_    0.637756 0.690315 0.522924 0.110461
C32   C     C_R   0.460187 0.678574 0.618758 -0.016796
C33   C     C_R   0.362039 0.619543 0.616767 0.106656
C34   C     C_R   0.350875 0.572785 0.521446 -0.207814
H17   H     H_    0.269776 0.543369 0.520313 0.157511
C35   C     C_R   0.446707 0.554854 0.424471 0.014379
C36   C     C_R   0.556175 0.580345 0.423139 0.049877
C37   C     C_2   0.430273 0.557270 0.104448 -0.236890
H18   H     H_    0.437197 0.492336 0.126725 0.138246
C38   C     C_2   0.520297 0.615270 0.071467 -0.128206
H19   H     H_    0.513065 0.687225 0.057801 0.159785
C39   C     C_2   0.917380 0.965943 0.009952 -0.227424
H20   H     H_    0.887503 0.973232 0.957831 0.123852
C40   C     C_2   0.900765 0.057740 0.101582 -0.072933
H21   H     H_    0.923739 0.055538 0.159953 0.129947
C41   C     C_3   0.811481 0.133755 0.838395 -0.424839
C42   C     C_3   0.689707 0.180286 0.873781 -0.846207
H22   H     H_    0.652978 0.245020 0.958887 0.251746
H23   H     H_    0.689742 0.220169 0.823638 0.257616
H24   H     H_    0.631812 0.110043 0.868622 0.249968
H25   H     H_    0.829136 0.043017 0.778140 0.187947
H26   H     H_    0.811653 0.136343 0.910838 0.194439
C43   C     C_2   0.201736 0.459842 0.203940 0.456544
H27   H     H_    0.251273 0.483369 0.248750 0.093617
O1    O     O_2   0.111095 0.417065 0.235312 -0.596582
C44   C     C_2   0.461256 0.770510 0.717886 0.474078
H28   H     H_    0.542996 0.792302 0.721623 0.027689
O2    O     O_2   0.371616 0.827141 0.793991 -0.593847
C45   C     C_2   0.428075 0.511032 0.328161 0.416338
H29   H     H_    0.469775 0.548282 0.271781 0.001336
O3    O     O_2   0.368418 0.431899 0.310522 -0.599281
C46   C     C_3   0.977047 0.677533 0.394543 -0.391009
C47   C     C_3   0.080367 0.707549 0.420633 -0.835185
H30   H     H_    0.163380 0.688177 0.346112 0.238153
H31   H     H_    0.071283 0.799543 0.475569 0.252910
H32   H     H_    0.083562 0.657696 0.461806 0.263484
H33   H     H_    0.896301 0.719192 0.470485 0.177786
H34   H     H_    0.972677 0.584190 0.363840 0.243871
C48   C     C_2   0.919726 0.724521 0.827653 0.454920
H35   H     H_    0.894342 0.793819 0.819123 0.009477
O4    O     O_2   0.933276 0.627135 0.758185 -0.590502
C49   C     C_2   0.385599 0.663713 0.971643 0.410178
H36   H     H_    0.339155 0.745037 0.003171 0.018957
O5    O     O_2   0.485994 0.642103 0.901373 -0.587139

loop_
_geom_bond_atom_site_label_1
_geom_bond_atom_site_label_2
_geom_bond_distance
_ccdc_geom_bond_type
C31   C32   1.391649 A    
C29   C30   1.395388 A    
C40   H21   1.085216 S    
C45   H29   1.080763 S    
N6    Ni1   1.888256 S    
C19   N15   1.338852 A    
C3    H3    1.070981 S    
C20   H11   1.082286 S    
C49   H36   1.085100 S    
C48   O4    1.220775 D    
C14   N10   1.341469 A    
N12   N13   1.406494 A    
C37   C38   1.332552 D    
C7    C10   1.387111 A    
N11   N14   1.406477 A    
C1    H1    1.076735 S    
N7    Ni4   1.856450 S    
C21   C37   1.443863 S    
C2    C10   1.386523 A    
C39   C40   1.336348 D    
C10   C36   1.475415 S    
N5    Ni2   1.832730 S    
C26   C27   1.403062 A    
C25   C30   1.385959 A    
N1    Ni1   1.831960 S    
C7    H6    1.062149 S    
C25   H12   1.084433 S    
C3    N3    1.348747 A    
C16   H8    1.074659 S    
C4    C46   1.511254 S    
C35   C45   1.465495 S    
N9    Ni1   1.832731 S    
C42   H22   1.106630 S    
C49   O5    1.221142 D    
C32   C33   1.410629 A    
C46   H33   1.110691 S    
C15   N11   1.326543 A    
C34   H17   1.080625 S    
C43   O1    1.219005 D    
C7    N7    1.337270 A    
N8    Ni3   1.855494 S    
C4    C12   1.373145 A    
C18   N14   1.336578 A    
C31   H16   1.080488 S    
C20   C22   1.360308 A    
C16   C24   1.383267 A    
C9    C39   1.473797 S    
C8    N8    1.347389 A    
C33   C34   1.395175 A    
C22   C27   1.418547 S    
N16   Ni3   1.857028 S    
C20   N16   1.313688 A    
N13   Ni2   1.831962 S    
C37   H18   1.076576 S    
N10   N16   1.369512 A    
C38   H19   1.077474 S    
C2    N2    1.330184 A    
C39   H20   1.083794 S    
C35   C36   1.412729 A    
C6    C12   1.360874 A    
N14   Ni1   1.887388 S    
N11   Ni3   1.856448 S    
C31   C36   1.406690 A    
N9    N15   1.369526 A    
C27   C28   1.392516 A    
C1    N1    1.343199 A    
N3    N5    1.369525 A    
C17   H9    1.074172 S    
C47   H30   1.109997 S    
C42   H24   1.110451 S    
C44   O2    1.221477 D    
C41   H25   1.110455 S    
C19   C43   1.476312 S    
N12   Ni4   1.855493 S    
N15   Ni4   1.856205 S    
C18   H10   1.066760 S    
C42   H23   1.110319 S    
N10   Ni2   1.888258 S    
C5    N5    1.317389 A    
C1    C9    1.389917 A    
C18   C23   1.383376 A    
C8    C9    1.390800 A    
C13   C21   1.380997 A    
C6    N6    1.321974 A    
N4    N6    1.369514 A    
C47   H31   1.109749 S    
C12   C30   1.402969 S    
C15   H7    1.078954 S    
N3    Ni3   1.856206 S    
C2    H2    1.072968 S    
C45   O3    1.220495 D    
N2    N7    1.406477 A    
C48   H35   1.084082 S    
C3    C11   1.382781 A    
C5    C11   1.367418 A    
C11   C38   1.446606 S    
C26   H13   1.084162 S    
C14   C41   1.511008 S    
C17   N13   1.348637 A    
C23   C33   1.467983 S    
C14   C22   1.387025 A    
C13   C49   1.464678 S    
C41   H26   1.107107 S    
C44   H28   1.085650 S    
C32   C44   1.479460 S    
C25   C26   1.365731 A    
C16   N12   1.349889 A    
C15   C23   1.382219 A    
C28   H14   1.078328 S    
C19   C21   1.383105 A    
N4    Ni4   1.857028 S    
C4    N4    1.337099 A    
C29   H15   1.084459 S    
C17   C24   1.384680 A    
C47   H32   1.110581 S    
C5    H4    1.066896 S    
C46   C47   1.530875 S    
C13   N9    1.328133 A    
N1    N8    1.406493 A    
C34   C35   1.382712 A    
C41   C42   1.530126 S    
C43   H27   1.076871 S    
C46   H34   1.104894 S    
C8    C48   1.475302 S    
N2    Ni2   1.887388 S    
C6    H5    1.078308 S    
C28   C29   1.372775 A    
