data_mof_unit_47769.cif
_audit_creation_date              2012-12-11T14:32:57-0500
_audit_creation_method            fapswitch 2.2
_symmetry_space_group_name_H-M    P1
_symmetry_Int_Tables_number       1
_space_group_crystal_system       triclinic
_cell_length_a                    6.955254
_cell_length_b                    13.731384
_cell_length_c                    17.944063
_cell_angle_alpha                 112.369301
_cell_angle_beta                  95.483637
_cell_angle_gamma                 90.21551
_cell_volume                      1576.04020461

loop_
_atom_site_label
_atom_site_type_symbol
_atom_type_description
_atom_site_fract_x
_atom_site_fract_y
_atom_site_fract_z
_atom_type_partial_charge
O1    O     O_R   0.484560 0.544530 0.414330 -0.536854
O2    O     O_R   0.197040 0.638810 0.585080 -0.537922
O3    O     O_R   0.026800 0.455470 0.585670 -0.541805
C1    C     C_R   0.373447 0.679280 0.609656 0.679273
O4    O     O_R   0.155000 0.556150 0.414940 -0.541317
O5    O     O_R   0.984450 0.372220 0.414320 -0.535752
C2    C     C_R   0.317642 0.564964 0.386543 0.762031
O6    O     O_R   0.526900 0.627780 0.585680 -0.541098
O7    O     O_3   0.339170 0.439750 0.499990 -0.376029
V1    V     V_3+5 0.064350 0.511180 0.500000 1.382379
O8    O     O_R   0.654880 0.361190 0.414920 -0.540821
C3    C     C_R   0.816963 0.324626 0.386373 0.768388
O9    O     O_R   0.696930 0.443850 0.585060 -0.542847
C4    C     C_R   0.873372 0.434131 0.612680 0.685295
V2    V     V_3+5 0.564340 0.488820 0.500000 1.377617
O10   O     O_3   0.839390 0.560250 0.500010 -0.374694
C5    C     C_R   0.041174 0.860818 0.822932 -0.083117
C6    C     C_R   0.907475 0.399819 0.681183 -0.054639
C7    C     C_R   0.901958 0.826078 0.686847 -0.128877
C8    C     C_R   0.956546 0.790535 0.748107 -0.151593
C9    C     C_R   0.066589 0.967912 0.836389 -0.127123
C10   C     C_R   0.987838 0.009235 0.779239 0.105383
C11   C     C_R   0.916392 0.933846 0.701595 0.125863
C12   C     C_R   0.985401 0.120416 0.793724 -0.093083
C13   C     C_R   0.935604 0.149585 0.724859 0.026964
C14   C     C_R   0.876520 0.069739 0.648607 -0.142777
C15   C     C_R   0.862333 0.965114 0.638041 -0.211703
C16   C     C_R   0.026750 0.204819 0.872053 0.423396
C17   C     C_R   0.052639 0.307957 0.876579 -0.258397
C18   C     C_R   0.011927 0.335253 0.809968 0.025453
C19   C     C_R   0.944800 0.257852 0.733663 0.100220
C20   C     C_R   0.031917 0.441567 0.820625 -0.095428
C21   C     C_R   0.981816 0.473313 0.756745 -0.141327
C22   C     C_R   0.891000 0.292803 0.669299 -0.185877
H1    H     H_    0.811088 0.907416 0.578522 0.111621
H2    H     H_    0.837317 0.239950 0.609113 0.086253
H3    H     H_    0.001855 0.555556 0.766354 0.085464
H4    H     H_    0.096793 0.370279 0.934896 0.182007
H5    H     H_    0.843747 0.769319 0.628093 0.135526
H6    H     H_    0.933794 0.707928 0.736857 0.094510
H7    H     H_    0.153612 0.015771 0.890686 0.186011
H8    H     H_    0.837037 0.085005 0.594835 0.116360
H9    H     H_    0.086224 0.500666 0.878943 0.140863
H10   H     H_    0.113439 0.224692 0.307914 0.156035
H11   H     H_    0.834131 0.035329 0.192785 0.153837
C23   C     C_2   0.135299 0.037981 0.183488 -0.326615
C24   C     C_2   0.972363 0.078524 0.216240 -0.126916
H12   H     H_    0.674934 0.177701 0.294342 0.127178
C25   C     C_2   0.812737 0.221257 0.318055 -0.337459
C26   C     C_2   0.975334 0.181292 0.284676 -0.103834
H13   H     H_    0.273203 0.081368 0.207367 0.135238
C27   C     C_R   0.406157 0.785860 0.676005 -0.056043
C28   C     C_R   0.538636 0.473614 0.824744 -0.057845
C29   C     C_R   0.516140 0.888812 0.816693 -0.118304
C30   C     C_R   0.472203 0.791774 0.753586 -0.143911
C31   C     C_R   0.392035 0.880671 0.661737 -0.206648
C32   C     C_R   0.439305 0.981840 0.725820 0.094047
C33   C     C_R   0.496555 0.983061 0.804060 0.053912
C34   C     C_R   0.432256 0.081665 0.716113 0.073762
C35   C     C_R   0.482017 0.179185 0.784699 -0.000432
C36   C     C_R   0.523850 0.174174 0.861286 -0.133437
C37   C     C_R   0.528389 0.078365 0.870452 -0.096225
C38   C     C_R   0.377862 0.087508 0.640410 -0.170581
C39   C     C_R   0.372718 0.183743 0.631426 -0.218039
C40   C     C_R   0.425256 0.278380 0.696876 0.127007
C41   C     C_R   0.484073 0.278619 0.774715 0.097071
C42   C     C_R   0.418472 0.373137 0.684427 -0.128281
C43   C     C_R   0.473211 0.469163 0.747419 -0.144497
C44   C     C_R   0.542328 0.378529 0.838568 -0.211009
H14   H     H_    0.553456 0.078793 0.931010 0.196075
H15   H     H_    0.590276 0.385181 0.899282 0.118354
H16   H     H_    0.462783 0.540621 0.735635 0.091265
H17   H     H_    0.327924 0.183993 0.571953 0.114784
H18   H     H_    0.565188 0.890313 0.876253 0.153298
H19   H     H_    0.490141 0.720788 0.765633 0.089874
H20   H     H_    0.346592 0.872892 0.600544 0.088814
H21   H     H_    0.550929 0.243616 0.916016 0.180729
H22   H     H_    0.337001 0.018485 0.586616 0.118002
H23   H     H_    0.369416 0.372950 0.625294 0.144551
H24   H     H_    0.334334 0.666982 0.194274 0.153970
H25   H     H_    0.614599 0.590372 0.307927 0.154869
C45   C     C_2   0.314188 0.602089 0.318754 -0.329976
C46   C     C_2   0.476364 0.610580 0.285173 -0.111528
H26   H     H_    0.772802 0.635822 0.206850 0.133892
C47   C     C_2   0.634836 0.655683 0.183609 -0.325509
C48   C     C_2   0.472625 0.646870 0.217057 -0.114182
H27   H     H_    0.176290 0.622025 0.295514 0.128836
O11   O     O_R   0.421600 0.630430 0.917010 -0.542451
O12   O     O_R   0.793840 0.702190 0.087630 -0.540555
O13   O     O_R   0.964010 0.886170 0.088190 -0.538735
C49   C     C_R   0.631261 0.693133 0.115987 0.758570
O14   O     O_R   0.751460 0.619510 0.917500 -0.539643
O15   O     O_R   0.921330 0.802900 0.916840 -0.536009
C50   C     C_R   0.574537 0.579519 0.891995 0.687172
O16   O     O_R   0.464290 0.713700 0.088350 -0.539189
O17   O     O_3   0.609200 0.818520 0.002630 -0.372639
V3    V     V_3+5 0.884140 0.747190 0.002530 1.401823
O18   O     O_R   0.251150 0.814630 0.917340 -0.548180
C51   C     C_R   0.075024 0.824265 0.889920 0.715756
O19   O     O_R   0.293530 0.897310 0.087470 -0.538803
C52   C     C_R   0.131332 0.934106 0.115754 0.764297
V4    V     V_3+5 0.384070 0.769710 0.002370 1.395597
O20   O     O_3   0.109180 0.698190 0.002460 -0.376713
S1    S     S_3+6 0.028467 0.198131 0.969918 -0.058817
O21   O     O_2   0.234332 0.193159 0.001975 -0.360068
O22   O     O_2   0.947225 0.297069 0.026550 -0.328487
O23   O     O_3   0.897886 0.095536 0.970881 -0.543117
H28   H     H_    0.928533 0.095802 0.026020 0.358264

loop_
_geom_bond_atom_site_label_1
_geom_bond_atom_site_label_2
_ccdc_geom_bond_type
C33   C37   A    
C13   C19   A    
C31   H20   S    
O17   V4    S    
C4    C6    S    
O2    C1    A    
C7    C8    A    
C1    O6    A    
C28   C44   A    
S1    O22   D    
C3    C25   S    
C47   C49   S    
C47   C48   D    
C14   C15   A    
C1    C27   S    
C16   C17   A    
O5    C3    A    
C18   C19   A    
C8    H6    S    
C32   C34   A    
C41   C44   A    
V2    O10   S    
O18   C51   A    
C5    C8    A    
C31   C32   A    
C37   H14   S    
C23   C24   D    
C44   H15   S    
C28   C43   A    
H24   C48   S    
C29   H18   S    
O8    V2    S    
C36   H21   S    
C40   C42   A    
C17   H4    S    
C39   H17   S    
O1    V2    S    
C11   C15   A    
O12   C49   A    
O7    V1    S    
O15   C51   A    
O13   V3    S    
C27   C30   A    
C30   H19   S    
C35   C41   A    
C34   C35   A    
O9    C4    A    
V4    O20   S    
O19   V4    S    
S1    O21   D    
H25   C46   S    
O14   V3    S    
C24   C26   S    
H11   C24   S    
C23   C52   S    
O11   C50   A    
C42   C43   A    
C42   H23   S    
C12   C13   A    
O4    C2    A    
C15   H1    S    
C13   C14   A    
O18   V4    S    
C23   H13   S    
C21   H3    S    
O12   V3    S    
C35   C36   A    
C7    C11   A    
O13   C52   A    
C17   C18   A    
C5    C51   S    
C16   S1    S    
C43   H16   S    
O17   V3    S    
C46   C48   S    
O14   C50   A    
C19   C22   A    
H26   C47   S    
C6    C22   A    
V3    O20   S    
O3    C4    A    
C7    H5    S    
C9    H7    S    
H12   C25   S    
C25   C26   D    
O6    V2    S    
O9    V2    S    
C10   C12   A    
O23   H28   S    
O2    V1    S    
O15   V3    S    
C14   H8    S    
C29   C33   A    
H10   C26   S    
C29   C30   A    
C28   C50   S    
O1    C2    A    
C12   C16   A    
O5    V1    S    
O11   V4    S    
O8    C3    A    
O16   V4    S    
C34   C38   A    
C20   C21   A    
O7    V2    S    
O4    V1    S    
O3    V1    S    
V1    O10   S    
C39   C40   A    
C18   C20   A    
C32   C33   A    
O19   C52   A    
C20   H9    S    
C22   H2    S    
C40   C41   A    
C36   C37   A    
C6    C21   A    
C5    C9    A    
C49   O16   A    
C38   C39   A    
C27   C31   A    
C2    C45   S    
C45   C46   D    
C10   C11   A    
C9    C10   A    
S1    O23   S    
C45   H27   S    
C38   H22   S    
