data_mof_unit_10970.cif
_audit_creation_date              2012-12-11T15:14:41-0500
_audit_creation_method            fapswitch 2.2
_symmetry_space_group_name_H-M    P1
_symmetry_Int_Tables_number       1
_space_group_crystal_system       triclinic
_cell_length_a                    22.314376
_cell_length_b                    7.247254
_cell_length_c                    19.210678
_cell_angle_alpha                 90.000325
_cell_angle_beta                  99.183633
_cell_angle_gamma                 90.000551
_cell_volume                      3066.88932757

loop_
_atom_site_label
_atom_site_type_symbol
_atom_type_description
_atom_site_fract_x
_atom_site_fract_y
_atom_site_fract_z
_atom_type_partial_charge
O1    O     O_R   0.448470 0.506130 0.415700 -0.534219
O2    O     O_R   0.551530 0.006130 0.584300 -0.534216
O3    O     O_R   0.436320 0.174490 0.555800 -0.531667
O4    O     O_R   0.563680 0.674490 0.444200 -0.531668
C1    C     C_R   0.421278 0.344140 0.575168 0.700785
C2    C     C_R   0.578722 0.844140 0.424832 0.700783
O5    O     O_R   0.441350 0.176340 0.414480 -0.533580
O6    O     O_R   0.558650 0.676340 0.585520 -0.533580
O7    O     O_R   0.556600 0.007100 0.441970 -0.533859
O8    O     O_R   0.443400 0.507100 0.558030 -0.533862
C3    C     C_R   0.427229 0.344489 0.389008 0.689747
C4    C     C_R   0.572772 0.844492 0.610991 0.689748
O9    O     O_3   0.537810 0.339550 0.509190 -0.372564
O10   O     O_3   0.462190 0.839550 0.490810 -0.372567
V1    V     V_3+5 0.492990 0.064280 0.498300 1.438571
V2    V     V_3+5 0.507010 0.564280 0.501700 1.438563
C5    C     C_R   0.867715 0.973139 0.694580 -0.103149
C6    C     C_R   0.132295 0.473284 0.305415 -0.103147
H1    H     H_    0.954276 0.006205 0.759628 0.110804
H2    H     H_    0.045737 0.506380 0.240367 0.110788
H3    H     H_    0.886688 0.003711 0.647382 0.172457
H4    H     H_    0.113327 0.503928 0.352610 0.172458
C7    C     C_R   0.884736 0.941684 0.821481 -0.037366
C8    C     C_R   0.115266 0.441700 0.178518 -0.037384
C9    C     C_R   0.591247 0.801938 0.739355 -0.252968
C10   C     C_R   0.408748 0.301853 0.260649 -0.252963
C11   C     C_R   0.629288 0.766787 0.802460 -0.105564
C12   C     C_R   0.370704 0.266663 0.197549 -0.105563
C13   C     C_R   0.692254 0.777178 0.807142 0.354700
C14   C     C_R   0.307738 0.277079 0.192869 0.354701
C15   C     C_R   0.718449 0.849207 0.749499 -0.027984
C16   C     C_R   0.281549 0.349182 0.250505 -0.027984
C17   C     C_R   0.679012 0.873794 0.683503 -0.004104
C18   C     C_R   0.320989 0.373814 0.316496 -0.004103
C19   C     C_R   0.781855 0.893783 0.754222 0.009584
C20   C     C_R   0.218146 0.393789 0.245779 0.009583
C21   C     C_R   0.805348 0.935697 0.691291 0.103013
C22   C     C_R   0.194658 0.435789 0.308706 0.103009
C23   C     C_R   0.766537 0.944450 0.625957 0.341348
C24   C     C_R   0.233471 0.444585 0.374037 0.341359
C25   C     C_R   0.703957 0.918393 0.623070 -0.254904
C26   C     C_R   0.296050 0.418489 0.376924 -0.254909
C27   C     C_R   0.822451 0.907274 0.819431 -0.209162
C28   C     C_R   0.177547 0.407235 0.180570 -0.209156
C29   C     C_R   0.906773 0.974850 0.758768 -0.192165
C30   C     C_R   0.093235 0.474965 0.241229 -0.192146
C31   C     C_R   0.615200 0.847666 0.678808 -0.052880
C32   C     C_R   0.384800 0.347651 0.321192 -0.052886
H5    H     H_    0.806582 0.899819 0.869505 0.151889
H6    H     H_    0.193413 0.399711 0.130496 0.151890
H7    H     H_    0.542798 0.781813 0.736667 0.124061
H8    H     H_    0.457196 0.281699 0.263336 0.124063
H9    H     H_    0.609714 0.717177 0.847050 0.141192
H10   H     H_    0.390273 0.216996 0.152964 0.141192
H11   H     H_    0.674738 0.932399 0.572636 0.105243
H12   H     H_    0.325271 0.432524 0.427355 0.105258
C33   C     C_3   0.775716 0.823064 0.311048 0.333522
C34   C     C_3   0.224279 0.323075 0.688943 0.333532
C35   C     C_3   0.793811 0.005772 0.280482 0.285063
C36   C     C_3   0.206186 0.505784 0.719509 0.285056
H13   H     H_    0.707081 0.199304 0.272621 0.131466
H14   H     H_    0.292918 0.699309 0.727379 0.131469
C37   C     C_1   0.875125 0.941620 0.120735 -0.184457
C38   C     C_1   0.124870 0.441624 0.879258 -0.184453
C39   C     C_1   0.624605 0.852238 0.379176 -0.180882
C40   C     C_1   0.375394 0.352238 0.620823 -0.180877
C41   C     C_3   0.773414 0.731070 0.238559 0.015014
C42   C     C_3   0.226576 0.231079 0.761430 0.015038
C43   C     C_3   0.791548 0.915870 0.207657 0.085186
C44   C     C_3   0.208444 0.415879 0.792332 0.085182
C45   C     C_3   0.705189 0.783280 0.219524 -0.206703
C46   C     C_3   0.294802 0.283281 0.780470 -0.206698
C47   C     C_3   0.708503 0.876556 0.292782 0.086018
C48   C     C_3   0.291494 0.376559 0.707214 0.086021
C49   C     C_3   0.723749 0.969846 0.188519 -0.179847
C50   C     C_3   0.276243 0.469848 0.811476 -0.179857
C51   C     C_3   0.726468 0.062898 0.262265 -0.249784
C52   C     C_3   0.273530 0.562903 0.737731 -0.249800
C53   C     C_1   0.837206 0.932482 0.159555 -0.019743
C54   C     C_1   0.162786 0.432489 0.840434 -0.019755
C55   C     C_1   0.662570 0.861000 0.340426 0.014007
C56   C     C_1   0.337428 0.361001 0.659572 0.014015
H15   H     H_    0.702260 0.030938 0.137634 0.140465
H16   H     H_    0.297731 0.530938 0.862363 0.140465
H17   H     H_    0.668483 0.690198 0.194441 0.131789
H18   H     H_    0.331505 0.190195 0.805555 0.131788
O11   O     O_R   0.056650 0.288730 0.942060 -0.533540
O12   O     O_R   0.943350 0.788730 0.057940 -0.533538
O13   O     O_R   0.058660 0.616870 0.085540 -0.534771
O14   O     O_R   0.941340 0.116870 0.914460 -0.534775
C57   C     C_R   0.072903 0.448801 0.110998 0.684162
C58   C     C_R   0.927098 0.948799 0.889001 0.684148
O15   O     O_R   0.063700 0.618520 0.944220 -0.535861
O16   O     O_R   0.936300 0.118520 0.055780 -0.535864
O17   O     O_R   0.948460 0.787610 0.915680 -0.531373
O18   O     O_R   0.051540 0.287610 0.084320 -0.531370
C59   C     C_R   0.078904 0.450179 0.924809 0.720463
C60   C     C_R   0.921095 0.950178 0.075189 0.720465
O19   O     O_3   0.962230 0.453430 0.990860 -0.373784
O20   O     O_3   0.037770 0.953430 0.009140 -0.373778
V3    V     V_3+5 0.007010 0.728750 0.001700 1.425926
V4    V     V_3+5 0.992990 0.228750 0.998300 1.425913
O21   O     O_3   0.802052 0.747520 0.375733 -0.634852
H19   H     H_    0.846459 0.761601 0.377709 0.299233
O22   O     O_3   0.197947 0.247533 0.624255 -0.634857
H20   H     H_    0.153540 0.261673 0.622264 0.299233
C61   C     C_3   0.800949 0.545922 0.222514 -0.339601
C62   C     C_3   0.868803 0.534895 0.253647 -0.283122
C63   C     C_3   0.902564 0.402489 0.211918 -0.685596
H21   H     H_    0.878766 0.268473 0.205150 0.263346
H22   H     H_    0.905591 0.461083 0.159145 0.216428
H23   H     H_    0.949048 0.378634 0.240694 0.204678
H24   H     H_    0.890971 0.672136 0.253827 0.191104
H25   H     H_    0.873660 0.487207 0.309223 0.223845
H26   H     H_    0.776126 0.433300 0.244594 0.188418
H27   H     H_    0.794234 0.529222 0.164258 0.185191
C64   C     C_3   0.199033 0.045941 0.777473 -0.339639
C65   C     C_3   0.131188 0.034898 0.746301 -0.283078
C66   C     C_3   0.097407 0.902450 0.787994 -0.685600
H28   H     H_    0.121255 0.768527 0.794856 0.263331
H29   H     H_    0.094278 0.961135 0.840726 0.216370
H30   H     H_    0.050962 0.878380 0.759140 0.204761
H31   H     H_    0.109014 0.172130 0.746117 0.191095
H32   H     H_    0.126360 0.987233 0.690723 0.223857
H33   H     H_    0.223868 0.933304 0.755421 0.188412
H34   H     H_    0.205719 0.029277 0.835730 0.185201
O23   O     O_3   0.790522 0.984113 0.565532 -0.639148
H35   H     H_    0.757535 0.984236 0.524271 0.304835
O24   O     O_3   0.209492 0.484334 0.434458 -0.639154
H36   H     H_    0.242482 0.484521 0.475716 0.304814
O25   O     O_3   0.725705 0.696264 0.865560 -0.656365
H37   H     H_    0.758761 0.625197 0.849103 0.287887
O26   O     O_3   0.274281 0.196116 0.134466 -0.656362
H38   H     H_    0.241222 0.125087 0.150935 0.287891
O27   O     O_3   0.840740 0.118470 0.313323 -0.651262
H39   H     H_    0.827263 0.162934 0.357104 0.305393
O28   O     O_3   0.159260 0.618484 0.686666 -0.651253
H40   H     H_    0.172743 0.662970 0.642892 0.305387

loop_
_geom_bond_atom_site_label_1
_geom_bond_atom_site_label_2
_ccdc_geom_bond_type
C22   C24   A    
C24   O24   S    
C7    C29   A    
O18   V4    S    
C11   C13   A    
O1    C3    A    
C46   C50   S    
O2    C4    A    
C35   C51   S    
C2    O7    A    
O12   V3    S    
O27   H39   S    
C23   C25   A    
C37   C53   T    
O5    C3    A    
C36   C52   S    
C16   C20   A    
C19   C21   A    
C5    C29   A    
C37   C60   S    
C63   H22   S    
C33   C35   S    
O16   C60   A    
C33   C47   S    
C7    C27   A    
C62   C63   S    
C62   H25   S    
C65   C66   S    
O14   V4    S    
C26   H12   S    
C57   O18   A    
C45   H17   S    
C39   C55   T    
C2    C39   S    
C25   H11   S    
H13   C51   S    
C18   C26   A    
C61   C62   S    
C15   C17   A    
O13   C57   A    
C19   C27   A    
C64   H34   S    
C9    C31   A    
C10   C32   A    
C36   O28   S    
C24   C26   A    
O28   H40   S    
O6    V2    S    
C38   C54   T    
C50   H16   S    
C3    C32   S    
C33   C41   S    
C4    C31   S    
C6    C30   A    
C47   C55   S    
C66   H29   S    
C33   O21   S    
C45   C49   S    
C23   O23   S    
C44   C54   S    
C46   C48   S    
C63   H23   S    
O15   V3    S    
C45   C47   S    
C12   H10   S    
C27   H5    S    
C65   H32   S    
O5    V1    S    
C58   O17   A    
C5    H3    S    
C42   C46   S    
C41   C43   S    
C16   C18   A    
C62   H24   S    
O4    V2    S    
C9    H7    S    
C10   H8    S    
C42   C64   S    
C40   C56   T    
O11   V4    S    
O14   C58   A    
O10   V1    S    
C36   C44   S    
O6    C4    A    
C14   O26   S    
H1    C29   S    
O1    V2    S    
C5    C21   A    
O2    V1    S    
C49   C51   S    
C61   H26   S    
C35   C43   S    
C41   C61   S    
C34   C42   S    
C38   C59   S    
C44   C50   S    
O26   H38   S    
C17   C31   A    
C15   C19   A    
C43   C53   S    
O4    C2    A    
C18   C32   A    
O25   H37   S    
C8    C57   S    
O15   C59   A    
O3    V1    S    
C34   C48   S    
O24   H36   S    
C48   C56   S    
C66   H30   S    
C28   H6    S    
O13   V3    S    
C6    H4    S    
H14   C52   S    
C50   C52   S    
C1    C40   S    
O3    C1    A    
C46   H18   S    
C66   H28   S    
C11   H9    S    
C9    C11   A    
O22   H20   S    
C10   C12   A    
C34   O22   S    
C8    C30   A    
C12   C14   A    
C6    C22   A    
C17   C25   A    
C1    O8    A    
C13   C15   A    
O8    V2    S    
C64   C65   S    
C20   C22   A    
C14   C16   A    
C49   H15   S    
C13   O25   S    
C64   H33   S    
C8    C28   A    
C35   O27   S    
O20   V3    S    
C43   C49   S    
C41   C45   S    
C65   H31   S    
O7    V1    S    
O12   C60   A    
C61   H27   S    
C20   C28   A    
O17   V3    S    
O19   V4    S    
O16   V4    S    
C21   C23   A    
C48   C52   S    
O9    V2    S    
O21   H19   S    
C42   C44   S    
C47   C51   S    
C7    C58   S    
C63   H21   S    
C34   C36   S    
H2    C30   S    
O23   H35   S    
O11   C59   A    
