data_mof_unit_6277.cif
_audit_creation_date              2012-12-10T20:28:38-0500
_audit_creation_method            fapswitch 2.2
_symmetry_space_group_name_H-M    P1
_symmetry_Int_Tables_number       1
_space_group_crystal_system       triclinic
_cell_length_a                    10.777811
_cell_length_b                    10.875545
_cell_length_c                    9.945255
_cell_angle_alpha                 89.372922
_cell_angle_beta                  86.908851
_cell_angle_gamma                 92.424818
_cell_volume                      1162.88817484

loop_
_atom_site_label
_atom_site_type_symbol
_atom_type_description
_atom_site_fract_x
_atom_site_fract_y
_atom_site_fract_z
_atom_type_partial_charge
C1    C     C_R   0.511563 0.261253 0.499951 0.925570
C2    C     C_R   0.053061 0.521069 0.625202 -0.038184
C3    C     C_R   0.131258 0.559326 0.512708 -0.204364
C4    C     C_R   0.074515 0.608395 0.399384 0.173096
C5    C     C_R   0.944447 0.589114 0.391803 0.170714
C6    C     C_R   0.877814 0.509799 0.487922 -0.208681
C7    C     C_R   0.544438 0.061962 0.616249 0.010363
C8    C     C_R   0.540253 0.131749 0.498150 -0.132905
C9    C     C_R   0.549561 0.071462 0.375170 -0.206725
C10   C     C_R   0.532253 0.943788 0.370348 -0.062213
C11   C     C_R   0.510925 0.874574 0.492683 -0.197878
C12   C     C_R   0.262253 0.521270 0.503470 0.896725
C13   C     C_R   0.514193 0.936749 0.614007 0.121896
C14   C     C_3   0.412364 0.953267 0.723772 0.082429
C15   C     C_3   0.474011 0.079488 0.745722 -0.348679
C16   C     C_R   0.434543 0.411249 0.076661 0.150524
C17   C     C_R   0.581769 0.572712 0.067509 -0.130693
C18   C     C_R   0.585770 0.570888 0.922898 0.333845
C19   C     C_R   0.434616 0.409866 0.934971 0.183162
C20   C     C_3   0.297846 0.375863 0.943213 -0.082676
C21   C     C_3   0.300130 0.378722 0.097776 -0.324182
C22   C     C_R   0.500284 0.740611 0.498242 0.831092
C23   C     C_R   0.741418 0.501228 0.495813 0.925233
C24   C     C_R   0.075450 0.545908 0.761729 0.154866
C25   C     C_R   0.001873 0.480491 0.865700 0.192153
C26   C     C_R   0.911363 0.392074 0.827781 -0.254503
C27   C     C_R   0.884006 0.379773 0.693212 0.228238
C28   C     C_R   0.939501 0.464797 0.598202 0.002582
H1    H     H_    0.409812 0.154034 0.742259 0.209460
H2    H     H_    0.643270 0.633165 0.120615 0.158464
H3    H     H_    0.245503 0.449190 0.901586 0.153669
H4    H     H_    0.249308 0.456910 0.141140 0.158388
H5    H     H_    0.860303 0.333210 0.901557 0.161422
H6    H     H_    0.556175 0.124256 0.281813 0.218743
N1    N     N_R   0.499160 0.499140 0.142800 -0.146847
N2    N     N_R   0.499160 0.499180 0.857150 -0.157787
O1    O     O_R   0.500020 0.316790 0.614690 -0.617281
O2    O     O_R   0.500000 0.316760 0.385350 -0.606459
O3    O     O_R   0.316770 0.500020 0.614690 -0.609146
O4    O     O_R   0.316760 0.499980 0.385350 -0.618147
O5    O     O_R   0.500000 0.683240 0.614650 -0.601646
O6    O     O_R   0.499980 0.683210 0.385310 -0.613927
O7    O     O_R   0.683240 0.500020 0.614650 -0.617695
O8    O     O_R   0.683230 0.499980 0.385310 -0.640319
Zn1   Zn    Zn3+2 0.500010 0.500020 0.653130 0.981344
Zn2   Zn    Zn3+2 0.499990 0.499980 0.346870 0.963206
N3    N     N_2   0.145722 0.677068 0.295314 -0.306213
H7    H     H_    0.240520 0.671358 0.293294 0.279103
C29   C     C_3   0.111672 0.802465 0.269431 -0.728131
H8    H     H_    0.054613 0.839174 0.354837 0.242251
H9    H     H_    0.061305 0.805946 0.175198 0.260340
H10   H     H_    0.195867 0.864432 0.254873 0.261039
C30   C     C_2   0.402207 0.873045 0.848194 0.888413
O9    O     O_2   0.448524 0.773265 0.850127 -0.642018
O10   O     O_R   0.331486 0.912220 0.960153 -0.807797
H11   H     H_    0.304821 0.841580 0.023614 0.371370
C31   C     C_2   0.564007 0.090655 0.857720 0.940845
O11   O     O_2   0.659436 0.033155 0.853362 -0.648449
O12   O     O_R   0.539196 0.169047 0.964722 -0.776605
H12   H     H_    0.607694 0.172319 0.030708 0.350487
N4    N     N_2   0.679450 0.641827 0.846022 -0.272467
H13   H     H_    0.654744 0.680238 0.757877 0.300274
C32   C     C_3   0.772981 0.713849 0.911981 -0.807670
H14   H     H_    0.832895 0.764112 0.834516 0.253143
H15   H     H_    0.828701 0.652998 0.972573 0.256453
H16   H     H_    0.730729 0.783607 0.977010 0.276539
N5    N     N_2   0.269579 0.256479 0.885403 -0.279017
H17   H     H_    0.283143 0.176693 0.937892 0.299031
C33   C     C_3   0.174500 0.248529 0.788411 -0.778227
H18   H     H_    0.198670 0.182723 0.709261 0.235323
H19   H     H_    0.083779 0.219709 0.839322 0.244323
H20   H     H_    0.169512 0.335351 0.732409 0.262094
C34   C     C_2   0.274874 0.261143 0.179607 1.005590
O13   O     O_2   0.343177 0.174566 0.166881 -0.600706
O14   O     O_R   0.175443 0.254512 0.275905 -0.834040
H21   H     H_    0.168605 0.173026 0.326869 0.335444
N6    N     N_2   0.152950 0.650211 0.791617 -0.294285
H22   H     H_    0.222947 0.634940 0.855071 0.237261
C35   C     C_3   0.083702 0.755840 0.831257 -0.811268
H23   H     H_    0.147280 0.832961 0.853491 0.267642
H24   H     H_    0.026880 0.736850 0.925613 0.245321
H25   H     H_    0.025716 0.784140 0.748516 0.251501
N7    N     N_2   0.019312 0.502732 0.005390 -0.324824
H26   H     H_    0.094445 0.558398 0.028761 0.232847
C36   C     C_3   0.986997 0.404126 0.101929 -0.764173
H27   H     H_    0.023598 0.427486 0.200735 0.268985
H28   H     H_    0.027963 0.317089 0.067759 0.266890
H29   H     H_    0.884433 0.391212 0.116527 0.233092
N8    N     N_2   0.802981 0.281670 0.653040 -0.295713
H30   H     H_    0.750686 0.238885 0.731081 0.252278
C37   C     C_3   0.862547 0.195343 0.563262 -0.776730
H31   H     H_    0.795075 0.120538 0.538115 0.248759
H32   H     H_    0.941176 0.153494 0.612373 0.243634
H33   H     H_    0.897391 0.242081 0.467881 0.254328
N9    N     N_2   0.883792 0.646447 0.285513 -0.284082
H34   H     H_    0.839960 0.587915 0.220829 0.249337
C38   C     C_3   0.816852 0.755563 0.320075 -0.775376
H35   H     H_    0.843442 0.829951 0.245580 0.260495
H36   H     H_    0.836198 0.788704 0.422623 0.225760
H37   H     H_    0.716126 0.735945 0.315646 0.249123
C39   C     C_2   0.519127 0.892929 0.235242 0.975796
O15   O     O_2   0.429040 0.826460 0.212158 -0.645791
O16   O     O_R   0.604357 0.929704 0.131097 -0.813622
H38   H     H_    0.578038 0.895977 0.042410 0.373887
N10   N     N_2   0.289566 0.969787 0.671700 -0.330177
H39   H     H_    0.223896 0.993616 0.744486 0.238478
C40   C     C_3   0.240561 0.885746 0.573976 -0.761413
H40   H     H_    0.138193 0.892437 0.572943 0.228335
H41   H     H_    0.262419 0.789674 0.598012 0.266381
H42   H     H_    0.278155 0.912719 0.471721 0.260358

loop_
_geom_bond_atom_site_label_1
_geom_bond_atom_site_label_2
_ccdc_geom_bond_type
O10   H11   S    
C32   H15   S    
C16   C21   S    
C1    C8    S    
C34   O14   S    
C34   O13   D    
C20   N5    S    
N9    H34   S    
C38   H35   S    
C7    C8    A    
N3    C29   S    
C22   O6    A    
N6    H22   S    
O4    Zn2   S    
N10   C40   S    
C26   C27   A    
C39   O15   D    
C19   N2    A    
C16   N1    A    
C5    C6    A    
C31   O12   S    
C22   O5    A    
C21   C34   S    
C23   O7    A    
N4    C32   S    
O6    Zn2   S    
C33   H19   S    
C3    C12   S    
C5    N9    S    
C14   N10   S    
C6    C28   A    
N3    H7    S    
C8    C9    A    
C29   H9    S    
C40   H40   S    
N8    C37   S    
C9    C10   A    
C1    O1    A    
O3    Zn1   S    
N6    C35   S    
C32   H16   S    
O12   H12   S    
C39   O16   S    
C13   C14   S    
C17   H2    S    
C15   C31   S    
C33   H18   S    
C38   H36   S    
O8    Zn2   S    
C15   H1    S    
C30   O10   S    
C21   H4    S    
C36   H28   S    
N5    H17   S    
C24   C25   A    
C37   H31   S    
C35   H24   S    
C25   C26   A    
C36   H27   S    
C23   O8    A    
C35   H23   S    
N5    C33   S    
C12   O4    A    
C33   H20   S    
O14   H21   S    
C37   H32   S    
C26   H5    S    
N7    H26   S    
C29   H10   S    
C17   C18   A    
N2    Zn1   S    
O7    Zn1   S    
C1    O2    A    
N7    C36   S    
C2    C24   A    
C9    H6    S    
C40   H42   S    
O1    Zn1   S    
C3    C4    A    
O16   H38   S    
C38   H37   S    
C36   H29   S    
C10   C39   S    
C4    C5    A    
C35   H25   S    
N9    C38   S    
C18   N4    S    
C30   O9    D    
N10   H39   S    
C11   C22   S    
C19   C20   S    
C2    C3    A    
C37   H33   S    
C11   C13   A    
C31   O11   D    
C40   H41   S    
C12   O3    A    
C16   C19   A    
C6    C23   S    
C7    C15   S    
C27   N8    S    
N4    H13   S    
O2    Zn2   S    
C10   C11   A    
C32   H14   S    
C24   N6    S    
C7    C13   A    
C14   C30   S    
C20   C21   S    
C29   H8    S    
C27   C28   A    
C25   N7    S    
O5    Zn1   S    
C14   C15   S    
C2    C28   A    
C17   N1    A    
N8    H30   S    
N1    Zn2   S    
C18   N2    A    
C4    N3    S    
C20   H3    S    
