data_mof_unit_31743.cif
_audit_creation_date              2012-10-26T17:12:46-0400
_audit_creation_method            fapswitch 2.2
_symmetry_space_group_name_H-M    P1
_symmetry_Int_Tables_number       1
_space_group_crystal_system       triclinic
_cell_length_a                    27.884525
_cell_length_b                    18.709749
_cell_length_c                    16.76562
_cell_angle_alpha                 89.895039
_cell_angle_beta                  62.843974
_cell_angle_gamma                 89.775003
_cell_volume                      7782.58265503

loop_
_atom_site_label
_atom_site_type_symbol
_atom_type_description
_atom_site_fract_x
_atom_site_fract_y
_atom_site_fract_z
_atom_type_partial_charge
C1    C     C_R   0.296378 0.731631 0.328295 0.541161
C2    C     C_R   0.605238 0.003352 0.487727 -0.048786
C3    C     C_R   0.702102 0.695187 0.895884 -0.022585
C4    C     C_R   0.121483 0.821039 0.043407 0.252244
C5    C     C_R   0.889576 0.187759 0.949568 0.246379
C6    C     C_R   0.891135 0.812467 0.947880 0.255718
C7    C     C_R   0.168550 0.086821 0.983528 0.236542
C8    C     C_R   0.615036 0.318018 0.048692 0.254071
C9    C     C_R   0.395573 0.696601 0.947055 0.246111
C10   C     C_R   0.391390 0.312133 0.947772 0.254020
C11   C     C_R   0.668379 0.587249 0.983749 0.236288
C12   C     C_R   0.154528 0.814099 0.086239 -0.143671
C13   C     C_R   0.903198 0.501560 0.486464 -0.047496
C14   C     C_R   0.857964 0.199324 0.905065 -0.077085
C15   C     C_R   0.859125 0.801042 0.904217 -0.134567
C16   C     C_R   0.198152 0.102840 0.030188 -0.079133
C17   C     C_R   0.648139 0.309833 0.091072 -0.141139
C18   C     C_R   0.367328 0.717318 0.899468 -0.136086
C19   C     C_R   0.359451 0.300518 0.904022 -0.136513
C20   C     C_R   0.697864 0.603443 0.030531 -0.079740
C21   C     C_R   0.278949 0.786710 0.758313 -0.051004
C22   C     C_R   0.757700 0.306002 0.207603 -0.040840
C23   C     C_R   0.764187 0.685375 0.204964 -0.082563
C24   C     C_R   0.096164 0.501855 0.515225 -0.047372
C25   C     C_R   0.243895 0.295179 0.797322 -0.038916
C26   C     C_R   0.745807 0.199533 0.790818 -0.082386
C27   C     C_R   0.260788 0.812110 0.208611 -0.043172
C28   C     C_R   0.264545 0.184869 0.204773 -0.088647
C29   C     C_R   0.743638 0.795579 0.797411 -0.039380
C30   C     C_R   0.311872 0.781554 0.799971 0.221794
C31   C     C_R   0.728331 0.323812 0.161860 0.221794
C32   C     C_R   0.736456 0.662602 0.157633 0.235914
C33   C     C_R   0.274174 0.310831 0.842169 0.225366
C34   C     C_R   0.778377 0.186561 0.833001 0.236669
C35   C     C_R   0.624058 0.881052 0.430936 0.247730
C36   C     C_R   0.231742 0.832045 0.163212 0.219939
C37   C     C_R   0.236972 0.161787 0.157271 0.235605
C38   C     C_R   0.773854 0.811358 0.842335 0.224719
C39   C     C_R   0.928527 0.899490 0.064326 0.579443
C40   C     C_R   0.077807 0.090057 0.929785 0.595803
C41   C     C_R   0.072053 0.900046 0.935479 0.605989
C42   C     C_R   0.928493 0.100486 0.064299 0.575168
C43   C     C_R   0.428555 0.399455 0.064306 0.580880
C44   C     C_R   0.577765 0.590140 0.929812 0.597242
C45   C     C_R   0.571805 0.399824 0.935557 0.605724
C46   C     C_R   0.423077 0.130281 0.423072 0.255551
C47   C     C_R   0.428843 0.601120 0.063985 0.576615
C48   C     C_R   0.040388 0.630699 0.528292 0.006897
C49   C     C_R   0.946082 0.373508 0.515362 0.065726
C50   C     C_R   0.958770 0.630384 0.472299 0.007654
C51   C     C_R   0.053143 0.373555 0.488448 0.066032
C52   C     C_R   0.545999 0.130518 0.506277 0.008089
C53   C     C_R   0.469734 0.874150 0.444191 0.064103
C54   C     C_R   0.465053 0.132484 0.448395 0.006931
C55   C     C_R   0.573505 0.877763 0.432455 0.064851
C56   C     C_R   0.018794 0.695545 0.515842 -0.138281
C57   C     C_R   0.414171 0.873594 0.473557 0.248500
C58   C     C_R   0.972389 0.308531 0.512356 -0.114400
C59   C     C_R   0.980343 0.695361 0.483619 -0.137878
C60   C     C_R   0.027097 0.308546 0.491921 -0.111886
C61   C     C_R   0.521559 0.195370 0.501217 -0.137151
C62   C     C_R   0.499199 0.810545 0.432744 -0.100207
C63   C     C_R   0.483278 0.196689 0.468704 -0.138319
C64   C     C_R   0.552245 0.812927 0.420672 -0.103911
C65   C     C_R   0.977082 0.566491 0.492381 0.009001
C66   C     C_R   0.024823 0.437635 0.500967 -0.006798
C67   C     C_R   0.021788 0.566588 0.509889 0.009152
C68   C     C_R   0.583159 0.126010 0.542139 0.257640
C69   C     C_R   0.974092 0.437607 0.503062 -0.006585
C70   C     C_R   0.488193 0.068016 0.456194 0.009290
C71   C     C_R   0.543078 0.940632 0.447228 -0.006213
C72   C     C_R   0.532262 0.067877 0.475959 0.008554
C73   C     C_R   0.493764 0.939455 0.443349 -0.002996
C74   C     C_R   0.466293 0.003173 0.447139 -0.021753
C75   C     C_R   0.560572 0.004166 0.469533 -0.022216
C76   C     C_R   0.951376 0.501954 0.493991 -0.021936
C77   C     C_R   0.047576 0.502091 0.508970 -0.021767
C78   C     C_R   0.387511 0.935848 0.462299 -0.023009
C79   C     C_R   0.107506 0.376961 0.468240 0.253726
C80   C     C_R   0.618506 0.065762 0.520956 0.045565
C81   C     C_R   0.636001 0.939761 0.473361 -0.019616
C82   C     C_R   0.391511 0.066840 0.440408 0.045357
C83   C     C_R   0.873081 0.437466 0.503824 -0.020189
C84   C     C_R   0.114229 0.565793 0.537662 0.044641
C85   C     C_R   0.126442 0.437704 0.497613 -0.022658
C86   C     C_R   0.885456 0.565321 0.462683 0.044561
C87   C     C_R   0.334310 0.935468 0.468038 -0.036966
C88   C     C_R   0.666832 0.065298 0.530867 0.001324
C89   C     C_R   0.675886 0.936915 0.504435 -0.036591
C90   C     C_R   0.919372 0.626782 0.441391 0.257405
C91   C     C_R   0.336984 0.066003 0.453812 -0.005940
C92   C     C_R   0.827220 0.436240 0.487184 -0.037538
C93   C     C_R   0.165764 0.565440 0.536577 -0.001771
C94   C     C_R   0.172604 0.436340 0.513219 -0.039231
C95   C     C_R   0.834183 0.565253 0.463225 -0.001293
C96   C     C_R   0.310694 0.000506 0.463652 -0.180273
C97   C     C_R   0.692114 0.000299 0.528699 -0.177842
C98   C     C_R   0.807835 0.500397 0.469974 -0.177685
C99   C     C_R   0.192180 0.500379 0.529707 -0.177124
C100  C     C_R   0.891912 0.376759 0.533982 0.253258
C101  C     C_R   0.703953 0.268971 0.671675 0.546349
C102  C     C_R   0.080238 0.627498 0.558358 0.257084
C103  C     C_R   0.232996 0.794779 0.943887 -0.005176
C104  C     C_R   0.785612 0.245248 0.040732 -0.022076
C105  C     C_R   0.792963 0.741295 0.035199 -0.018545
C106  C     C_R   0.233446 0.209394 0.941483 -0.020916
C107  C     C_R   0.720200 0.264641 0.954273 -0.017491
C108  C     C_R   0.294613 0.764467 0.034675 -0.006251
C109  C     C_R   0.293314 0.240686 0.034948 -0.019212
C110  C     C_R   0.733122 0.709968 0.941732 -0.020642
C111  C     C_R   0.288335 0.776101 0.894439 0.014570
C112  C     C_R   0.704178 0.730527 0.671592 0.546015
C113  C     C_R   0.737549 0.285832 0.082929 0.011276
C114  C     C_R   0.751138 0.689960 0.070600 0.064604
C115  C     C_R   0.272524 0.264281 0.910525 0.011533
C116  C     C_R   0.769098 0.225600 0.910947 0.064409
C117  C     C_R   0.244632 0.800657 0.079196 0.012180
C118  C     C_R   0.251558 0.189235 0.070279 0.064586
C119  C     C_R   0.772179 0.764879 0.910769 0.011567
C120  C     C_R   0.317087 0.752441 0.941640 -0.022574
C121  C     C_R   0.702684 0.290128 0.042360 -0.031891
C122  C     C_R   0.726176 0.668130 0.016712 0.006790
C123  C     C_R   0.296680 0.267789 0.328067 0.546465
C124  C     C_R   0.307752 0.270949 0.950033 -0.032827
C125  C     C_R   0.803646 0.220642 0.952204 0.008085
C126  C     C_R   0.210713 0.805420 0.037002 -0.031996
C127  C     C_R   0.226545 0.167467 0.016391 0.007356
C128  C     C_R   0.807403 0.771560 0.950280 -0.032496
C129  C     C_R   0.145341 0.824772 0.948650 0.071163
C130  C     C_R   0.864850 0.190248 0.044436 0.057214
C131  C     C_R   0.867268 0.806770 0.042701 0.057517
C132  C     C_R   0.164885 0.137978 0.924229 0.053607
C133  C     C_R   0.638409 0.314395 0.953932 0.066600
C134  C     C_R   0.796210 0.231332 0.328302 0.545675
C135  C     C_R   0.369330 0.698174 0.042044 0.058882
C136  C     C_R   0.367472 0.306469 0.042594 0.056937
C137  C     C_R   0.664719 0.638323 0.924363 0.053055
C138  C     C_R   0.116742 0.846708 0.900020 0.017065
C139  C     C_R   0.887461 0.158862 0.097733 -0.000397
C140  C     C_R   0.888303 0.840180 0.097099 -0.000376
C141  C     C_R   0.127980 0.132284 0.887241 0.001857
C142  C     C_R   0.613721 0.342583 0.901929 0.010721
C143  C     C_R   0.388853 0.661339 0.096854 -0.003411
C144  C     C_R   0.388394 0.340055 0.097051 -0.000564
C145  C     C_R   0.207644 0.776946 0.669065 0.549467
C146  C     C_R   0.627877 0.632474 0.887293 0.001478
C147  C     C_R   0.137322 0.827670 0.809991 -0.159242
C148  C     C_R   0.865007 0.175946 0.188977 -0.172143
C149  C     C_R   0.865355 0.823443 0.188589 -0.165385
C150  C     C_R   0.139375 0.167852 0.807394 -0.164935
C151  C     C_R   0.635118 0.323990 0.811290 -0.162900
C152  C     C_R   0.365036 0.676255 0.188819 -0.173697
C153  C     C_R   0.365392 0.323390 0.188565 -0.163041
C154  C     C_R   0.639288 0.667978 0.807399 -0.164650
C155  C     C_R   0.188988 0.798856 0.763319 -0.027321
C156  C     C_R   0.204208 0.230467 0.671593 0.545872
C157  C     C_R   0.820893 0.222315 0.229430 -0.026604
C158  C     C_R   0.822705 0.775008 0.228383 -0.021416
C159  C     C_R   0.183058 0.214134 0.768506 -0.029113
C160  C     C_R   0.680017 0.279025 0.770307 -0.023157
C161  C     C_R   0.322012 0.724318 0.229121 -0.026396
C162  C     C_R   0.322781 0.274890 0.228342 -0.019984
C163  C     C_R   0.682945 0.714313 0.768533 -0.029141
C164  C     C_R   0.222764 0.794973 0.806356 -0.044230
C165  C     C_R   0.797402 0.251801 0.176687 -0.037740
C166  C     C_R   0.802313 0.741017 0.173753 -0.018792
C167  C     C_R   0.796695 0.767755 0.328068 0.541696
C168  C     C_R   0.210073 0.235083 0.819392 -0.037622
C169  C     C_R   0.705360 0.252649 0.821796 -0.026572
C170  C     C_R   0.300785 0.758142 0.175599 -0.040381
C171  C     C_R   0.302540 0.240670 0.173624 -0.022444
C172  C     C_R   0.709866 0.735425 0.819492 -0.037545
C173  C     C_R   0.196695 0.631790 0.527286 0.589827
C174  C     C_R   0.799982 0.369151 0.484504 0.547739
C175  C     C_R   0.803307 0.631824 0.472650 0.582403
C176  C     C_R   0.199934 0.369107 0.515698 0.547489
C177  C     C_R   0.696851 0.131657 0.526242 0.581825
C178  C     C_R   0.415350 0.001777 0.447797 -0.046589
C179  C     C_R   0.302303 0.869020 0.477961 0.534922
C180  C     C_R   0.303809 0.132001 0.470998 0.580696
C181  C     C_R   0.700802 0.869187 0.513185 0.550805
C182  C     C_R   0.200264 0.804697 0.899743 -0.016069
C183  C     C_R   0.815900 0.228819 0.087477 -0.023225
C184  C     C_R   0.820686 0.763340 0.084259 -0.020419
C185  C     C_R   0.202341 0.194757 0.895717 -0.022584
C186  C     C_R   0.688186 0.277813 0.909663 -0.020883
C187  C     C_R   0.321538 0.739793 0.084182 -0.020643
C188  C     C_R   0.320958 0.262897 0.084087 -0.020689
Cu1   Cu    Cu3+1 0.209920 0.785290 0.495070 0.985718
Cu2   Cu    Cu3+1 0.504760 0.500000 0.075850 1.022279
Cu3   Cu    Cu3+1 0.995240 0.000000 0.924150 1.025308
Cu4   Cu    Cu3+1 0.004760 0.000000 0.075850 1.023208
Cu5   Cu    Cu3+1 0.790080 0.214710 0.504930 0.973390
Cu6   Cu    Cu3+1 0.790080 0.785290 0.504930 0.982285
Cu7   Cu    Cu3+1 0.209920 0.214710 0.495070 0.974975
Cu8   Cu    Cu3+1 0.709920 0.285290 0.495070 0.985359
Cu9   Cu    Cu3+1 0.290080 0.714710 0.504930 1.002357
Cu10  Cu    Cu3+1 0.290080 0.285290 0.504930 0.985789
Cu11  Cu    Cu3+1 0.709920 0.714710 0.495070 0.974976
Cu12  Cu    Cu3+1 0.495240 0.500000 0.924150 1.020151
H1    H     H_    0.574621 0.763432 0.410163 0.166975
H2    H     H_    0.726039 0.999470 0.543654 0.159294
H3    H     H_    0.770612 0.500173 0.464437 0.160851
H4    H     H_    0.229593 0.499899 0.534638 0.163516
H5    H     H_    0.113761 0.838429 0.774739 0.165481
H6    H     H_    0.881132 0.150938 0.229993 0.161192
H7    H     H_    0.879755 0.850646 0.230461 0.163411
H8    H     H_    0.115074 0.157531 0.773434 0.162693
H9    H     H_    0.617499 0.346664 0.771143 0.164299
H10   H     H_    0.379092 0.647982 0.230658 0.160534
H11   H     H_    0.379704 0.350720 0.230477 0.163327
H12   H     H_    0.465443 0.247482 0.465662 0.122196
H13   H     H_    0.615038 0.657541 0.773376 0.163040
H14   H     H_    0.135671 0.811645 0.158710 0.149112
H15   H     H_    0.877373 0.196612 0.832698 0.164056
H16   H     H_    0.876206 0.810423 0.832741 0.147241
H17   H     H_    0.202027 0.061518 0.071845 0.168627
H18   H     H_    0.630033 0.314381 0.163300 0.151837
H19   H     H_    0.385628 0.704704 0.829001 0.160808
H20   H     H_    0.376554 0.309891 0.832542 0.147065
H21   H     H_    0.701747 0.562209 0.072283 0.170349
H22   H     H_    0.299178 0.789978 0.687164 0.183175
H23   H     H_    0.481191 0.759277 0.433018 0.156156
H24   H     H_    0.751252 0.339521 0.263880 0.178457
H25   H     H_    0.755865 0.656865 0.265652 0.142185
H26   H     H_    0.244618 0.333926 0.748916 0.174258
H27   H     H_    0.750637 0.164066 0.737089 0.143223
H28   H     H_    0.252881 0.842941 0.267555 0.179950
H29   H     H_    0.256200 0.156530 0.265588 0.143148
H30   H     H_    0.744385 0.834241 0.748899 0.173017
H31   H     H_    0.698105 0.854050 0.356661 0.324272
H32   H     H_    0.448161 0.216808 0.350442 0.317325
H33   H     H_    0.358462 0.853507 0.589432 0.325416
H34   H     H_    0.533068 0.245524 0.519589 0.123352
H35   H     H_    0.545846 0.199823 0.632086 0.316909
H36   H     H_    0.177559 0.351015 0.373491 0.328657
H37   H     H_    0.951134 0.706200 0.357820 0.318019
H38   H     H_    0.821653 0.350313 0.627183 0.328601
H39   H     H_    0.048693 0.707801 0.640681 0.316599
H40   H     H_    0.056109 0.813399 0.157253 0.317175
H41   H     H_    0.955641 0.182986 0.836309 0.315543
H42   H     H_    0.956096 0.821370 0.833655 0.314125
H43   H     H_    0.155079 0.989280 0.030547 0.314040
H44   H     H_    0.550088 0.320988 0.163738 0.314868
H45   H     H_    0.048040 0.258108 0.483760 0.157617
H46   H     H_    0.462554 0.686676 0.835687 0.318726
H47   H     H_    0.456378 0.321224 0.833626 0.314632
H48   H     H_    0.654908 0.489758 0.030965 0.314373
H49   H     H_    0.381129 0.816990 0.780770 0.326441
H50   H     H_    0.694592 0.406916 0.139985 0.323830
H51   H     H_    0.686605 0.606201 0.260559 0.330074
H52   H     H_    0.300994 0.394103 0.877005 0.331663
H53   H     H_    0.817455 0.110186 0.748270 0.328805
H54   H     H_    0.192287 0.912954 0.150131 0.325393
H55   H     H_    0.187624 0.104573 0.259757 0.331859
H56   H     H_    0.965688 0.746092 0.472203 0.122496
H57   H     H_    0.800683 0.894667 0.877108 0.336960
H58   H     H_    0.951752 0.258075 0.520404 0.156865
H59   H     H_    0.033556 0.746395 0.526083 0.122685
H60   H     H_    0.269822 0.000378 0.471945 0.161407
O1    O     O_R   0.255040 0.869590 0.478480 -0.523127
O2    O     O_R   0.817950 0.203450 0.375560 -0.506875
O3    O     O_R   0.817950 0.796550 0.375560 -0.498173
O4    O     O_R   0.182050 0.203450 0.624440 -0.505712
O5    O     O_R   0.682050 0.296550 0.624440 -0.497917
O6    O     O_R   0.317950 0.703450 0.375560 -0.507732
O7    O     O_R   0.317950 0.296550 0.375560 -0.493552
O8    O     O_R   0.682050 0.703450 0.624440 -0.505752
O9    O     O_R   0.250530 0.763330 0.367210 -0.526357
O10   O     O_R   0.749470 0.236670 0.632790 -0.515875
O11   O     O_R   0.749470 0.763330 0.632790 -0.520532
O12   O     O_R   0.744960 0.130410 0.521520 -0.527788
O13   O     O_R   0.250530 0.236670 0.367210 -0.514499
O14   O     O_R   0.750530 0.263330 0.367210 -0.524658
O15   O     O_R   0.249470 0.736670 0.632790 -0.514279
O16   O     O_R   0.249470 0.263330 0.632790 -0.520078
O17   O     O_R   0.750530 0.736670 0.367210 -0.506171
O18   O     O_R   0.177260 0.690030 0.513710 -0.442808
O19   O     O_R   0.822740 0.309970 0.486290 -0.462297
O20   O     O_R   0.822740 0.690030 0.486290 -0.443866
O21   O     O_R   0.177260 0.309970 0.513710 -0.463048
O22   O     O_R   0.677260 0.190030 0.513710 -0.441745
O23   O     O_R   0.744960 0.869590 0.521520 -0.520965
O24   O     O_R   0.322740 0.809970 0.486290 -0.465925
O25   O     O_R   0.322740 0.190030 0.486290 -0.443848
O26   O     O_R   0.677260 0.809970 0.513710 -0.459876
O27   O     O_R   0.051640 0.926880 0.885090 -0.517763
O28   O     O_R   0.948360 0.073120 0.114910 -0.532033
O29   O     O_R   0.948360 0.926880 0.114910 -0.518029
O30   O     O_R   0.051640 0.073120 0.885090 -0.513364
O31   O     O_R   0.551640 0.426880 0.885090 -0.517722
O32   O     O_R   0.448360 0.573120 0.114910 -0.531902
O33   O     O_R   0.448360 0.426880 0.114910 -0.515183
O34   O     O_R   0.255040 0.130410 0.478480 -0.528630
O35   O     O_R   0.551640 0.573120 0.885090 -0.511008
O36   O     O_R   0.940620 0.926560 0.986760 -0.458391
O37   O     O_R   0.059380 0.073440 0.013240 -0.462030
O38   O     O_R   0.059380 0.926560 0.013240 -0.432106
O39   O     O_R   0.940620 0.073440 0.986760 -0.453088
O40   O     O_R   0.440620 0.426560 0.986760 -0.460245
O41   O     O_R   0.559380 0.573440 0.013240 -0.462375
O42   O     O_R   0.559380 0.426560 0.013240 -0.430143
O43   O     O_R   0.440620 0.573440 0.986760 -0.452945
O44   O     O_3   0.662201 0.831315 0.379205 -0.673428
O45   O     O_R   0.755040 0.369590 0.478480 -0.520812
O46   O     O_3   0.416539 0.184676 0.372824 -0.673196
O47   O     O_3   0.387327 0.825552 0.541210 -0.651824
O48   O     O_3   0.580539 0.173546 0.607208 -0.676323
O49   O     O_3   0.141650 0.328334 0.406257 -0.670658
O50   O     O_3   0.918036 0.676799 0.381478 -0.675008
O51   O     O_3   0.857728 0.327693 0.594782 -0.678104
O52   O     O_3   0.081830 0.678169 0.617146 -0.671906
O53   O     O_3   0.066070 0.816722 0.092525 -0.670728
O54   O     O_3   0.945030 0.182675 0.901390 -0.672924
O55   O     O_3   0.946259 0.820486 0.898456 -0.664893
O56   O     O_R   0.244960 0.630410 0.521520 -0.518658
O57   O     O_3   0.148456 0.018798 0.987341 -0.686187
O58   O     O_3   0.559614 0.320320 0.099063 -0.667820
O59   O     O_3   0.450257 0.682770 0.901147 -0.671793
O60   O     O_3   0.446499 0.320368 0.898442 -0.664171
O61   O     O_3   0.648422 0.519142 0.987511 -0.685682
O62   O     O_3   0.366407 0.789871 0.746125 -0.699126
O63   O     O_3   0.694751 0.382562 0.192420 -0.715099
O64   O     O_3   0.692348 0.618201 0.199202 -0.717586
O65   O     O_3   0.301298 0.375065 0.821671 -0.712281
O66   O     O_3   0.815605 0.131363 0.803840 -0.712285
O67   O     O_R   0.244960 0.369590 0.521520 -0.518638
O68   O     O_3   0.194756 0.886821 0.199605 -0.713029
O69   O     O_3   0.193082 0.117011 0.198676 -0.715233
O70   O     O_3   0.800950 0.875616 0.821808 -0.708310
O71   O     O_R   0.755040 0.630410 0.478480 -0.530423
O72   O     O_R   0.182050 0.796550 0.624440 -0.494080

loop_
_geom_bond_atom_site_label_1
_geom_bond_atom_site_label_2
_ccdc_geom_bond_type
C54   C70   A    
C61   H34   S    
C99   H4    S    
C108  C120  A    
C12   H14   S    
C97   H2    S    
C64   H1    S    
C88   C177  S    
C50   C59   A    
Cu12  O40   S    
Cu1   O9    S    
C145  O15   A    
C29   H30   S    
C181  O23   A    
Cu8   O22   S    
C52   C61   A    
H51   O64   S    
C12   C126  A    
C54   C63   A    
C58   C60   A    
C47   C143  S    
C44   O41   A    
C38   O70   S    
Cu9   O6    S    
C61   C63   A    
C103  C126  A    
C95   C175  S    
C62   C64   A    
C131  C140  A    
C91   C96   A    
C6    O55   S    
C50   C90   A    
C162  C171  A    
C170  C187  A    
C70   C74   A    
C4    C12   A    
C147  C155  A    
C24   C85   A    
C63   H12   S    
H48   O61   S    
C133  C186  A    
Cu7   Cu10  S    
C119  C128  A    
C49   C69   A    
C43   C144  S    
C154  H13   S    
C23   H25   S    
C109  C118  A    
C11   C20   A    
C150  C159  A    
Cu2   Cu12  S    
Cu3   Cu4   S    
C165  C183  A    
C137  C146  A    
C166  C184  A    
C175  O20   A    
C86   C90   A    
C71   C73   A    
C6    C131  A    
C106  C127  A    
H42   O55   S    
C51   C66   A    
C89   C181  S    
C142  C151  A    
C145  O72   A    
C52   C72   A    
C41   O38   A    
C105  C114  A    
C74   C178  A    
C26   H27   S    
C102  O52   S    
C82   C178  A    
C163  C172  A    
C7    C132  A    
C38   C119  A    
Cu7   O34   S    
C5    C130  A    
C83   C100  A    
C43   O33   A    
Cu1   O72   S    
C45   C142  S    
C158  C167  S    
C177  O12   A    
H49   O62   S    
C79   C85   A    
C173  O18   A    
Cu1   Cu9   S    
C100  O51   S    
C66   C77   A    
C39   C140  S    
C7    O57   S    
C57   C78   A    
C8    C17   A    
C56   C59   A    
C106  C115  A    
C150  H8    S    
Cu10  O7    S    
C80   C88   A    
C46   O46   S    
C179  O1    A    
C93   C173  S    
Cu12  O31   S    
C84   C93   A    
C105  C184  A    
C156  O16   A    
C86   C95   A    
C24   C77   A    
C104  C183  A    
C42   O39   A    
C2    C81   A    
C41   O27   A    
C55   C71   A    
C2    C75   A    
C90   O50   S    
C78   C87   A    
Cu5   O19   S    
Cu6   O20   S    
C39   O29   A    
C84   C102  A    
C67   C77   A    
Cu3   O27   S    
C133  C142  A    
C58   H58   S    
C130  C183  A    
C1    O9    A    
C3    C110  A    
C69   C76   A    
C147  H5    S    
C85   C94   A    
Cu12  O43   S    
C180  O25   A    
C156  O4    A    
C101  C160  S    
Cu4   O29   S    
C29   C38   A    
C149  C158  A    
C167  O17   A    
C20   C122  A    
C152  C161  A    
C135  C143  A    
C174  O19   A    
C60   H45   S    
C48   C67   A    
C40   C141  S    
C136  C188  A    
C174  O45   A    
H33   O47   S    
C72   C75   A    
C112  O11   A    
C135  C187  A    
C141  C150  A    
C25   C168  A    
Cu4   O38   S    
C139  C148  A    
C1    O6    A    
C98   H3    S    
C157  C165  A    
H40   O53   S    
C92   C174  S    
C45   O42   A    
Cu2   O41   S    
C22   H24   S    
C11   O61   S    
Cu10  O67   S    
H46   O59   S    
C160  C169  A    
Cu5   Cu8   S    
C91   C180  S    
C45   O31   A    
C167  O3    A    
H36   O49   S    
C9    C135  A    
H38   O51   S    
C116  C125  A    
C118  C127  A    
Cu8   O14   S    
C117  C126  A    
H54   O68   S    
C132  C141  A    
C152  H10   S    
C180  O34   A    
C108  C117  A    
C68   O48   S    
C79   O49   S    
C4    O53   S    
Cu11  O8    S    
Cu1   O18   S    
Cu5   O2    S    
C33   O65   S    
C32   O64   S    
Cu7   O4    S    
C88   C97   A    
C181  O26   A    
C28   C37   A    
C148  C157  A    
C50   C65   A    
C51   C79   A    
C107  C116  A    
C104  C113  A    
C9    C18   A    
C113  C121  A    
C132  C185  A    
C51   C60   A    
C140  C149  A    
C31   C113  A    
C17   H18   S    
C123  O13   A    
C25   C33   A    
H37   O50   S    
C43   O40   A    
C73   C74   A    
H50   O63   S    
Cu4   O28   S    
C175  O71   A    
H55   O69   S    
C107  C186  A    
C30   O62   S    
C65   C76   A    
C171  C188  A    
C40   O37   A    
C169  C186  A    
C3    C172  A    
C47   O32   A    
Cu8   O45   S    
C103  C111  A    
C37   O69   S    
Cu2   O32   S    
C104  C125  A    
C65   C67   A    
Cu7   O13   S    
C20   H21   S    
C173  O56   A    
C40   O30   A    
C3    C137  A    
C93   C99   A    
C148  H6    S    
C81   C89   A    
C8    C133  A    
C1    C161  S    
C21   C164  A    
C130  C139  A    
H39   O52   S    
C179  O24   A    
C47   O43   A    
C33   C115  A    
C21   H22   S    
Cu6   O3    S    
C112  C163  S    
C53   C57   A    
C8    O58   S    
H43   O57   S    
C110  C119  A    
H35   O48   S    
Cu3   O39   S    
C10   C19   A    
C96   H60   S    
C48   C102  A    
C46   C54   A    
Cu1   O1    S    
C31   O63   S    
C27   C170  A    
C5    C14   A    
C17   C121  A    
C143  C152  A    
H53   O66   S    
C15   C128  A    
C56   H59   S    
C107  C121  A    
C158  C166  A    
Cu11  O26   S    
C101  O5    A    
C115  C124  A    
C59   H56   S    
C78   C178  A    
C106  C185  A    
C15   H16   S    
C4    C129  A    
Cu9   O56   S    
C27   C36   A    
C21   C30   A    
C13   C83   A    
C153  C162  A    
C23   C32   A    
C11   C137  A    
C136  C144  A    
C110  C122  A    
Cu11  O17   S    
C164  C182  A    
C82   C91   A    
C123  O7    A    
C28   H29   S    
C94   C176  S    
C68   C80   A    
Cu3   O30   S    
C103  C182  A    
C108  C187  A    
C149  H7    S    
C35   C81   A    
C95   C98   A    
C92   C98   A    
Cu11  O71   S    
C83   C92   A    
C14   C125  A    
H57   O70   S    
C10   C136  A    
Cu9   O15   S    
C27   H28   S    
C66   C69   A    
Cu10  O16   S    
H41   O54   S    
C34   C116  A    
Cu2   O42   S    
C25   H26   S    
C159  C168  A    
C131  C184  A    
C144  C153  A    
H44   O58   S    
C6    C15   A    
C9    O59   S    
C22   C165  A    
C26   C34   A    
C10   O60   S    
C129  C138  A    
C26   C169  A    
C44   O35   A    
C146  C154  A    
C13   C86   A    
C44   C146  S    
C52   C68   A    
Cu10  O25   S    
C134  O2    A    
C46   C82   A    
Cu5   O10   S    
Cu8   O5    S    
C18   H19   S    
H31   O44   S    
C16   C127  A    
C109  C188  A    
C112  O8    A    
H32   O46   S    
C19   C124  A    
C22   C31   A    
C37   C118  A    
C35   C55   A    
C154  C163  A    
C153  H11   S    
C123  C162  S    
C49   C58   A    
C36   O68   S    
C89   C97   A    
C111  C120  A    
C114  C122  A    
C176  O21   A    
C36   C117  A    
C23   C166  A    
C53   C62   A    
C177  O22   A    
C28   C171  A    
Cu6   Cu11  S    
C13   C76   A    
C138  C147  A    
C87   C96   A    
Cu2   O33   S    
C129  C182  A    
C41   C138  S    
C16   H17   S    
C62   H23   S    
C5    O54   S    
C161  C170  A    
Cu3   O36   S    
Cu6   O23   S    
C134  O14   A    
Cu12  O35   S    
C18   C120  A    
Cu4   O37   S    
C48   C56   A    
C7    C16   A    
C168  C185  A    
C151  H9    S    
C105  C128  A    
C42   C139  S    
C156  C159  S    
C53   C73   A    
C109  C124  A    
C19   H20   S    
C55   C64   A    
C155  C164  A    
C101  O10   A    
C34   O66   S    
C30   C111  A    
Cu7   O21   S    
C151  C160  A    
C24   C84   A    
C49   C100  A    
C71   C75   A    
C94   C99   A    
C35   O44   S    
C14   H15   S    
C29   C172  A    
Cu9   O24   S    
C2    C80   A    
C176  O67   A    
C87   C179  S    
C145  C155  S    
C134  C157  S    
H47   O60   S    
C57   O47   S    
C39   O36   A    
Cu5   O12   S    
C70   C72   A    
Cu6   O11   S    
C32   C114  A    
H52   O65   S    
C42   O28   A    
