data_mof_unit_31671.cif
_audit_creation_date              2013-03-05T15:41:55-0500
_audit_creation_method            fapswitch 2.2
_symmetry_space_group_name_H-M    P1
_symmetry_Int_Tables_number       1
_space_group_crystal_system       triclinic
_cell_length_a                    19.519224
_cell_length_b                    7.26536
_cell_length_c                    17.52092
_cell_angle_alpha                 90.000142
_cell_angle_beta                  107.59813
_cell_angle_gamma                 90.00031
_cell_volume                      2368.43173177

loop_
_atom_site_label
_atom_site_type_symbol
_atom_site_description
_atom_site_fract_x
_atom_site_fract_y
_atom_site_fract_z
_atom_type_partial_charge
O1    O     O_R   0.414820 0.494320 0.416790 -0.571989
O2    O     O_R   0.585180 0.994320 0.583210 -0.571991
O3    O     O_R   0.560270 0.819500 0.430140 -0.552513
O4    O     O_R   0.439730 0.319500 0.569860 -0.552513
C1    C     C_R   0.579052 0.654948 0.412854 0.820522
C2    C     C_R   0.420950 0.154947 0.587148 0.820528
O5    O     O_R   0.413840 0.823740 0.407440 -0.516607
O6    O     O_R   0.586160 0.323740 0.592560 -0.516610
O7    O     O_R   0.437710 0.998590 0.560350 -0.562136
O8    O     O_R   0.562290 0.498590 0.439650 -0.562131
C3    C     C_R   0.387934 0.655421 0.384582 0.846459
C4    C     C_R   0.612066 0.155421 0.615418 0.846463
O9    O     O_3   0.508000 0.662290 0.550200 -0.283759
O10   O     O_3   0.492000 0.162290 0.449800 -0.283757
V1    V     V_3+5 0.498520 0.935380 0.490690 1.157456
V2    V     V_3+5 0.501480 0.435380 0.509310 1.157456
C5    C     C_2   0.774428 0.258520 0.805368 -0.164060
C6    C     C_2   0.225569 0.758529 0.194637 -0.164076
C7    C     C_2   0.819646 0.113085 0.818003 -0.248606
C8    C     C_2   0.180355 0.613085 0.181996 -0.248599
H1    H     H_    0.790003 0.369578 0.848290 0.096249
H2    H     H_    0.209989 0.869600 0.151722 0.096251
H3    H     H_    0.806503 0.990509 0.781421 0.068997
H4    H     H_    0.193504 0.490498 0.218569 0.069004
C9    C     C_2   0.703392 0.276031 0.739329 0.408449
C10   C     C_2   0.296608 0.776034 0.260673 0.408456
C11   C     C_2   0.680473 0.144052 0.682324 -0.201279
C12   C     C_2   0.319527 0.644052 0.317676 -0.201285
H5    H     H_    0.712047 0.021489 0.682883 -0.001648
H6    H     H_    0.287951 0.521493 0.317118 -0.001639
C13   C     C_R   0.300620 0.198129 0.602021 -0.091995
C14   C     C_R   0.699389 0.698066 0.397991 -0.092001
C15   C     C_R   0.371907 0.146615 0.636311 -0.111073
C16   C     C_R   0.628096 0.646621 0.363692 -0.111063
C17   C     C_R   0.395575 0.088973 0.716298 -0.066905
C18   C     C_R   0.604418 0.589068 0.283693 -0.066909
C19   C     C_R   0.348144 0.087613 0.763442 -0.002276
C20   C     C_R   0.651849 0.587716 0.236549 -0.002284
C21   C     C_R   0.275347 0.140926 0.727711 -0.037671
C22   C     C_R   0.724654 0.640960 0.272289 -0.037670
C23   C     C_R   0.252131 0.200547 0.647161 -0.042045
C24   C     C_R   0.747877 0.700510 0.352850 -0.042043
C25   C     C_R   0.370832 0.030523 0.844637 0.341028
C26   C     C_R   0.629154 0.530705 0.155343 0.341022
C27   C     C_R   0.320615 0.020269 0.887383 -0.096407
C28   C     C_R   0.679370 0.520441 0.112597 -0.096401
C29   C     C_R   0.248763 0.071483 0.852249 0.020485
C30   C     C_R   0.751230 0.571579 0.147740 0.020487
C31   C     C_R   0.225689 0.133459 0.772229 -0.057324
C32   C     C_R   0.774311 0.633492 0.227770 -0.057332
C33   C     C_R   0.152624 0.181927 0.736124 -0.132188
C34   C     C_R   0.847382 0.681897 0.263883 -0.132196
C35   C     C_R   0.129014 0.219404 0.652587 0.277676
C36   C     C_R   0.870994 0.719336 0.347422 0.277712
C37   C     C_R   0.179805 0.251960 0.611416 0.324952
C38   C     C_R   0.820208 0.751883 0.388600 0.324942
C39   C     C_R   0.199747 0.060198 0.896343 -0.169465
C40   C     C_R   0.800245 0.560279 0.103646 -0.169451
C41   C     C_R   0.128896 0.121475 0.863946 -0.139286
C42   C     C_R   0.871105 0.621480 0.136055 -0.139270
C43   C     C_R   0.105778 0.192796 0.785242 0.416732
C44   C     C_R   0.894231 0.692751 0.214768 0.416697
H7    H     H_    0.283138 0.232365 0.538892 0.085548
H8    H     H_    0.716878 0.732235 0.461127 0.085538
H9    H     H_    0.450726 0.044026 0.740479 0.120800
H10   H     H_    0.549261 0.544177 0.259503 0.120791
H11   H     H_    0.338314 0.975604 0.949331 0.126050
H12   H     H_    0.661665 0.475832 0.050641 0.126046
H13   H     H_    0.217222 0.008334 0.957235 0.075616
H14   H     H_    0.782763 0.508462 0.042748 0.075601
O11   O     O_R   0.937810 0.773680 0.060480 -0.550609
O12   O     O_R   0.062190 0.273680 0.939520 -0.550579
O13   O     O_R   0.086190 0.439740 0.092580 -0.569878
O14   O     O_R   0.913810 0.939740 0.907420 -0.569870
C45   C     C_R   0.112709 0.607956 0.114348 0.854508
C46   C     C_R   0.887291 0.107956 0.885652 0.854510
O15   O     O_R   0.939760 0.444210 0.069890 -0.570980
O16   O     O_R   0.060240 0.944210 0.930110 -0.570990
O17   O     O_R   0.914790 0.269640 0.916760 -0.551993
O18   O     O_R   0.085210 0.769640 0.083240 -0.552010
C47   C     C_R   0.920061 0.612779 0.085857 0.856802
C48   C     C_R   0.079940 0.112778 0.914143 0.856804
O19   O     O_3   0.992050 0.601530 0.949880 -0.306708
O20   O     O_3   0.007950 0.101530 0.050120 -0.306714
V3    V     V_3+5 0.001480 0.328340 0.009300 1.094740
V4    V     V_3+5 0.998520 0.828340 0.990700 1.094723
O21   O     O_3   0.036410 0.263549 0.757531 -0.636011
C49   C     C_3   0.035993 0.449101 0.731685 0.280714
H15   H     H_    0.998116 0.458560 0.670140 0.142560
H16   H     H_    0.089133 0.502522 0.730019 -0.012760
C50   C     C_3   0.008413 0.575327 0.785126 -0.214860
H17   H     H_    0.958615 0.516518 0.793568 0.154145
H18   H     H_    0.050627 0.586274 0.843837 0.157793
C51   C     C_3   0.992197 0.767091 0.748604 -0.403756
H19   H     H_    0.042232 0.830306 0.743065 0.165848
H20   H     H_    0.970479 0.855424 0.787422 0.165675
H21   H     H_    0.951525 0.759833 0.688572 0.164413
O22   O     O_3   0.963610 0.763434 0.242489 -0.636023
C52   C     C_3   0.964053 0.948989 0.268341 0.280733
H22   H     H_    0.001961 0.958438 0.329869 0.142556
H23   H     H_    0.910929 0.002426 0.270054 -0.012696
C53   C     C_3   0.991597 0.075206 0.214867 -0.214925
H24   H     H_    0.041383 0.016397 0.206395 0.154168
H25   H     H_    0.949361 0.086139 0.156171 0.157767
C54   C     C_3   0.007826 0.266979 0.251378 -0.403759
H26   H     H_    0.957803 0.330194 0.256949 0.165882
H27   H     H_    0.029518 0.355306 0.212535 0.165719
H28   H     H_    0.048524 0.259734 0.311393 0.164366
N1    N     N_R   0.054353 0.201754 0.607348 0.092370
O23   O     O_R   0.025724 0.307881 0.546328 -0.367600
O24   O     O_R   0.017218 0.063337 0.620597 -0.369265
N2    N     N_R   0.945654 0.701672 0.392658 0.092399
O25   O     O_R   0.974292 0.807833 0.453663 -0.367688
O26   O     O_R   0.982780 0.563224 0.379419 -0.369200
O27   O     O_3   0.155824 0.307144 0.531915 -0.609042
C55   C     C_3   0.179686 0.488502 0.523453 0.273950
H29   H     H_    0.174524 0.508062 0.459046 0.085683
H30   H     H_    0.237203 0.512638 0.556913 0.004758
C56   C     C_3   0.134265 0.633974 0.548840 -0.157653
H31   H     H_    0.076759 0.602434 0.521640 0.257388
H32   H     H_    0.146264 0.632997 0.615031 0.071241
C57   C     C_3   0.149245 0.825056 0.521792 -0.392097
H33   H     H_    0.206305 0.863178 0.550665 0.107375
H34   H     H_    0.114048 0.926082 0.538841 0.216463
H35   H     H_    0.137357 0.829561 0.455673 0.150856
O28   O     O_3   0.844197 0.807021 0.468107 -0.609058
C58   C     C_3   0.820348 0.988380 0.476595 0.273993
H36   H     H_    0.825551 0.007931 0.541013 0.085708
H37   H     H_    0.762822 0.012511 0.443176 0.004756
C59   C     C_3   0.865742 0.133869 0.451172 -0.157686
H38   H     H_    0.923255 0.102363 0.478343 0.257352
H39   H     H_    0.853711 0.132883 0.384977 0.071228
C60   C     C_3   0.850765 0.324948 0.478225 -0.392055
H40   H     H_    0.793698 0.363046 0.449381 0.107359
H41   H     H_    0.885941 0.425986 0.461147 0.216449
H42   H     H_    0.862684 0.329465 0.544348 0.150913
O29   O     O_3   0.654839 0.417969 0.739271 -0.628894
C61   C     C_3   0.687172 0.587537 0.770114 0.289215
H43   H     H_    0.656662 0.698301 0.730454 0.086923
H44   H     H_    0.743464 0.603042 0.768393 0.004731
C62   C     C_3   0.680166 0.619182 0.854015 -0.190855
H45   H     H_    0.622343 0.632892 0.849497 0.172001
H46   H     H_    0.701788 0.499479 0.893280 0.117149
C63   C     C_3   0.719810 0.792432 0.892618 -0.485960
H47   H     H_    0.778193 0.778567 0.900448 0.140741
H48   H     H_    0.712375 0.812798 0.952433 0.165531
H49   H     H_    0.698266 0.914702 0.854958 0.151546
O30   O     O_3   0.345162 0.917970 0.260730 -0.628891
C64   C     C_3   0.312831 0.087536 0.229885 0.289224
H50   H     H_    0.343348 0.198304 0.269538 0.086922
H51   H     H_    0.256543 0.103053 0.231614 0.004728
C65   C     C_3   0.319829 0.119159 0.145978 -0.190862
H52   H     H_    0.377650 0.132874 0.150489 0.171986
H53   H     H_    0.298206 0.999446 0.106720 0.117159
C66   C     C_3   0.280179 0.292398 0.107370 -0.485968
H54   H     H_    0.221798 0.278526 0.099548 0.140744
H55   H     H_    0.287607 0.312748 0.047551 0.165532
H56   H     H_    0.301724 0.414679 0.145023 0.151543
N3    N     N_R   0.444561 0.985520 0.885321 0.088688
O31   O     O_R   0.459713 0.848566 0.935520 -0.300720
O32   O     O_R   0.495381 0.100455 0.884214 -0.331982
N4    N     N_R   0.555417 0.485790 0.114649 0.088710
O33   O     O_R   0.540244 0.348888 0.064424 -0.300745
O34   O     O_R   0.504615 0.600764 0.115778 -0.331956

loop_
_geom_bond_atom_site_label_1
_geom_bond_atom_site_label_2
_geom_bond_distance
_ccdc_geom_bond_type
O21   C49   1.421369 S    
O4    V2    2.015012 S    
O28   C58   1.420156 S    
C66   H55   1.110520 S    
C35   C37   1.411248 A    
C7    H3    1.081796 S    
O1    C3    1.335949 A    
C41   C48   1.482866 S    
O2    C4    1.335944 A    
C2    O7    1.307991 A    
N2    O26   1.300915 A    
O12   V3    1.983127 S    
C29   C31   1.410483 A    
O5    C3    1.337576 A    
C54   H27   1.108380 S    
O14   C46   1.337041 A    
C7    C46   1.484364 S    
C17   C19   1.414898 A    
C25   N3    1.437309 S    
N1    O24   1.300912 A    
C18   H10   1.081295 S    
C39   C41   1.399389 A    
C11   H5    1.081298 S    
C17   H9    1.081295 S    
C40   C42   1.399385 A    
O27   C55   1.420149 S    
C55   H29   1.111332 S    
C53   C54   1.525882 S    
C42   C44   1.413302 A    
C27   C29   1.400842 A    
C23   C37   1.410745 A    
O18   V4    2.003766 S    
C43   O21   1.391339 S    
C24   C38   1.410746 A    
C44   O22   1.391338 S    
O20   V3    1.785578 S    
C8    H4    1.081797 S    
C34   C36   1.421571 A    
C31   C33   1.418676 A    
C33   C43   1.434861 A    
C27   H11   1.084436 S    
C60   H42   1.111050 S    
C32   C34   1.418676 A    
C65   C66   1.524526 S    
C38   O28   1.387757 S    
C45   O18   1.337228 A    
C16   C18   1.400488 A    
C51   H20   1.108380 S    
O16   V4    2.015036 S    
C30   C32   1.410486 A    
O15   V3    2.015040 S    
O6    V2    2.014864 S    
C1    C16   1.469905 S    
C66   H56   1.110674 S    
O13   C45   1.337039 A    
C64   H51   1.113963 S    
C53   H24   1.111838 S    
C26   N4    1.437310 S    
C63   H49   1.110674 S    
N2    O25   1.299442 A    
C26   C28   1.403973 A    
C20   C26   1.418106 A    
C66   H54   1.110442 S    
N4    O34   1.301269 A    
C56   H32   1.111596 S    
C54   H28   1.111043 S    
C36   C38   1.411244 A    
C41   C43   1.413304 A    
C4    C11   1.489100 S    
C55   C56   1.529509 S    
C13   H7    1.083278 S    
O30   C64   1.414863 S    
C14   H8    1.083279 S    
O4    C2    1.312468 A    
C61   H43   1.111258 S    
C62   C63   1.524525 S    
C50   H17   1.111838 S    
C40   H14   1.084670 S    
C51   H21   1.111044 S    
C5    H1    1.082030 S    
C9    O29   1.400366 S    
C8    C45   1.484364 S    
C33   C35   1.421573 A    
C62   H46   1.110039 S    
C14   C16   1.389859 A    
C19   C25   1.418106 A    
C59   H39   1.111598 S    
C58   H37   1.112134 S    
C28   H12   1.084436 S    
C50   H18   1.109470 S    
O11   V4    1.983126 S    
C42   C47   1.482861 S    
O16   C48   1.338308 A    
N3    O31   1.301469 A    
C49   C50   1.520642 S    
O15   C47   1.338312 A    
O6    C4    1.337578 A    
C6    C10   1.519031 S    
C52   C53   1.520643 S    
C13   C15   1.389852 A    
C36   N2    1.438734 S    
O1    V2    2.003593 S    
O14   V4    2.014765 S    
C53   H25   1.109476 S    
O2    V1    2.003587 S    
C25   C27   1.403976 A    
O13   V3    2.014755 S    
C61   H44   1.113964 S    
C63   H48   1.110519 S    
C52   H23   1.116103 S    
C65   H53   1.110039 S    
C60   H40   1.110139 S    
N3    O32   1.301269 A    
C64   C65   1.534323 S    
C59   C60   1.523543 S    
C57   H34   1.106365 S    
C58   H36   1.111332 S    
O17   V3    2.003761 S    
O3    V1    2.015016 S    
C46   O17   1.337225 A    
N4    O33   1.301466 A    
O29   C61   1.414863 S    
C56   C57   1.523539 S    
C35   N1    1.438752 S    
C13   C23   1.405087 A    
C21   C31   1.417027 A    
C6    H2    1.082029 S    
C49   H16   1.116109 S    
C22   C24   1.413533 A    
O3    C1    1.312464 A    
C61   C62   1.534320 S    
C56   H31   1.102760 S    
C2    C15   1.469905 S    
C30   C40   1.402101 A    
C5    C7    1.351435 D    
C9    C11   1.359025 D    
C54   H26   1.109716 S    
C10   C12   1.359028 D    
C52   H22   1.109973 S    
C63   H47   1.110443 S    
C5    C9    1.519028 S    
C57   H35   1.111049 S    
C12   H6    1.081299 S    
C59   H38   1.102771 S    
O7    V1    1.996354 S    
C58   C59   1.529534 S    
C1    O8    1.307996 A    
C19   C21   1.422378 A    
O8    V2    1.996353 S    
C64   H50   1.111258 S    
C50   C51   1.525878 S    
C20   C22   1.422378 A    
C37   O27   1.387747 S    
C3    C12   1.489099 S    
C22   C32   1.417035 A    
O5    V1    2.014854 S    
C15   C17   1.400493 A    
C55   H30   1.112147 S    
C6    C8    1.351431 D    
C51   H19   1.109710 S    
C18   C20   1.414894 A    
C28   C30   1.400841 A    
C10   O30   1.400369 S    
O19   V4    1.785573 S    
C49   H15   1.109967 S    
C21   C23   1.413527 A    
O22   C52   1.421370 S    
O9    V2    1.786660 S    
N1    O23   1.299443 A    
C29   C39   1.402102 A    
C60   H41   1.106363 S    
C14   C24   1.405089 A    
O10   V1    1.786664 S    
C34   C44   1.434861 A    
C65   H52   1.111763 S    
C39   H13   1.084672 S    
C57   H33   1.110137 S    
C62   H45   1.111763 S    
O12   C48   1.333211 A    
O11   C47   1.333208 A    
