data_mof_unit_14448.cif
_audit_creation_date              2012-12-10T17:24:44-0500
_audit_creation_method            fapswitch 2.2
_symmetry_space_group_name_H-M    P1
_symmetry_Int_Tables_number       1
_space_group_crystal_system       triclinic
_cell_length_a                    23.477407
_cell_length_b                    10.825257
_cell_length_c                    9.768222
_cell_angle_alpha                 90.340352
_cell_angle_beta                  89.215436
_cell_angle_gamma                 94.109444
_cell_volume                      2475.93799286

loop_
_atom_site_label
_atom_site_type_symbol
_atom_type_description
_atom_site_fract_x
_atom_site_fract_y
_atom_site_fract_z
_atom_type_partial_charge
C1    C     C_R   0.504392 0.263730 0.499974 0.799202
C2    C     C_R   0.964762 0.382775 0.715064 -0.279460
C3    C     C_R   0.024452 0.388501 0.719747 0.484199
C4    C     C_R   0.057269 0.442886 0.610173 -0.106489
C5    C     C_R   0.029110 0.486706 0.494870 -0.077386
C6    C     C_R   0.061217 0.538187 0.383605 -0.078764
C7    C     C_R   0.033093 0.582213 0.269985 -0.221202
C8    C     C_R   0.973371 0.575443 0.264810 0.494305
C9    C     C_R   0.117509 0.453655 0.610864 0.599429
C10   C     C_R   0.121035 0.543144 0.387803 0.622142
C11   C     C_R   0.242916 0.608227 0.514158 -0.250792
C12   C     C_R   0.391232 0.496185 0.500028 0.922931
C13   C     C_R   0.302409 0.607667 0.508200 0.419513
C14   C     C_R   0.328390 0.494481 0.498519 -0.273946
C15   C     C_R   0.293912 0.383780 0.472270 0.299392
C16   C     C_R   0.233963 0.386532 0.473354 0.473986
C17   C     C_R   0.208819 0.498320 0.498001 0.130924
C18   C     C_R   0.754710 0.381582 0.429605 0.361493
C19   C     C_R   0.694600 0.383622 0.438354 0.287950
C20   C     C_R   0.670345 0.486921 0.497411 -0.332840
C21   C     C_R   0.705488 0.583421 0.555014 0.283857
C22   C     C_R   0.764801 0.574714 0.559984 0.373141
C23   C     C_R   0.496728 0.736731 0.501829 0.813147
C24   C     C_R   0.789260 0.475513 0.493979 0.070100
C25   C     C_R   0.536594 0.121385 0.743925 -0.191373
C26   C     C_R   0.523383 0.071565 0.871242 0.191032
C27   C     C_R   0.484096 0.967735 0.880908 0.134050
C28   C     C_R   0.469964 0.897740 0.761459 0.139924
C29   C     C_R   0.492260 0.940660 0.632063 0.014104
C30   C     C_R   0.513494 0.065231 0.625851 0.011846
C31   C     C_R   0.509741 0.129633 0.501856 -0.109561
C32   C     C_R   0.504339 0.062369 0.380697 -0.129267
C33   C     C_R   0.502442 0.934715 0.383615 -0.198066
C34   C     C_R   0.608256 0.495314 0.499120 0.918578
C35   C     C_R   0.493728 0.871348 0.507206 -0.076094
C36   C     C_R   0.572976 0.673077 0.140754 -0.210184
C37   C     C_R   0.604621 0.766521 0.070078 0.128610
C38   C     C_R   0.604662 0.766947 0.927889 0.164035
C39   C     C_R   0.572779 0.674219 0.857229 -0.183220
C40   C     C_R   0.536039 0.584641 0.925301 0.127537
C41   C     C_R   0.536063 0.584395 0.073504 0.149308
C42   C     C_R   0.464570 0.420455 0.074191 0.254296
C43   C     C_R   0.464412 0.420931 0.927359 0.235119
C44   C     C_R   0.880392 0.524370 0.381361 0.636930
C45   C     C_R   0.876933 0.422431 0.597736 0.629120
C46   C     C_R   0.936694 0.427667 0.601940 -0.064238
C47   C     C_R   0.968775 0.480120 0.491177 -0.075667
C48   C     C_R   0.940584 0.526976 0.377531 -0.124749
Cu1   Cu    Cu3+1 0.500000 0.499990 0.640660 0.992867
Cu2   Cu    Cu3+1 0.500000 0.500010 0.359340 1.005062
H1    H     H_    0.940552 0.343772 0.801677 0.186945
H2    H     H_    0.502685 0.108360 0.284013 0.229401
H3    H     H_    0.564084 0.205802 0.738285 0.183532
H4    H     H_    0.507298 0.885221 0.288686 0.212939
H5    H     H_    0.578228 0.674076 0.248620 0.207509
H6    H     H_    0.577684 0.676778 0.748921 0.237597
H7    H     H_    0.057278 0.622651 0.184079 0.205039
H8    H     H_    0.223152 0.695013 0.527063 0.187944
N1    N     N_R   0.850251 0.472255 0.489900 -0.402563
N2    N     N_R   0.147738 0.500366 0.499687 -0.431191
N3    N     N_R   0.500540 0.501210 0.147910 -0.223340
N4    N     N_R   0.500560 0.501290 0.852040 -0.217851
O1    O     O_R   0.500000 0.319640 0.618810 -0.583665
O2    O     O_2   0.845606 0.368714 0.700980 -0.560670
O3    O     O_2   0.145955 0.418098 0.721282 -0.487137
O4    O     O_2   0.152356 0.589068 0.280382 -0.515715
O5    O     O_R   0.500000 0.319660 0.381240 -0.543689
O6    O     O_R   0.417880 0.499950 0.618810 -0.538484
O7    O     O_R   0.417880 0.499980 0.381240 -0.554439
O8    O     O_R   0.500000 0.680340 0.618760 -0.585405
O9    O     O_R   0.500000 0.680360 0.381190 -0.610649
O10   O     O_R   0.582120 0.500020 0.618760 -0.591300
O11   O     O_R   0.582120 0.500050 0.381190 -0.577121
O12   O     O_2   0.852008 0.574806 0.278998 -0.500224
O13   O     O_3   0.659396 0.287790 0.384779 -0.552177
C49   C     C_3   0.658240 0.186328 0.474985 -0.198049
H9    H     H_    0.627621 0.112225 0.435885 0.200368
H10   H     H_    0.643654 0.212403 0.579352 0.133549
H11   H     H_    0.700501 0.146611 0.480056 0.216355
O14   O     O_3   0.681910 0.689099 0.601743 -0.568585
C50   C     C_3   0.680255 0.770934 0.490497 -0.188778
H12   H     H_    0.653467 0.847593 0.518614 0.189668
H13   H     H_    0.660350 0.724633 0.399292 0.137012
H14   H     H_    0.723867 0.811604 0.464340 0.221719
O15   O     O_3   0.800015 0.670085 0.614434 -0.551352
C51   C     C_3   0.795825 0.665867 0.758584 -0.175457
H15   H     H_    0.753228 0.690971 0.795854 0.215016
H16   H     H_    0.828108 0.734812 0.801396 0.189800
H17   H     H_    0.805087 0.573592 0.798818 0.163839
I1    I     I_    0.561224 0.169936 0.038185 -0.301040
I2    I     I_    0.438346 0.934000 0.067345 -0.341412
I3    I     I_    0.400391 0.759716 0.778177 -0.194272
I4    I     I_    0.407101 0.289025 0.177171 -0.166121
O16   O     O_3   0.050227 0.346893 0.835560 -0.546682
C52   C     C_3   0.049098 0.216537 0.829672 -0.214536
H18   H     H_    0.072941 0.183876 0.918139 0.205484
H19   H     H_    0.070477 0.184290 0.734802 0.150550
H20   H     H_    0.004655 0.173819 0.837518 0.145911
I5    I     I_    0.651074 0.907439 0.183024 -0.379964
I6    I     I_    0.652115 0.907722 0.815704 -0.330797
I7    I     I_    0.404719 0.294450 0.827939 -0.291352
O17   O     O_3   0.947579 0.623029 0.152125 -0.535715
C53   C     C_3   0.947740 0.535070 0.045017 -0.228402
H21   H     H_    0.924180 0.570227 0.957348 0.191896
H22   H     H_    0.925566 0.445006 0.076231 0.158252
H23   H     H_    0.991957 0.521273 0.008717 0.179656
O18   O     O_3   0.335224 0.718678 0.510455 -0.567195
C54   C     C_3   0.338223 0.768121 0.377141 -0.228628
H24   H     H_    0.295426 0.791341 0.341865 0.181287
H25   H     H_    0.357504 0.703892 0.303243 0.187775
H26   H     H_    0.366148 0.855248 0.378809 0.201691
O19   O     O_3   0.316906 0.279823 0.417952 -0.528052
C55   C     C_3   0.340440 0.210667 0.521667 -0.225906
H27   H     H_    0.315659 0.211080 0.619697 0.154211
H28   H     H_    0.385537 0.244011 0.536612 0.174945
H29   H     H_    0.340425 0.112904 0.486921 0.195735
O20   O     O_3   0.199260 0.284236 0.433079 -0.538669
C56   C     C_3   0.196742 0.192710 0.535874 -0.217608
H30   H     H_    0.206533 0.228946 0.640740 0.161570
H31   H     H_    0.225883 0.119988 0.508320 0.190090
H32   H     H_    0.152757 0.147895 0.539737 0.171041
O21   O     O_3   0.780426 0.284150 0.367600 -0.562202
C57   C     C_3   0.774133 0.290796 0.224399 -0.175725
H33   H     H_    0.785792 0.385407 0.184108 0.167680
H34   H     H_    0.730054 0.259286 0.193801 0.224853
H35   H     H_    0.803432 0.227398 0.175093 0.186428

loop_
_geom_bond_atom_site_label_1
_geom_bond_atom_site_label_2
_ccdc_geom_bond_type
C12   O7    A    
Cu1   O1    S    
Cu1   O6    S    
C42   I4    S    
C52   H18   S    
C49   H11   S    
C41   N3    A    
Cu2   O9    S    
C8    C48   A    
C50   H12   S    
C52   H20   S    
C57   H33   S    
C45   C46   A    
C2    C46   A    
C12   O6    A    
C28   C29   A    
C26   C27   A    
C29   C30   A    
C18   C24   A    
C5    C6    A    
C36   C37   A    
Cu2   O7    S    
C49   H10   S    
C30   C31   A    
C51   H16   S    
C57   H34   S    
C44   N1    A    
C15   C16   A    
C1    C31   S    
C40   N4    A    
C54   H24   S    
C18   C19   A    
C22   O15   S    
C56   H30   S    
C32   H2    S    
C53   H21   S    
C33   C35   A    
C45   N1    A    
C39   H6    S    
C16   C17   A    
Cu1   O10   S    
O18   C54   S    
C27   I2    S    
C3    O16   S    
C11   H8    S    
Cu2   O5    S    
C13   O18   S    
C33   H4    S    
C55   H29   S    
C20   C34   S    
C21   C22   A    
C23   O8    A    
C36   C41   A    
O16   C52   S    
C1    O1    A    
O19   C55   S    
C50   H13   S    
C56   H31   S    
C10   O4    S    
C23   O9    A    
C7    C8    A    
C49   H9    S    
C28   I3    S    
Cu2   O11   S    
C16   O20   S    
C39   C40   A    
C51   H15   S    
O14   C50   S    
C57   H35   S    
C34   O11   A    
C25   C26   A    
O15   C51   S    
C56   H32   S    
C10   N2    A    
O13   C49   S    
C43   I7    S    
C37   C38   A    
C5    C47   A    
C47   C48   A    
C53   H22   S    
C44   O12   S    
C42   N3    A    
C18   O21   S    
C38   I6    S    
C40   C41   A    
C12   C14   S    
C23   C35   S    
Cu1   O8    S    
C22   C24   A    
C42   C43   A    
C3    C4    A    
C34   O10   A    
C37   I5    S    
C50   H14   S    
C55   H27   S    
C25   C30   A    
C46   C47   A    
C11   C17   A    
Cu1   N4    S    
C15   O19   S    
C31   C32   A    
C25   H3    S    
C4    C5    A    
C51   H17   S    
C6    C10   A    
C52   H19   S    
C6    C7    A    
C26   I1    S    
C29   C35   A    
C45   O2    S    
C54   H26   S    
C9    N2    A    
C32   C33   A    
C19   C20   A    
C19   O13   S    
C2    C3    A    
O21   C57   S    
C36   H5    S    
O20   C56   S    
C11   C13   A    
C38   C39   A    
C24   N1    S    
C21   O14   S    
C1    O5    A    
C54   H25   S    
C53   H23   S    
O17   C53   S    
C9    O3    S    
C2    H1    S    
C17   N2    S    
C20   C21   A    
Cu1   Cu2   S    
C27   C28   A    
Cu2   N3    S    
C14   C15   A    
C4    C9    A    
C13   C14   A    
C8    O17   S    
C7    H7    S    
C44   C48   A    
C43   N4    A    
C55   H28   S    
