data_mof_unit_25661.cif
_audit_creation_date              2012-12-10T18:50:46-0500
_audit_creation_method            fapswitch 2.2
_symmetry_space_group_name_H-M    P1
_symmetry_Int_Tables_number       1
_space_group_crystal_system       triclinic
_cell_length_a                    10.687002
_cell_length_b                    9.93974
_cell_length_c                    15.71875
_cell_angle_alpha                 89.883326
_cell_angle_beta                  91.748955
_cell_angle_gamma                 93.48798
_cell_volume                      1665.87077916

loop_
_atom_site_label
_atom_site_type_symbol
_atom_type_description
_atom_site_fract_x
_atom_site_fract_y
_atom_site_fract_z
_atom_type_partial_charge
C1    C     C_R   0.259804 0.495439 0.504414 0.919142
C2    C     C_3   0.625258 0.439283 0.953220 0.564230
C3    C     C_3   0.623905 0.440274 0.052069 -0.369305
C4    C     C_1   0.500807 0.499374 0.825462 0.190668
C5    C     C_1   0.502127 0.500019 0.174587 0.114958
C6    C     C_1   0.501360 0.500056 0.249846 -0.109728
C7    C     C_R   0.049705 0.383172 0.473873 0.137649
C8    C     C_R   0.072611 0.585681 0.563027 0.105640
C9    C     C_R   0.929372 0.416328 0.450752 0.327981
C10   C     C_R   0.942734 0.586962 0.562607 0.312873
C11   C     C_R   0.872972 0.509596 0.501145 -0.296251
C12   C     C_R   0.126455 0.485278 0.515622 -0.254085
C13   C     C_R   0.563185 0.076010 0.562226 0.334983
C14   C     C_R   0.560029 0.933205 0.563632 0.334191
C15   C     C_R   0.500121 0.500054 0.338571 0.901944
C16   C     C_R   0.442839 0.924065 0.434319 0.120653
C17   C     C_R   0.440067 0.068759 0.435371 0.129520
C18   C     C_R   0.739820 0.503723 0.500172 1.024003
C19   C     C_R   0.500180 0.499887 0.661454 0.923287
C20   C     C_3   0.493606 0.646546 0.049282 0.107065
C21   C     C_3   0.385261 0.413870 0.047769 0.129571
C22   C     C_3   0.387063 0.409081 0.949352 0.171742
C23   C     C_3   0.497707 0.647284 0.950896 0.197190
C24   C     C_1   0.500472 0.499586 0.750191 0.009938
C25   C     C_3   0.502159 0.499795 0.083001 -0.106765
C26   C     C_3   0.501336 0.499378 0.917105 -0.209174
H1    H     H_    0.403559 0.685065 0.069662 0.180070
H2    H     H_    0.299413 0.461579 0.068023 0.188084
H3    H     H_    0.397042 0.303721 0.928496 0.228153
H4    H     H_    0.583684 0.705791 0.930923 0.235851
H5    H     H_    0.707190 0.499886 0.079053 0.253397
H6    H     H_    0.631057 0.336665 0.077887 0.254790
N1    N     N_R   0.499970 0.857200 0.499980 -0.164574
N2    N     N_R   0.499970 0.142800 0.499980 -0.164616
O1    O     O_R   0.316750 0.614620 0.499990 -0.596379
O2    O     O_R   0.316750 0.385380 0.499990 -0.635175
O3    O     O_R   0.499990 0.614720 0.377140 -0.605092
O4    O     O_R   0.499990 0.385280 0.377140 -0.591090
O5    O     O_R   0.683220 0.614710 0.500000 -0.576013
O6    O     O_R   0.683220 0.385290 0.500000 -0.559189
O7    O     O_R   0.499980 0.614620 0.622860 -0.555902
O8    O     O_R   0.499980 0.385380 0.622860 -0.577229
Zn1   Zn    Zn3+2 0.499980 0.653120 0.500000 1.045163
Zn2   Zn    Zn3+2 0.499980 0.346880 0.500000 1.045622
Cl1   Cl    Cl    0.373136 0.740316 0.905367 -0.422793
Cl2   Cl    Cl    0.237748 0.448657 0.903347 -0.429735
N3    N     N_2   0.387585 0.847331 0.365224 -0.269570
H7    H     H_    0.291621 0.849258 0.358434 0.217548
C27   C     C_3   0.453436 0.856249 0.285908 -0.571231
H8    H     H_    0.439540 0.952733 0.252896 0.238102
H9    H     H_    0.415996 0.774121 0.242844 0.232454
H10   H     H_    0.555455 0.845315 0.297391 0.262908
N4    N     N_2   0.388713 0.139149 0.364997 -0.257428
H11   H     H_    0.448295 0.156885 0.315346 0.266799
C28   C     C_3   0.258001 0.112824 0.340640 -0.674768
H12   H     H_    0.206676 0.055421 0.390631 0.219001
H13   H     H_    0.249003 0.055045 0.280204 0.250691
H14   H     H_    0.214856 0.210241 0.329504 0.281767
Cl3   Cl    Cl    0.375300 0.245810 0.090960 -0.526875
Cl4   Cl    Cl    0.615433 0.760507 0.093870 -0.514484
Cl5   Cl    Cl    0.763486 0.533600 0.918183 -0.403999
Cl6   Cl    Cl    0.640950 0.269884 0.916347 -0.406957
N5    N     N_2   0.086933 0.247194 0.466048 -0.297992
H15   H     H_    0.161788 0.225006 0.504972 0.263583
C29   C     C_3   0.990778 0.137642 0.471350 -0.641741
H16   H     H_    0.032768 0.044857 0.495492 0.198243
H17   H     H_    0.950163 0.112911 0.407179 0.288378
H18   H     H_    0.916404 0.162415 0.515701 0.278062
N6    N     N_2   0.148929 0.673411 0.617611 -0.263671
H19   H     H_    0.129273 0.662751 0.681179 0.303346
C30   C     C_3   0.159792 0.813027 0.590782 -0.620950
H20   H     H_    0.070734 0.861938 0.600535 0.262176
H21   H     H_    0.183594 0.821009 0.522565 0.217078
H22   H     H_    0.235637 0.867755 0.629046 0.247558
Cl7   Cl    Cl    0.850334 0.342807 0.359795 -0.583508
Cl8   Cl    Cl    0.870563 0.675230 0.642787 -0.460814
Cl9   Cl    Cl    0.656742 0.167839 0.638859 -0.424443
Cl10  Cl    Cl    0.636341 0.856236 0.649184 -0.374530

loop_
_geom_bond_atom_site_label_1
_geom_bond_atom_site_label_2
_ccdc_geom_bond_type
C28   H12   S    
N5    C29   S    
C11   C18   S    
C23   Cl1   S    
C22   H3    S    
C14   N1    A    
N3    C27   S    
N4    H11   S    
C8    N6    S    
C21   Cl3   S    
C5    C6    T    
C4    C24   T    
C20   C25   S    
C23   C26   S    
N6    C30   S    
C18   O6    A    
C15   O3    A    
C13   N2    A    
C6    C15   S    
C10   Cl8   S    
C16   C17   A    
C29   H17   S    
C20   Cl4   S    
O1    Zn1   S    
C19   O8    A    
C27   H10   S    
C13   C14   A    
O7    Zn1   S    
N6    H19   S    
C1    C12   S    
O8    Zn2   S    
C16   N3    S    
N4    C28   S    
C7    C12   A    
C13   Cl9   S    
N1    Zn1   S    
C23   H4    S    
C3    C25   S    
N2    Zn2   S    
C30   H21   S    
O5    Zn1   S    
C27   H9    S    
O3    Zn1   S    
C18   O5    A    
C15   O4    A    
O4    Zn2   S    
C16   N1    A    
N3    H7    S    
C20   C23   S    
C8    C12   A    
C29   H18   S    
C2    C26   S    
C3    H5    S    
C9    C11   A    
C7    N5    S    
C5    C25   S    
C22   Cl2   S    
C21   H2    S    
C29   H16   S    
C28   H13   S    
O2    Zn2   S    
C17   N2    A    
C17   N4    S    
C1    O1    A    
C7    C9    A    
C21   C25   S    
C30   H22   S    
C4    C26   S    
C2    Cl5   S    
C20   H1    S    
C2    C3    S    
C30   H20   S    
C19   C24   S    
C14   Cl10  S    
C3    H6    S    
C10   C11   A    
N5    H15   S    
C2    Cl6   S    
O6    Zn2   S    
C8    C10   A    
C27   H8    S    
C22   C26   S    
C28   H14   S    
C9    Cl7   S    
C21   C22   S    
C19   O7    A    
C1    O2    A    
