data_mof_unit_7055.cif
_audit_creation_date              2012-12-10T17:35:04-0500
_audit_creation_method            fapswitch 2.2
_symmetry_space_group_name_H-M    P1
_symmetry_Int_Tables_number       1
_space_group_crystal_system       triclinic
_cell_length_a                    12.333727
_cell_length_b                    12.984111
_cell_length_c                    13.870305
_cell_angle_alpha                 105.26276
_cell_angle_beta                  74.125247
_cell_angle_gamma                 116.335456
_cell_volume                      1888.64799968

loop_
_atom_site_label
_atom_site_type_symbol
_atom_type_description
_atom_site_fract_x
_atom_site_fract_y
_atom_site_fract_z
_atom_type_partial_charge
C1    C     C_R   0.144222 0.714517 0.507172 0.774475
C2    C     C_R   0.561609 0.021344 0.486226 -0.028159
C3    C     C_R   0.607053 0.933821 0.435293 0.062969
C4    C     C_R   0.984409 0.504132 0.686372 0.808649
C5    C     C_R   0.530348 0.830200 0.380896 0.164460
C6    C     C_R   0.404552 0.800920 0.401562 -0.202444
C7    C     C_R   0.645718 0.130430 0.528095 0.101919
C8    C     C_R   0.813679 0.066142 0.466080 0.039235
C9    C     C_R   0.225481 0.839258 0.505975 -0.097484
C10   C     C_R   0.638050 0.674190 0.663717 -0.311258
C11   C     C_R   0.259169 0.360545 0.356598 0.081722
C12   C     C_1   0.975440 0.506404 0.791436 -0.180254
C13   C     C_R   0.361010 0.331911 0.323252 -0.267802
C14   C     C_R   0.456236 0.382827 0.378338 -0.203019
C15   C     C_R   0.452468 0.466319 0.466367 -0.012819
C16   C     C_R   0.855840 0.284901 0.493605 0.811130
C17   C     C_R   0.346434 0.493894 0.497047 0.284372
C18   C     C_R   0.550941 0.525515 0.523382 -0.044136
C19   C     C_R   0.542840 0.613188 0.607604 0.170858
C20   C     C_R   0.440273 0.640312 0.635076 -0.281901
C21   C     C_R   0.344200 0.581739 0.581462 -0.178445
C22   C     C_R   0.658164 0.502373 0.500684 0.016873
C23   C     C_R   0.725303 0.950756 0.445088 0.152535
C24   C     C_R   0.740894 0.647759 0.637142 0.067982
C25   C     C_R   0.015603 0.495872 0.313626 0.816065
C26   C     C_1   0.024834 0.493934 0.208577 -0.182667
C27   C     C_2   0.041502 0.490484 0.014613 -0.164121
C28   C     C_2   0.959193 0.510445 0.985445 -0.163334
C29   C     C_1   0.967507 0.508399 0.880020 0.001028
C30   C     C_1   0.033000 0.492246 0.120013 0.000565
C31   C     C_3   0.945252 0.084355 0.463618 -0.357987
C32   C     C_3   0.013843 0.070040 0.353851 -0.336513
C33   C     C_3   0.132496 0.057612 0.349661 -0.852056
C34   C     C_R   0.773108 0.159108 0.494873 -0.155753
C35   C     C_3   0.578550 0.753506 0.294763 -0.879245
C36   C     C_3   0.750148 0.847345 0.449458 -0.847050
C37   C     C_3   0.606050 0.201902 0.625572 -0.818577
C38   C     C_R   0.176455 0.923886 0.547562 -0.196644
C39   C     C_R   0.253652 0.041767 0.554808 -0.164765
C40   C     C_R   0.380941 0.076501 0.530082 -0.163426
C41   C     C_R   0.433351 0.993154 0.497159 0.098518
C42   C     C_R   0.353889 0.875932 0.469909 0.036211
Cu1   Cu    Cu3+1 0.899780 0.525060 0.522890 0.929645
Cu2   Cu    Cu3+1 0.100220 0.474940 0.477110 0.911957
H1    H     H_    0.885236 0.528268 0.040455 0.155976
H2    H     H_    0.270790 0.610104 0.608207 0.206924
H3    H     H_    0.115445 0.472642 0.959601 0.155918
H4    H     H_    0.078382 0.899154 0.573273 0.149958
H5    H     H_    0.436539 0.168507 0.534304 0.148024
H6    H     H_    0.214849 0.106630 0.582098 0.141797
H7    H     H_    0.189244 0.129831 0.401868 0.266196
H8    H     H_    0.110699 0.973545 0.372136 0.261673
H9    H     H_    0.186127 0.058970 0.271038 0.238015
H10   H     H_    0.955974 0.991828 0.306639 0.217627
H11   H     H_    0.034374 0.146105 0.319566 0.212283
H12   H     H_    0.347321 0.721369 0.359175 0.180124
H13   H     H_    0.997566 0.168549 0.507394 0.209673
H14   H     H_    0.945254 0.021448 0.504266 0.191760
H15   H     H_    0.539104 0.738713 0.226831 0.229281
H16   H     H_    0.679889 0.794246 0.271421 0.242013
H17   H     H_    0.550769 0.667725 0.316745 0.242572
H18   H     H_    0.821883 0.834596 0.385074 0.231206
H19   H     H_    0.779200 0.860467 0.522251 0.223809
H20   H     H_    0.666553 0.765226 0.449958 0.253323
H21   H     H_    0.676052 0.238153 0.675236 0.222833
H22   H     H_    0.595351 0.276027 0.609893 0.241500
H23   H     H_    0.814656 0.694547 0.680245 0.123851
H24   H     H_    0.519397 0.147146 0.670586 0.227133
H25   H     H_    0.434035 0.707930 0.699031 0.153724
H26   H     H_    0.632953 0.741982 0.727759 0.138374
H27   H     H_    0.671260 0.436117 0.438949 0.124975
H28   H     H_    0.187567 0.322814 0.311797 0.129397
H29   H     H_    0.532769 0.357389 0.348916 0.138720
H30   H     H_    0.366236 0.270156 0.254222 0.149295
N1    N     N_R   0.748810 0.563010 0.557590 -0.175865
N2    N     N_R   0.250540 0.437620 0.443020 -0.206123
O1    O     O_R   0.025040 0.682470 0.528790 -0.579568
O2    O     O_R   0.194310 0.640150 0.490130 -0.598921
O3    O     O_R   0.903380 0.524130 0.659910 -0.572870
O4    O     O_R   0.072660 0.481800 0.621240 -0.594885
O5    O     O_R   0.805690 0.359850 0.509870 -0.569421
O6    O     O_R   0.974960 0.317530 0.471210 -0.591706
O7    O     O_R   0.927340 0.518200 0.378760 -0.572651
O8    O     O_R   0.096620 0.475870 0.340090 -0.587252

loop_
_geom_bond_atom_site_label_1
_geom_bond_atom_site_label_2
_ccdc_geom_bond_type
C15   C18   A    
C12   C29   T    
Cu1   O7    S    
C41   C42   A    
C3    C23   A    
C2    C7    A    
C33   H8    S    
C9    C42   A    
C31   H14   S    
C28   C29   S    
C4    O4    A    
Cu2   O6    S    
C11   N2    A    
C38   C39   A    
C2    C41   A    
Cu1   O3    S    
C40   H5    S    
C37   H24   S    
C8    C23   A    
C1    O1    A    
C35   H15   S    
C18   C19   A    
Cu2   N2    S    
C16   O5    A    
C24   H23   S    
C16   C34   S    
C19   C20   A    
C37   H21   S    
C17   N2    A    
C4    C12   S    
C36   H19   S    
C32   H11   S    
C38   H4    S    
C13   C14   A    
C27   C30   S    
C33   H9    S    
C1    O2    A    
C22   N1    A    
C36   H18   S    
C32   H10   S    
Cu1   N1    S    
C28   H1    S    
C14   H29   S    
Cu2   O4    S    
C1    C9    S    
C4    O3    A    
C39   C40   A    
C11   H28   S    
C10   C24   A    
C25   C26   S    
C17   C21   A    
C35   H16   S    
Cu1   Cu2   S    
C25   O8    A    
C31   C32   S    
C10   C19   A    
C37   H22   S    
C16   O6    A    
C7    C37   S    
C35   H17   S    
C8    C34   A    
C13   H30   S    
C10   H26   S    
C40   C41   A    
C26   C30   T    
Cu1   O5    S    
C7    C34   A    
C20   H25   S    
C33   H7    S    
C3    C5    A    
C22   H27   S    
C21   H2    S    
C27   H3    S    
C15   C17   A    
C18   C22   A    
C8    C31   S    
C6    H12   S    
Cu2   O8    S    
C24   N1    A    
Cu1   O1    S    
C32   C33   S    
C31   H13   S    
Cu2   O2    S    
C2    C3    A    
C11   C13   A    
C5    C6    A    
C5    C35   S    
C9    C38   A    
C39   H6    S    
C20   C21   A    
C23   C36   S    
C6    C42   A    
C27   C28   D    
C25   O7    A    
C14   C15   A    
C36   H20   S    
