data_mof_unit_21752.cif
_audit_creation_date              2012-12-10T18:57:10-0500
_audit_creation_method            fapswitch 2.2
_symmetry_space_group_name_H-M    P1
_symmetry_Int_Tables_number       1
_space_group_crystal_system       triclinic
_cell_length_a                    8.787593
_cell_length_b                    10.828548
_cell_length_c                    9.570024
_cell_angle_alpha                 91.074685
_cell_angle_beta                  98.16323
_cell_angle_gamma                 90.881512
_cell_volume                      901.117979765

loop_
_atom_site_label
_atom_site_type_symbol
_atom_type_description
_atom_site_fract_x
_atom_site_fract_y
_atom_site_fract_z
_atom_type_partial_charge
C1    C     C_R   0.498183 0.262653 0.498700 0.807384
C2    C     C_R   0.416705 0.931865 0.384741 -0.194461
C3    C     C_R   0.494400 0.870943 0.501705 -0.070326
C4    C     C_R   0.561848 0.940720 0.619285 0.047556
C5    C     C_3   0.722550 0.940802 0.698242 -0.283982
C6    C     C_3   0.720050 0.082082 0.696512 -0.266148
C7    C     C_R   0.617330 0.554630 0.090121 0.242568
C8    C     C_R   0.395944 0.430492 0.058062 0.030853
C9    C     C_R   0.394376 0.432795 0.909302 -0.116342
C10   C     C_R   0.620152 0.551821 0.943788 0.282754
C11   C     C_3   0.681018 0.681752 0.949318 -0.124845
C12   C     C_R   0.204338 0.496130 0.463467 0.839158
C13   C     C_3   0.672697 0.684989 0.107555 -0.476233
C14   C     C_R   0.500755 0.737587 0.501004 0.803374
C15   C     C_R   0.795898 0.498426 0.535663 0.882431
C16   C     C_2   0.039637 0.483208 0.441603 -0.195916
C17   C     C_2   0.961793 0.500432 0.552216 -0.375122
C18   C     C_R   0.561022 0.068150 0.616861 0.065244
C19   C     C_R   0.493359 0.129533 0.497866 -0.075010
C20   C     C_R   0.416517 0.060803 0.382715 -0.184524
Cu1   Cu    Cu3+1 0.499990 0.499980 0.640670 0.956841
Cu2   Cu    Cu3+1 0.500010 0.500020 0.359330 0.973433
H1    H     H_    0.308132 0.379912 0.839903 0.155571
H2    H     H_    0.600187 0.745743 0.888924 0.184663
H3    H     H_    0.785749 0.693595 0.176266 0.215354
H4    H     H_    0.583327 0.748244 0.136724 0.193108
H5    H     H_    0.021705 0.521760 0.657456 0.168381
H6    H     H_    0.359366 0.106178 0.290702 0.177481
H7    H     H_    0.359181 0.879990 0.293969 0.157079
H8    H     H_    0.726905 0.906475 0.806622 0.153872
H9    H     H_    0.719883 0.125349 0.802750 0.156561
N1    N     N_R   0.500980 0.500930 0.148050 -0.216735
N2    N     N_R   0.500990 0.500890 0.852140 -0.211823
O1    O     O_R   0.500000 0.319640 0.618810 -0.583951
O2    O     O_R   0.500020 0.319680 0.381230 -0.579115
O3    O     O_R   0.274830 0.499980 0.591380 -0.583138
O4    O     O_R   0.274850 0.500020 0.353800 -0.586439
O5    O     O_R   0.499980 0.680320 0.618770 -0.585605
O6    O     O_R   0.500000 0.680360 0.381190 -0.590535
O7    O     O_R   0.725150 0.499980 0.646200 -0.586279
O8    O     O_R   0.725170 0.500020 0.408620 -0.568525
C21   C     C_1   0.968756 0.444635 0.300579 0.350682
N3    N     N_1   0.912900 0.413431 0.188403 -0.291070
C22   C     C_3   0.846585 0.688911 0.916306 -0.812982
H10   H     H_    0.847060 0.679882 0.800995 0.250149
H11   H     H_    0.900065 0.779347 0.953533 0.232260
H12   H     H_    0.917695 0.614486 0.969129 0.245746
C23   C     C_1   0.833938 0.880723 0.617822 0.284273
N4    N     N_1   0.920930 0.833545 0.554874 -0.303430
C24   C     C_1   0.830309 0.142675 0.615277 0.302420
N5    N     N_1   0.916697 0.189864 0.551655 -0.291308
C25   C     C_1   0.288295 0.349170 0.111516 0.298869
N6    N     N_1   0.201716 0.282265 0.152685 -0.304220

loop_
_geom_bond_atom_site_label_1
_geom_bond_atom_site_label_2
_ccdc_geom_bond_type
C8    C9    A    
C7    C10   A    
Cu1   O1    S    
C14   O5    A    
C8    C25   S    
C19   C20   A    
C22   H12   S    
C4    C18   A    
C15   O7    A    
C24   N5    T    
C8    N1    A    
C11   C22   S    
Cu1   O3    S    
Cu1   Cu2   S    
C6    C24   S    
C9    N2    A    
Cu2   O2    S    
C11   C13   S    
C13   H3    S    
C3    C14   S    
Cu2   N1    S    
C2    H7    S    
Cu2   O6    S    
C23   N4    T    
C22   H11   S    
C1    O1    A    
C2    C3    A    
C10   N2    A    
C5    C6    S    
C6    C18   S    
C5    C23   S    
C13   H4    S    
C1    C19   S    
Cu2   O8    S    
C12   O3    A    
C10   C11   S    
C2    C20   A    
C3    C4    A    
C17   H5    S    
C16   C21   S    
C11   H2    S    
C7    C13   S    
Cu1   N2    S    
C22   H10   S    
C15   O8    A    
C18   C19   A    
C21   N3    T    
C12   O4    A    
C15   C17   S    
C1    O2    A    
C4    C5    S    
C6    H9    S    
C7    N1    A    
C20   H6    S    
C14   O6    A    
Cu2   O4    S    
C9    H1    S    
Cu1   O5    S    
C12   C16   S    
C5    H8    S    
C25   N6    T    
C16   C17   D    
Cu1   O7    S    
