data_mof_unit_9557.cif
_audit_creation_date              2013-03-05T15:54:26-0500
_audit_creation_method            fapswitch 2.2
_symmetry_space_group_name_H-M    P1
_symmetry_Int_Tables_number       1
_space_group_crystal_system       triclinic
_cell_length_a                    15.717393
_cell_length_b                    10.72268
_cell_length_c                    9.902175
_cell_angle_alpha                 89.793918
_cell_angle_beta                  89.743596
_cell_angle_gamma                 91.763215
_cell_volume                      1668.02055036

loop_
_atom_site_label
_atom_site_type_symbol
_atom_site_description
_atom_site_fract_x
_atom_site_fract_y
_atom_site_fract_z
_atom_type_partial_charge
O1    O     O_R   0.500000 0.316780 0.614690 -0.652601
O2    O     O_R   0.499990 0.316750 0.385360 -0.636189
C1    C     C_R   0.505772 0.260082 0.501105 0.853090
O3    O     O_R   0.376780 0.500000 0.614650 -0.640199
O4    O     O_R   0.376770 0.499980 0.385310 -0.642485
C2    C     C_R   0.337971 0.499517 0.500246 0.869894
Zn1   Zn    Zn3+2 0.500010 0.500020 0.653130 0.939104
Zn2   Zn    Zn3+2 0.499990 0.499980 0.346870 1.004691
O5    O     O_R   0.500010 0.683250 0.614640 -0.625676
O6    O     O_R   0.500000 0.683220 0.385310 -0.591392
O7    O     O_R   0.623230 0.500020 0.614690 -0.617960
O8    O     O_R   0.623220 0.500000 0.385350 -0.550064
C3    C     C_R   0.491138 0.738948 0.500758 0.897525
C4    C     C_R   0.662031 0.500339 0.499759 0.923104
C5    C     C_3   0.969364 0.384605 0.536408 -0.237191
C6    C     C_3   0.026761 0.412873 0.411642 -0.242836
H1    H     H_    0.050352 0.343856 0.338209 0.160340
H2    H     H_    0.942202 0.291682 0.566133 0.172129
C7    C     C_1   0.248997 0.498989 0.500745 -0.181013
C8    C     C_1   0.751005 0.499807 0.499318 -0.113870
C9    C     C_3   0.027284 0.469990 0.625081 -0.108370
C10   C     C_3   0.082757 0.498523 0.500375 0.100574
C11   C     C_3   0.973494 0.584017 0.589175 -0.224100
C12   C     C_3   0.917227 0.498598 0.500706 0.071504
C13   C     C_3   0.030877 0.612800 0.464556 -0.242675
C14   C     C_3   0.973412 0.526651 0.378050 0.719463
C15   C     C_1   0.173652 0.498638 0.500735 -0.031385
C16   C     C_1   0.826335 0.499227 0.499645 0.029510
H3    H     H_    0.057777 0.705631 0.433945 0.160725
H4    H     H_    0.949694 0.653521 0.661879 0.178605
H5    H     H_    0.051747 0.446650 0.726787 0.159361
H6    H     H_    0.497513 0.111848 0.286653 0.220300
C17   C     C_R   0.536002 0.112318 0.754722 -0.260667
H7    H     H_    0.573959 0.197827 0.760200 0.198405
C18   C     C_R   0.516292 0.052273 0.876583 0.705377
C19   C     C_R   0.470496 0.939410 0.875967 -0.225530
H8    H     H_    0.451323 0.895176 0.970222 0.174399
C20   C     C_R   0.452035 0.881162 0.753517 -0.267250
H9    H     H_    0.415263 0.794315 0.757333 0.190965
C21   C     C_R   0.479168 0.936118 0.629414 0.103516
C22   C     C_R   0.509007 0.060121 0.629831 0.012306
C23   C     C_R   0.509222 0.126177 0.505089 -0.096615
C24   C     C_R   0.497304 0.063326 0.382852 -0.178163
H10   H     H_    0.481446 0.889187 0.286247 0.212184
C25   C     C_R   0.485417 0.936452 0.382522 -0.162643
C26   C     C_R   0.479881 0.871634 0.504655 -0.130309
C27   C     C_R   0.389711 0.334059 0.141429 -0.097178
H11   H     H_    0.384984 0.329382 0.248504 0.190931
C28   C     C_R   0.336192 0.251352 0.071720 -0.167537
H12   H     H_    0.294137 0.187190 0.126670 0.142770
C29   C     C_R   0.336138 0.251572 0.931968 -0.182948
H13   H     H_    0.294138 0.187487 0.877916 0.146532
C30   C     C_R   0.389666 0.334421 0.861127 -0.124843
H14   H     H_    0.385159 0.330004 0.754094 0.199799
C31   C     C_R   0.445730 0.418216 0.928355 0.162021
C32   C     C_R   0.445717 0.418205 0.073005 0.120188
N1    N     N_R   0.499210 0.498800 0.142780 -0.183147
C33   C     C_R   0.552104 0.578583 0.070134 0.336488
H15   H     H_    0.593628 0.642319 0.871729 0.188187
C34   C     C_R   0.551507 0.578550 0.927005 -0.170020
N2    N     N_R   0.499180 0.498720 0.857170 -0.149778
N3    N     N_R   0.609632 0.662284 0.137885 0.226981
O9    O     O_R   0.686210 0.626388 0.163343 -0.333590
O10   O     O_R   0.595450 0.781101 0.135117 -0.402561
F1    F     F_    0.943259 0.555756 0.251205 -0.636006
F2    F     F_    0.539497 0.105600 0.995360 -0.664179

loop_
_geom_bond_atom_site_label_1
_geom_bond_atom_site_label_2
_geom_bond_distance
_ccdc_geom_bond_type
C33   N3    1.425818 S    
C5    H2    1.110077 S    
Zn1   O7    1.972076 S    
C11   C12   1.533409 S    
C1    C23   1.438919 S    
C21   C22   1.396292 A    
N3    O9    1.300339 A    
C29   H13   1.082755 S    
Zn2   N1    2.021109 S    
O4    Zn2   1.972075 S    
C9    H5    1.110097 S    
C22   C23   1.421606 A    
C30   C31   1.409893 A    
N3    O10   1.300340 A    
C18   C19   1.388963 A    
Zn2   O8    1.975647 S    
C17   C22   1.420472 A    
C31   C32   1.432344 A    
C19   C20   1.393533 A    
O2    C1    1.300154 A    
H15   C34   1.082421 S    
C27   C28   1.390770 A    
O1    Zn1   2.002693 S    
C30   H14   1.063670 S    
H10   C25   1.082428 S    
C20   C21   1.419123 A    
C2    C7    1.398254 S    
C24   C25   1.367501 A    
C13   H3    1.110068 S    
N1    C33   1.373659 A    
O4    C2    1.288711 A    
C34   N2    1.361383 A    
O3    Zn1   1.975646 S    
C31   N2    1.376033 A    
O3    C2    1.288988 A    
C5    C12   1.533505 S    
C17   C18   1.394771 A    
H6    C24   1.083710 S    
C12   C14   1.522132 S    
C17   H7    1.080057 S    
C10   C15   1.428614 S    
C11   C13   1.549711 S    
C9    C11   1.548962 S    
C6    C14   1.537761 S    
C20   H9    1.081243 S    
O7    C4    1.288706 A    
O2    Zn2   1.999997 S    
C25   C26   1.393749 A    
C23   C24   1.398031 A    
C21   C26   1.418060 A    
C33   C34   1.417360 A    
C5    C6    1.550025 S    
C27   C32   1.410458 A    
C11   H4    1.110060 S    
C4    C8    1.398614 S    
C5    C9    1.549074 S    
C7    C15   1.184114 T    
C32   N1    1.376917 A    
C12   C16   1.428892 S    
Zn2   O6    2.002693 S    
C28   H12   1.082781 S    
C28   C29   1.383854 A    
Zn1   O5    1.999996 S    
O5    C3    1.284318 A    
C3    C26   1.439729 S    
C19   H8    1.082770 S    
C6    C10   1.533972 S    
C8    C16   1.184215 T    
C18   F2    1.356153 S    
C29   C30   1.390432 A    
C13   C14   1.537565 S    
C9    C10   1.532949 S    
C14   F1    1.382481 S    
O6    C3    1.300757 A    
Zn1   N2    2.020420 S    
C27   H11   1.063441 S    
O8    C4    1.289057 A    
C6    H1    1.110057 S    
O1    C1    1.284635 A    
C10   C13   1.534009 S    
