data_mof_unit_36254.cif
_audit_creation_date              2012-12-10T20:39:54-0500
_audit_creation_method            fapswitch 2.2
_symmetry_space_group_name_H-M    P1
_symmetry_Int_Tables_number       1
_space_group_crystal_system       triclinic
_cell_length_a                    23.298182
_cell_length_b                    10.680962
_cell_length_c                    9.865277
_cell_angle_alpha                 90.294276
_cell_angle_beta                  89.371952
_cell_angle_gamma                 90.36828
_cell_volume                      2454.7148569

loop_
_atom_site_label
_atom_site_type_symbol
_atom_type_description
_atom_site_fract_x
_atom_site_fract_y
_atom_site_fract_z
_atom_type_partial_charge
C1    C     C_R   0.502601 0.259956 0.499466 0.885700
C2    C     C_R   0.967687 0.343303 0.711677 -0.222040
C3    C     C_R   0.027559 0.343314 0.715983 0.113638
C4    C     C_R   0.059782 0.385768 0.602472 -0.023458
C5    C     C_R   0.030747 0.425189 0.484761 -0.060295
C6    C     C_R   0.062060 0.465140 0.369756 -0.026701
C7    C     C_R   0.033310 0.502762 0.253102 -0.222241
C8    C     C_R   0.973482 0.506483 0.250463 0.115335
C9    C     C_R   0.120121 0.392991 0.602457 0.547610
C10   C     C_R   0.121820 0.468679 0.374794 0.528603
C11   C     C_R   0.233123 0.569296 0.514012 -0.126711
C12   C     C_R   0.389660 0.498713 0.500683 0.862238
C13   C     C_R   0.292204 0.586569 0.516984 0.041437
C14   C     C_R   0.328135 0.482092 0.501729 -0.130086
C15   C     C_R   0.304904 0.360550 0.485827 -0.006804
C16   C     C_R   0.245304 0.344767 0.482156 0.169105
C17   C     C_R   0.209854 0.449509 0.495961 0.232534
C18   C     C_R   0.765507 0.538242 0.588072 0.160860
C19   C     C_R   0.705921 0.551145 0.591092 -0.272891
C20   C     C_R   0.672428 0.486766 0.496517 -0.044092
C21   C     C_R   0.698024 0.407488 0.400383 -0.219352
C22   C     C_R   0.756984 0.391150 0.399813 -0.142292
C23   C     C_R   0.501903 0.739952 0.500428 0.885735
C24   C     C_R   0.790958 0.456621 0.492732 0.312216
C25   C     C_R   0.507401 0.064643 0.621753 0.081846
C26   C     C_R   0.512716 0.128483 0.499437 -0.124588
C27   C     C_R   0.529637 0.062854 0.380964 0.084909
C28   C     C_R   0.528817 0.932794 0.383311 -0.268691
C29   C     C_R   0.511867 0.871012 0.502248 -0.168086
C30   C     C_R   0.507573 0.936993 0.623821 0.157578
C31   C     C_3   0.462727 0.931498 0.733774 -0.110983
C32   C     C_3   0.462551 0.073603 0.730844 -0.481405
C33   C     C_R   0.459580 0.433015 0.072232 0.128361
C34   C     C_R   0.610582 0.498935 0.499167 0.878590
C35   C     C_R   0.542127 0.559666 0.071064 0.147184
C36   C     C_R   0.542273 0.558397 0.926849 -0.193821
C37   C     C_R   0.459573 0.432581 0.929252 0.114240
C38   C     C_3   0.395753 0.451725 0.925757 -0.158716
C39   C     C_3   0.396257 0.453267 0.080660 -0.105085
C40   C     C_R   0.881202 0.480735 0.373836 0.515595
C41   C     C_R   0.879148 0.391976 0.595777 0.544862
C42   C     C_R   0.938948 0.386434 0.597233 -0.025598
C43   C     C_R   0.970317 0.427001 0.482652 -0.059836
C44   C     C_R   0.941351 0.471190 0.366993 -0.013220
H1    H     H_    0.943832 0.311493 0.800082 0.188290
H2    H     H_    0.686014 0.613067 0.664958 0.146751
H3    H     H_    0.776502 0.328256 0.326494 0.158681
H4    H     H_    0.537957 0.881416 0.290622 0.174880
H5    H     H_    0.421499 0.111958 0.693685 0.168270
H6    H     H_    0.383212 0.543136 0.881472 0.163489
N1    N     N_R   0.851874 0.442230 0.487212 -0.354718
N2    N     N_R   0.149129 0.435188 0.490468 -0.346744
N3    N     N_R   0.499610 0.499140 0.142800 -0.112382
N4    N     N_R   0.499610 0.499180 0.857150 -0.118493
O1    O     O_R   0.500010 0.316790 0.614690 -0.615404
O2    O     O_2   0.848283 0.348460 0.702379 -0.557573
O3    O     O_2   0.149922 0.360348 0.713172 -0.520823
O4    O     O_2   0.152665 0.506612 0.265654 -0.553047
O5    O     O_R   0.500000 0.316760 0.385350 -0.590086
O6    O     O_R   0.416160 0.499980 0.614700 -0.634192
O7    O     O_R   0.416150 0.499940 0.385360 -0.603329
O8    O     O_R   0.500000 0.683240 0.614650 -0.629748
O9    O     O_R   0.499990 0.683210 0.385310 -0.608981
O10   O     O_R   0.583850 0.500060 0.614640 -0.616816
O11   O     O_R   0.583840 0.500020 0.385300 -0.595076
O12   O     O_2   0.851997 0.530404 0.269934 -0.529663
Zn1   Zn    Zn3+2 0.500000 0.500020 0.653130 0.933492
Zn2   Zn    Zn3+2 0.500000 0.499980 0.346870 0.971251
H7    H     H_    0.672252 0.356291 0.327722 0.162542
N5    N     N_3   0.544524 0.126240 0.257613 -0.424039
H8    H     H_    0.516256 0.096339 0.182262 0.182935
H9    H     H_    0.585914 0.098935 0.228670 0.182813
H10   H     H_    0.421651 0.886253 0.702932 0.145007
N6    N     N_3   0.485832 0.883534 0.860186 -0.442137
H11   H     H_    0.487250 0.786088 0.852355 0.210117
H12   H     H_    0.456079 0.903284 0.937370 0.182470
H13   H     H_    0.479329 0.119180 0.824141 0.213352
N7    N     N_3   0.585283 0.628491 0.141835 -0.391348
H14   H     H_    0.625271 0.592838 0.112718 0.180685
H15   H     H_    0.583598 0.721658 0.110214 0.156373
N8    N     N_3   0.054908 0.300756 0.836636 -0.369581
H16   H     H_    0.040845 0.356449 0.917771 0.180749
H17   H     H_    0.041416 0.208783 0.855044 0.190042
H18   H     H_    0.575485 0.608270 0.871318 0.156582
N9    N     N_3   0.364046 0.345028 0.868595 -0.428560
H19   H     H_    0.389788 0.265260 0.864510 0.182751
H20   H     H_    0.352984 0.366464 0.769314 0.219878
H21   H     H_    0.384581 0.545401 0.125874 0.165683
N10   N     N_3   0.366295 0.348586 0.146548 -0.422549
H22   H     H_    0.381276 0.262624 0.109680 0.195927
H23   H     H_    0.322578 0.354848 0.124934 0.231960
H24   H     H_    0.057129 0.531533 0.163422 0.191169
N11   N     N_3   0.946064 0.545933 0.128630 -0.370803
H25   H     H_    0.958877 0.486099 0.049857 0.176888
H26   H     H_    0.960731 0.636121 0.105414 0.194010
H27   H     H_    0.204952 0.649119 0.524955 0.160579
N12   N     N_3   0.314842 0.710618 0.534631 -0.453580
H28   H     H_    0.341236 0.731540 0.451270 0.182457
H29   H     H_    0.340158 0.711753 0.621501 0.179541
N13   N     N_3   0.341021 0.252422 0.475827 -0.475509
H30   H     H_    0.365853 0.248258 0.563061 0.167128
H31   H     H_    0.368840 0.262905 0.392998 0.217712
N14   N     N_3   0.220140 0.223162 0.463639 -0.431266
H32   H     H_    0.233662 0.165709 0.542457 0.216111
H33   H     H_    0.235726 0.185879 0.372308 0.201456
N15   N     N_3   0.800360 0.609176 0.679623 -0.435956
H34   H     H_    0.787353 0.587337 0.778531 0.216267
H35   H     H_    0.792214 0.704141 0.664068 0.182930

loop_
_geom_bond_atom_site_label_1
_geom_bond_atom_site_label_2
_ccdc_geom_bond_type
C11   H27   S    
C4    C9    A    
N11   H25   S    
C35   N3    A    
C41   C42   A    
C19   C20   A    
C15   N13   S    
C10   N2    A    
N12   H28   S    
C19   H2    S    
C7    C8    A    
N9    H19   S    
C26   C27   A    
C33   C39   S    
N6    H12   S    
O8    Zn1   S    
C18   C24   A    
C23   C29   S    
C28   C29   A    
C10   O4    S    
C37   C38   S    
C2    C42   A    
C1    O5    A    
C30   C31   S    
N7    H15   S    
C31   H10   S    
N15   H34   S    
C15   C16   A    
C34   O11   A    
C18   C19   A    
N3    Zn2   S    
N8    H17   S    
C32   H13   S    
C23   O8    A    
C28   H4    S    
C35   C36   A    
O6    Zn1   S    
C16   C17   A    
C3    N8    S    
N5    H8    S    
N10   H23   S    
C20   C34   S    
C24   N1    S    
C23   O9    A    
C22   H3    S    
C5    C43   A    
N11   H26   S    
C40   O12   S    
C21   C22   A    
C9    N2    A    
C39   H21   S    
C17   N2    S    
N13   H31   S    
N12   H29   S    
N8    H16   S    
N9    H20   S    
C2    H1    S    
C33   N3    A    
C38   C39   S    
N6    H11   S    
C38   N9    S    
O10   Zn1   S    
N7    H14   S    
C31   N6    S    
N4    Zn1   S    
C25   C26   A    
C33   C37   A    
C21   H7    S    
C43   C44   A    
C18   N15   S    
C41   O2    S    
C29   C30   A    
O5    Zn2   S    
C16   N14   S    
C31   C32   S    
O11   Zn2   S    
C34   O10   A    
N14   H33   S    
C27   N5    S    
C37   N4    A    
C12   C14   S    
C1    C26   S    
C22   C24   A    
C42   C43   A    
C3    C4    A    
N14   H32   S    
C25   C30   A    
O9    Zn2   S    
C11   C17   A    
C8    N11   S    
C8    C44   A    
C4    C5    A    
C6    C10   A    
O1    Zn1   S    
C6    C7    A    
C38   H6    S    
C40   N1    A    
C35   N7    S    
C2    C3    A    
C1    O1    A    
C12   O7    A    
C11   C13   A    
O7    Zn2   S    
C5    C6    A    
N15   H35   S    
C36   H18   S    
C7    H24   S    
N13   H30   S    
C41   N1    A    
C9    O3    S    
C13   N12   S    
C32   H5    S    
C36   N4    A    
C12   O6    A    
C40   C44   A    
C20   C21   A    
C27   C28   A    
C14   C15   A    
N5    H9    S    
N10   H22   S    
C13   C14   A    
C39   N10   S    
C25   C32   S    
