data_mof_unit_48832.cif
_audit_creation_date              2013-03-05T16:02:00-0500
_audit_creation_method            fapswitch 2.2
_symmetry_space_group_name_H-M    P1
_symmetry_Int_Tables_number       1
_space_group_crystal_system       triclinic
_cell_length_a                    14.949413
_cell_length_b                    14.177122
_cell_length_c                    14.105606
_cell_angle_alpha                 89.713644
_cell_angle_beta                  88.850916
_cell_angle_gamma                 90.693005
_cell_volume                      2988.67633779

loop_
_atom_site_label
_atom_site_type_symbol
_atom_site_description
_atom_site_fract_x
_atom_site_fract_y
_atom_site_fract_z
_atom_type_partial_charge
O1    O     O_R   0.367850 0.580280 0.500020 -0.583101
O2    O     O_R   0.632150 0.419720 0.499980 -0.585654
O3    O     O_R   0.632150 0.580280 0.499980 -0.584370
O4    O     O_R   0.367850 0.419720 0.500020 -0.578145
C1    C     C_R   0.326991 0.499698 0.498003 0.875974
C2    C     C_R   0.672646 0.499960 0.503571 0.882310
O5    O     O_R   0.500000 0.580290 0.373720 -0.559645
O6    O     O_R   0.500000 0.419710 0.626280 -0.589458
O7    O     O_R   0.500000 0.580290 0.626280 -0.551462
O8    O     O_R   0.500000 0.419710 0.373720 -0.572865
C3    C     C_R   0.500375 0.500168 0.329337 0.904505
C4    C     C_R   0.499347 0.499830 0.670662 0.905052
Zn1   Zn    Zn3+2 0.500000 0.607200 0.500000 1.060987
Zn2   Zn    Zn3+2 0.500000 0.392800 0.500000 1.037398
C5    C     C_1   0.500046 0.500335 0.227862 -0.115303
C6    C     C_1   0.497645 0.499684 0.772141 -0.084137
C7    C     C_1   0.499242 0.500244 0.142550 0.012699
C8    C     C_1   0.496758 0.499915 0.857488 0.019505
C9    C     C_1   0.497973 0.500118 0.042688 0.018898
C10   C     C_1   0.497064 0.500038 0.957379 0.006322
C11   C     C_R   0.813377 0.535501 0.426960 -0.119143
C12   C     C_R   0.185622 0.438453 0.555404 -0.099057
C13   C     C_R   0.768142 0.497135 0.504645 -0.106040
C14   C     C_R   0.231088 0.498233 0.492902 -0.118656
C15   C     C_R   0.812124 0.445983 0.575168 -0.005515
C16   C     C_R   0.185887 0.553445 0.426513 -0.056420
C17   C     C_R   0.905601 0.433707 0.565657 -0.045318
C18   C     C_R   0.092521 0.540626 0.418038 -0.060165
C19   C     C_R   0.952400 0.482325 0.490739 -0.014543
C20   C     C_R   0.046009 0.485217 0.488198 -0.010202
C21   C     C_R   0.905492 0.529135 0.418828 -0.035765
C22   C     C_R   0.093152 0.434225 0.557086 -0.050167
C23   C     C_R   0.954221 0.375791 0.628340 0.209713
C24   C     C_R   0.044432 0.578519 0.341062 0.203295
C25   C     C_R   0.047592 0.377203 0.624475 0.230142
C26   C     C_R   0.951067 0.569226 0.339973 0.207839
H1    H     H_    0.775683 0.571743 0.373447 0.221273
H2    H     H_    0.223602 0.398550 0.605923 0.237205
C27   C     C_R   0.545244 0.798703 0.429372 0.323321
C28   C     C_R   0.440218 0.200561 0.556359 0.317587
C29   C     C_R   0.453919 0.797335 0.569409 0.327293
C30   C     C_R   0.559251 0.202756 0.442872 0.306224
N1    N     N_R   0.500000 0.750030 0.500000 -0.195498
N2    N     N_R   0.500000 0.249970 0.500000 -0.209890
C31   C     C_R   0.447240 0.898089 0.567211 -0.133482
C32   C     C_R   0.552436 0.102607 0.432717 -0.107297
C33   C     C_R   0.549409 0.900012 0.428607 -0.129450
C34   C     C_R   0.445657 0.100269 0.565028 -0.118243
C35   C     C_R   0.498455 0.949498 0.498038 0.022120
C36   C     C_R   0.498806 0.050536 0.498535 0.020750
C37   C     C_R   0.393518 0.949173 0.633841 -0.036454
C38   C     C_R   0.597977 0.053722 0.359328 -0.028837
C39   C     C_R   0.600410 0.953811 0.359781 -0.048034
C40   C     C_R   0.397834 0.048927 0.636593 -0.017303
C41   C     C_R   0.762148 0.419649 0.664079 0.055156
C42   C     C_R   0.708407 0.337612 0.669451 -0.000979
C43   C     C_R   0.665820 0.311539 0.754893 -0.121398
C44   C     C_R   0.676590 0.366923 0.835579 -0.115474
C45   C     C_R   0.728676 0.449415 0.830516 -0.073423
C46   C     C_R   0.771207 0.475892 0.745078 -0.144878
H3    H     H_    0.701407 0.292549 0.608449 0.190921
H4    H     H_    0.625127 0.247949 0.758725 0.126749
H5    H     H_    0.643985 0.346327 0.901834 0.126179
H6    H     H_    0.736376 0.492629 0.892927 0.157951
H7    H     H_    0.812264 0.539353 0.742265 0.143962
C47   C     C_R   0.235293 0.630435 0.375644 0.147806
C48   C     C_R   0.290392 0.611245 0.296471 -0.097229
C49   C     C_R   0.338516 0.684414 0.251324 -0.036668
C50   C     C_R   0.333938 0.776317 0.286496 -0.065419
C51   C     C_R   0.280602 0.795445 0.366419 -0.151935
C52   C     C_R   0.231002 0.722889 0.410674 -0.054328
H8    H     H_    0.295442 0.540020 0.269672 0.124098
H9    H     H_    0.380026 0.669781 0.189549 0.150283
H10   H     H_    0.372116 0.832612 0.252126 0.136521
H11   H     H_    0.277775 0.866442 0.394106 0.132767
H12   H     H_    0.190079 0.738288 0.472786 0.125223
N3    N     N_R   0.910389 0.309495 0.691243 0.229442
O9    O     O_R   0.920117 0.316945 0.782379 -0.337458
O10   O     O_R   0.877828 0.231574 0.656991 -0.354778
N4    N     N_R   0.089882 0.614483 0.257890 0.231446
O11   O     O_R   0.095834 0.705038 0.243089 -0.362388
O12   O     O_R   0.114611 0.556698 0.191258 -0.355366
N5    N     N_R   0.095780 0.318140 0.688133 0.238950
O13   O     O_R   0.138904 0.355308 0.758212 -0.363338
O14   O     O_R   0.089481 0.226825 0.681293 -0.344296
N6    N     N_R   0.903191 0.594146 0.256023 0.230813
O15   O     O_R   0.917910 0.674524 0.213505 -0.357699
O16   O     O_R   0.849994 0.532737 0.217308 -0.352060
N7    N     N_R   0.585311 0.745838 0.354302 0.232869
O17   O     O_R   0.663624 0.708834 0.364507 -0.393290
O18   O     O_R   0.544445 0.736616 0.274278 -0.438819
N8    N     N_R   0.364395 0.248599 0.595082 0.226169
O19   O     O_R   0.371712 0.301162 0.669818 -0.381270
O20   O     O_R   0.285422 0.230067 0.562294 -0.399088
N9    N     N_R   0.421350 0.744905 0.649883 0.227179
O21   O     O_R   0.347538 0.695773 0.645799 -0.384497
O22   O     O_R   0.467054 0.744717 0.727428 -0.415244
N10   N     N_R   0.634644 0.253211 0.402891 0.226725
O23   O     O_R   0.626318 0.306026 0.328100 -0.364048
O24   O     O_R   0.714234 0.236563 0.434116 -0.411325
C53   C     C_R   0.324861 0.901448 0.695404 0.129912
C54   C     C_R   0.338262 0.889696 0.793096 -0.066610
C55   C     C_R   0.271607 0.847553 0.850511 -0.109827
C56   C     C_R   0.191088 0.817708 0.811062 -0.074366
C57   C     C_R   0.176898 0.830326 0.714185 -0.094882
C58   C     C_R   0.243328 0.872503 0.656502 -0.124943
H13   H     H_    0.400244 0.913009 0.824373 0.138573
H14   H     H_    0.282297 0.838194 0.925615 0.143123
H15   H     H_    0.139564 0.785094 0.855627 0.151622
H16   H     H_    0.114377 0.807575 0.683809 0.136830
H17   H     H_    0.231463 0.882658 0.581684 0.121909
C59   C     C_R   0.631802 0.105205 0.273174 0.128786
C60   C     C_R   0.724036 0.117786 0.255176 -0.048050
C61   C     C_R   0.754316 0.163954 0.172568 -0.082862
C62   C     C_R   0.692974 0.197545 0.107334 -0.079169
C63   C     C_R   0.601202 0.184889 0.124503 -0.117927
C64   C     C_R   0.570598 0.138675 0.206974 -0.135569
H18   H     H_    0.772172 0.092425 0.305335 0.147505
H19   H     H_    0.825360 0.173742 0.159147 0.150792
H20   H     H_    0.716546 0.233325 0.043459 0.142560
H21   H     H_    0.553796 0.210820 0.073863 0.118882
H22   H     H_    0.499354 0.128789 0.219337 0.125549
C65   C     C_R   0.662530 0.909945 0.290035 0.152977
C66   C     C_R   0.637782 0.898852 0.195084 -0.063272
C67   C     C_R   0.700056 0.867090 0.127643 -0.130179
C68   C     C_R   0.787725 0.848409 0.154051 -0.040108
C69   C     C_R   0.813155 0.861143 0.248021 -0.064937
C70   C     C_R   0.750814 0.891568 0.315934 -0.139452
H23   H     H_    0.570637 0.915563 0.173548 0.125577
H24   H     H_    0.680696 0.858195 0.054681 0.142008
H25   H     H_    0.836160 0.824902 0.101520 0.168011
H26   H     H_    0.881440 0.848524 0.268168 0.178968
H27   H     H_    0.771593 0.902812 0.388167 0.145659
C71   C     C_R   0.364405 0.097368 0.723512 0.109776
C72   C     C_R   0.272308 0.105734 0.743228 -0.031786
C73   C     C_R   0.242756 0.148990 0.826859 -0.031903
C74   C     C_R   0.304664 0.184615 0.890877 -0.091550
C75   C     C_R   0.396321 0.176464 0.871786 -0.120742
C76   C     C_R   0.426190 0.132593 0.788675 -0.139185
H28   H     H_    0.223761 0.078721 0.693980 0.167931
H29   H     H_    0.171832 0.154933 0.842116 0.186190
H30   H     H_    0.281604 0.218354 0.955382 0.146920
H31   H     H_    0.444226 0.203903 0.921478 0.121054
H32   H     H_    0.497355 0.125896 0.774969 0.120897

loop_
_geom_bond_atom_site_label_1
_geom_bond_atom_site_label_2
_geom_bond_distance
_ccdc_geom_bond_type
C41   C42   1.406389 A    
C68   C69   1.398223 A    
C17   C19   1.425727 A    
N9    O21   1.300162 A    
C57   H16   1.082289 S    
O3    C2    1.297332 A    
C61   C62   1.398015 A    
C65   C70   1.403530 A    
C72   C73   1.398483 A    
C33   C35   1.421787 A    
C29   N9    1.427844 S    
N3    O9    1.301289 A    
C17   C23   1.420282 A    
C34   C40   1.418130 A    
C11   C21   1.383609 A    
C45   H6    1.082289 S    
C53   C54   1.405840 A    
C12   C22   1.382670 A    
C31   C37   1.429482 A    
O1    C1    1.289647 A    
C27   C33   1.436849 A    
C14   C16   1.406096 A    
C75   H31   1.082423 S    
C30   N10   1.432127 S    
C56   H15   1.082260 S    
N6    O16   1.301544 A    
C38   C59   1.490925 S    
C62   C63   1.397613 A    
C40   C71   1.488846 S    
C32   C38   1.416246 A    
C44   H5    1.082502 S    
C42   C43   1.397699 A    
C5    C7    1.203694 T    
C48   H8    1.082939 S    
C30   C32   1.430364 A    
O7    Zn1   1.819788 S    
C69   H26   1.081852 S    
C56   C57   1.398012 A    
C24   N4    1.432360 S    
C3    C5    1.431465 S    
C67   H24   1.082227 S    
C4    C6    1.431129 S    
C49   C50   1.398448 A    
C55   H14   1.082276 S    
N7    O18   1.300639 A    
C28   N2    1.368280 A    
C24   C26   1.400776 A    
C61   H19   1.082216 S    
O3    Zn1   2.016612 S    
C33   C39   1.433319 A    
C34   C36   1.413648 A    
C47   C48   1.404017 A    
C18   C24   1.420982 A    
C45   C46   1.398766 A    
C41   C46   1.404357 A    
C29   N1    1.368785 A    
O2    C2    1.283855 A    
C30   N2    1.368610 A    
C59   C60   1.406081 A    
C58   H17   1.082851 S    
N3    O10   1.300957 A    
C72   H28   1.082639 S    
C62   H20   1.082440 S    
C74   H30   1.082265 S    
C63   H21   1.082402 S    
C48   C49   1.398613 A    
C16   C47   1.484312 S    
C22   C25   1.404992 A    
C65   C66   1.405703 A    
N4    O12   1.300861 A    
C39   C65   1.483407 S    
C71   C76   1.405297 A    
C25   N5    1.435072 S    
N6    O15   1.299401 A    
O4    C1    1.294859 A    
C27   N1    1.371477 A    
C26   N6    1.440576 S    
C49   H9    1.081973 S    
O5    C3    1.299745 A    
C64   H22   1.083098 S    
C47   C52   1.404815 A    
C19   C20   1.399248 A    
C76   H32   1.082865 S    
N5    O13   1.301133 A    
C31   C35   1.420866 A    
O6    C4    1.299745 A    
N8    O20   1.300900 A    
C50   H10   1.082485 S    
C28   N8    1.429888 S    
C51   C52   1.397908 A    
N5    O14   1.301076 A    
C46   H7    1.083072 S    
C35   C36   1.432417 A    
N10   O24   1.300836 A    
O8    C3    1.298328 A    
C11   C13   1.381786 A    
O8    Zn2   1.819789 S    
C67   C68   1.397696 A    
C12   C14   1.382782 A    
O1    Zn1   2.007548 S    
C43   H4    1.081967 S    
C7    C9    1.409132 S    
C69   C70   1.396532 A    
C54   H13   1.082999 S    
C52   H12   1.083138 S    
Zn1   N1    2.024918 S    
C38   C39   1.417340 A    
Zn2   N2    2.024920 S    
C60   C61   1.398261 A    
C57   C58   1.397915 A    
C53   C58   1.404324 A    
C28   C34   1.429920 A    
O6    Zn2   1.823516 S    
C63   C64   1.398441 A    
C42   H3    1.080281 S    
C15   C41   1.490446 S    
N4    O11   1.301339 A    
N9    O22   1.301261 A    
C71   C72   1.405673 A    
C37   C53   1.485571 S    
C74   C75   1.397382 A    
C32   C36   1.413729 A    
C16   C18   1.412882 A    
C37   C40   1.415689 A    
C9    C10   1.203693 T    
C18   C20   1.425264 A    
C44   C45   1.397874 A    
C19   C21   1.412128 A    
C70   H27   1.083125 S    
C20   C22   1.412901 A    
C23   N3    1.433006 S    
C43   C44   1.396780 A    
C59   C64   1.405211 A    
C1    C14   1.436837 S    
C68   H25   1.082224 S    
C2    C13   1.429030 S    
N8    O19   1.299652 A    
C23   C25   1.395699 A    
C73   H29   1.082025 S    
C66   H23   1.083170 S    
C8    C10   1.409125 S    
C13   C15   1.406543 A    
O4    Zn2   2.016613 S    
C54   C55   1.397920 A    
O2    Zn2   2.007547 S    
O7    C4    1.298285 A    
C50   C51   1.397311 A    
C75   C76   1.397706 A    
C60   H18   1.082508 S    
O5    Zn1   1.823518 S    
C11   H1    1.082360 S    
C51   H11   1.082450 S    
C6    C8    1.203704 T    
N10   O23   1.299510 A    
C55   C56   1.398037 A    
C29   C31   1.433316 A    
C21   C26   1.406541 A    
C73   C74   1.397790 A    
N7    O17   1.299005 A    
C27   N7    1.426587 S    
C66   C67   1.397611 A    
C15   C17   1.414098 A    
C12   H2    1.081746 S    
