data_mof_unit_7709.cif
_audit_creation_date              2012-12-10T17:01:38-0500
_audit_creation_method            fapswitch 2.2
_symmetry_space_group_name_H-M    P1
_symmetry_Int_Tables_number       1
_space_group_crystal_system       triclinic
_cell_length_a                    9.940645
_cell_length_b                    10.896216
_cell_length_c                    12.91566
_cell_angle_alpha                 87.958988
_cell_angle_beta                  76.331011
_cell_angle_gamma                 110.392139
_cell_volume                      1263.42122997

loop_
_atom_site_label
_atom_site_type_symbol
_atom_type_description
_atom_site_fract_x
_atom_site_fract_y
_atom_site_fract_z
_atom_type_partial_charge
C1    C     C_R   0.440694 0.253204 0.510377 0.777202
C2    C     C_R   0.558110 0.745991 0.499260 0.741899
C3    C     C_2   0.089510 0.524098 0.493808 0.206180
C4    C     C_2   0.933688 0.527610 0.523983 0.142783
C5    C     C_R   0.472814 0.489264 0.702431 0.951230
C6    C     C_R   0.527698 0.512471 0.298161 0.846401
C7    C     C_R   0.542974 0.538634 0.184548 -0.300183
C8    C     C_R   0.459074 0.469364 0.817223 -0.203745
C9    C     C_R   0.441172 0.328791 0.974451 0.455162
C10   C     C_R   0.530165 0.675831 0.037816 0.523516
C11   C     C_R   0.426484 0.342190 0.869868 -0.167070
C12   C     C_R   0.553409 0.662881 0.140450 -0.225996
C13   C     C_R   0.500598 0.581392 0.870013 0.437856
C14   C     C_R   0.519706 0.431212 0.126680 0.460008
C15   C     C_R   0.506797 0.567222 0.977758 -0.220548
C16   C     C_R   0.490539 0.441833 0.026073 -0.161089
C17   C     C_2   0.412301 0.110308 0.521394 0.258064
C18   C     C_2   0.582850 0.886642 0.509341 0.336027
C19   C     C_2   0.494693 0.062107 0.569910 -0.086119
C20   C     C_2   0.473829 0.921617 0.571874 0.008104
Cu1   Cu    Cu3+1 0.647370 0.522180 0.481340 0.968335
Cu2   Cu    Cu3+1 0.352630 0.477820 0.518660 1.030304
N1    N     N_2   0.131210 0.444490 0.546730 -0.046336
N2    N     N_2   0.868790 0.555510 0.453270 -0.031060
O1    O     O_R   0.578710 0.332530 0.490040 -0.602151
O2    O     O_R   0.421290 0.667470 0.509960 -0.548731
O3    O     O_R   0.329810 0.295070 0.521560 -0.577355
O4    O     O_R   0.670190 0.704930 0.478440 -0.615194
O5    O     O_R   0.604230 0.515670 0.637800 -0.659257
O6    O     O_R   0.395770 0.484330 0.362200 -0.629472
O7    O     O_R   0.355330 0.478200 0.669330 -0.483432
O8    O     O_R   0.644670 0.521800 0.330670 -0.551386
O9    O     O_3   0.516553 0.313289 0.173066 -0.579808
C21   C     C_3   0.661343 0.310699 0.141287 -0.194028
H1    H     H_    0.741979 0.392143 0.170171 0.164895
H2    H     H_    0.699999 0.315456 0.052483 0.178005
H3    H     H_    0.659275 0.216132 0.177759 0.204947
O10   O     O_3   0.530299 0.704173 0.816153 -0.535546
C22   C     C_3   0.685687 0.770070 0.775024 -0.158718
H4    H     H_    0.725685 0.736587 0.697752 0.171547
H5    H     H_    0.750093 0.758576 0.832120 0.165964
H6    H     H_    0.709429 0.877105 0.758337 0.210227
C23   C     C_2   0.589360 0.778149 0.202272 0.432967
H7    H     H_    0.606365 0.766494 0.281110 0.047236
O11   O     O_2   0.604069 0.888282 0.165612 -0.495433
C24   C     C_2   0.380458 0.220147 0.818312 0.292196
H8    H     H_    0.397990 0.133100 0.845987 0.144985
O12   O     O_2   0.317801 0.212772 0.747276 -0.628583
O13   O     O_3   0.408758 0.203745 0.025369 -0.551234
C25   C     C_3   0.257390 0.152320 0.083808 -0.267041
H9    H     H_    0.182944 0.140169 0.029628 0.153400
H10   H     H_    0.232501 0.215193 0.146006 0.172616
H11   H     H_    0.232388 0.053224 0.125951 0.167439
O14   O     O_3   0.527931 0.794271 0.997281 -0.505147
C26   C     C_3   0.379587 0.788831 0.026467 -0.132688
H12   H     H_    0.334036 0.774806 0.115342 0.130071
H13   H     H_    0.306438 0.709411 0.990766 0.153102
H14   H     H_    0.377875 0.884156 0.994876 0.192673
C27   C     C_2   0.338536 0.830786 0.653096 0.447739
H15   H     H_    0.240982 0.857420 0.675695 0.119424
O15   O     O_2   0.337072 0.731449 0.700576 -0.495427
C28   C     C_2   0.601210 0.141194 0.628707 0.368859
H16   H     H_    0.612393 0.240866 0.642642 0.080164
O16   O     O_2   0.674726 0.092221 0.667077 -0.585376
O17   O     O_3   0.705368 0.985564 0.440592 -0.581620
C29   C     C_3   0.839601 0.982129 0.456786 -0.230642
H17   H     H_    0.925353 0.083178 0.433879 0.173904
H18   H     H_    0.879852 0.917907 0.402998 0.156902
H19   H     H_    0.830804 0.950999 0.542067 0.163112
O18   O     O_3   0.297486 0.022322 0.486317 -0.583016
C30   C     C_3   0.309460 0.063742 0.378620 -0.183162
H20   H     H_    0.423332 0.084394 0.326250 0.199005
H21   H     H_    0.276875 0.150833 0.372183 0.154403
H22   H     H_    0.231188 0.982902 0.348119 0.178974
C31   C     C_2   0.868671 0.522795 0.639478 0.477693
H23   H     H_    0.779902 0.434156 0.684598 0.072420
O19   O     O_2   0.921334 0.615488 0.686530 -0.570722
C32   C     C_2   0.199282 0.621373 0.403837 0.426891
H24   H     H_    0.236806 0.590251 0.327178 0.065395
O20   O     O_2   0.241030 0.738874 0.412925 -0.560687
O21   O     O_3   0.937989 0.559651 0.349279 -0.512130
C33   C     C_3   0.970184 0.687224 0.298391 -0.164555
H25   H     H_    0.037292 0.697327 0.214480 0.119387
H26   H     H_    0.036044 0.765053 0.339139 0.152637
H27   H     H_    0.868631 0.705984 0.295620 0.178210
O22   O     O_3   0.032506 0.376623 0.639523 -0.527672
C34   C     C_3   0.035419 0.249303 0.649116 -0.037305
H28   H     H_    0.041219 0.206771 0.571797 0.131804
H29   H     H_    0.931361 0.184118 0.707703 0.168029
H30   H     H_    0.126914 0.249889 0.683274 0.229368

loop_
_geom_bond_atom_site_label_1
_geom_bond_atom_site_label_2
_ccdc_geom_bond_type
C29   H18   S    
C26   H12   S    
C8    C13   A    
C2    C18   S    
C21   H3    S    
C6    O8    A    
C19   C20   S    
C31   H23   S    
C14   O9    S    
O21   C33   S    
C22   H5    S    
C18   O17   S    
C9    C16   A    
C12   C23   S    
C10   C15   A    
O10   C22   S    
C4    N2    D    
C32   O20   D    
C29   H19   S    
C19   C28   S    
C15   C16   A    
C21   H1    S    
C31   O19   D    
C4    C31   S    
C28   O16   D    
C24   H8    S    
C3    N1    D    
C7    C14   A    
N1    O22   S    
C25   H10   S    
O18   C30   S    
C18   C20   D    
C29   H17   S    
C17   O18   S    
Cu1   Cu2   S    
C1    O1    A    
C25   H9    S    
C22   H6    S    
C5    O5    A    
C7    C12   A    
Cu1   O8    S    
C24   O12   D    
C27   O15   D    
C25   H11   S    
Cu2   O7    S    
C9    O13   S    
C22   H4    S    
C30   H21   S    
C32   H24   S    
Cu1   O5    S    
N2    O21   S    
C28   H16   S    
C5    C8    S    
C23   O11   D    
O9    C21   S    
C2    O2    A    
C20   C27   S    
C9    C11   A    
C13   O10   S    
C10   C12   A    
C6    O6    A    
Cu1   O4    S    
C33   H25   S    
C33   H26   S    
Cu2   O3    S    
C13   C15   A    
C23   H7    S    
O13   C25   S    
C14   C16   A    
C34   H30   S    
C3    C4    S    
Cu1   O1    S    
O14   C26   S    
Cu2   O6    S    
O22   C34   S    
C30   H22   S    
C6    C7    S    
C33   H27   S    
C1    C17   S    
C26   H13   S    
C30   H20   S    
C26   H14   S    
C8    C11   A    
C17   C19   D    
C21   H2    S    
C10   O14   S    
C27   H15   S    
C34   H28   S    
O17   C29   S    
Cu2   O2    S    
Cu1   N2    S    
C1    O3    A    
C34   H29   S    
Cu2   N1    S    
C11   C24   S    
C2    O4    A    
C3    C32   S    
C5    O7    A    
