data_mof_unit_65275.cif
_audit_creation_date              2013-03-05T15:41:00-0500
_audit_creation_method            fapswitch 2.2
_symmetry_space_group_name_H-M    P1
_symmetry_Int_Tables_number       1
_space_group_crystal_system       triclinic
_cell_length_a                    18.860971
_cell_length_b                    18.640399
_cell_length_c                    18.854525
_cell_angle_alpha                 109.097715
_cell_angle_beta                  109.974207
_cell_angle_gamma                 109.130375
_cell_volume                      5115.82993361

loop_
_atom_site_label
_atom_site_type_symbol
_atom_site_description
_atom_site_fract_x
_atom_site_fract_y
_atom_site_fract_z
_atom_type_partial_charge
O1    O     O_R   0.410160 0.358490 0.449530 -0.624232
O2    O     O_R   0.408940 0.460590 0.550490 -0.606066
C1    C     C_R   0.385872 0.380590 0.504226 0.935273
O3    O     O_R   0.592130 0.448950 0.541040 -0.625920
O4    O     O_R   0.590910 0.551050 0.642000 -0.638258
C2    C     C_R   0.620556 0.500625 0.620233 0.843132
Zn1   Zn    Zn3+2 0.500810 0.431830 0.432590 0.992602
Zn2   Zn    Zn3+2 0.499190 0.568170 0.567410 0.989699
O5    O     O_R   0.591060 0.539410 0.449510 -0.614442
O6    O     O_R   0.589840 0.641510 0.550470 -0.618344
O7    O     O_R   0.409090 0.448950 0.358000 -0.615626
O8    O     O_R   0.407870 0.551050 0.458960 -0.608939
C3    C     C_R   0.616817 0.619295 0.497705 0.962963
C4    C     C_R   0.377458 0.498043 0.379709 0.947147
C5    C     C_3   0.653222 0.408585 0.677857 -0.396746
H1    H     H_    0.635730 0.358793 0.613231 0.213563
H2    H     H_    0.593392 0.390259 0.682880 0.154438
C6    C     C_3   0.722470 0.407610 0.749108 -0.341406
H3    H     H_    0.697165 0.394006 0.791384 0.185368
H4    H     H_    0.734030 0.353295 0.720352 0.216548
H5    H     H_    0.749024 0.474178 0.607933 0.229245
C7    C     C_3   0.767915 0.522113 0.674064 -0.441903
C8    C     C_3   0.716495 0.569300 0.779714 -0.372582
C9    C     C_3   0.688249 0.500627 0.687067 0.108786
H6    H     H_    0.741350 0.635917 0.787232 0.186480
H7    H     H_    0.659919 0.554868 0.790160 0.190375
C10   C     C_3   0.807651 0.497512 0.803707 0.041362
C11   C     C_3   0.839905 0.521885 0.744174 0.187034
C12   C     C_3   0.787699 0.567792 0.848707 -0.489659
H8    H     H_    0.765846 0.553614 0.892886 0.194481
H9    H     H_    0.847116 0.633385 0.889090 0.179191
H10   H     H_    0.792634 0.587571 0.678848 0.140837
H11   H     H_    0.895825 0.589980 0.785003 0.123434
C13   C     C_2   0.257265 0.254531 0.578786 -0.292167
C14   C     C_2   0.179547 0.196954 0.506085 0.159774
H12   H     H_    0.274322 0.247733 0.636465 0.161789
C15   C     C_2   0.321402 0.327261 0.581337 -0.112977
C16   C     C_2   0.331887 0.312121 0.512334 -0.255992
H13   H     H_    0.358875 0.391706 0.638468 0.169386
H14   H     H_    0.300700 0.245607 0.459860 0.172352
C17   C     C_2   0.171695 0.421909 0.178379 -0.138934
C18   C     C_2   0.183131 0.494506 0.173530 -0.322029
H15   H     H_    0.109930 0.361568 0.134669 0.174741
H16   H     H_    0.247337 0.551682 0.209996 0.164677
C19   C     C_2   0.244915 0.421848 0.239724 -0.132308
C20   C     C_2   0.305401 0.494615 0.315628 -0.311603
H17   H     H_    0.246998 0.361345 0.224250 0.174417
H18   H     H_    0.297818 0.552041 0.335362 0.168124
C21   C     C_2   0.746440 0.830270 0.509173 0.333446
C22   C     C_2   0.818523 0.827262 0.514876 -0.446793
H19   H     H_    0.835254 0.783342 0.533817 0.162795
C23   C     C_2   0.685517 0.764844 0.517304 -0.201639
C24   C     C_2   0.674844 0.684176 0.488874 -0.393241
H20   H     H_    0.648027 0.782754 0.545164 0.201189
H21   H     H_    0.705558 0.663175 0.453308 0.175332
O9    O     O_R   0.944170 0.358540 0.904780 -0.623924
O10   O     O_R   0.046300 0.460610 0.904690 -0.600043
C25   C     C_R   0.992669 0.380439 0.873996 0.944261
O11   O     O_R   0.851630 0.449030 0.902680 -0.633034
O12   O     O_R   0.953760 0.551100 0.902590 -0.613358
C26   C     C_R   0.874458 0.497086 0.871053 0.869402
Zn3   Zn    Zn3+2 0.926030 0.431910 0.994210 0.985902
Zn4   Zn    Zn3+2 0.062410 0.568220 0.994100 1.016379
O13   O     O_R   0.942140 0.539520 0.083620 -0.615050
O14   O     O_R   0.044270 0.641590 0.083530 -0.619948
O15   O     O_R   0.034680 0.449030 0.085720 -0.613114
O16   O     O_R   0.136800 0.551100 0.085630 -0.620169
C27   C     C_R   0.996208 0.619603 0.114825 0.963149
C28   C     C_R   0.114710 0.498040 0.112605 0.931644
O17   O     O_R   0.050590 0.090430 0.641090 -0.640449
O18   O     O_R   0.947260 0.090430 0.537750 -0.582483
C29   C     C_R   0.001109 0.121189 0.617938 0.953110
O19   O     O_R   0.142120 0.090460 0.551650 -0.644198
O20   O     O_R   0.038780 0.090460 0.448320 -0.573956
C30   C     C_R   0.118428 0.121526 0.501528 0.818216
Zn5   Zn    Zn3+2 0.069000 0.000000 0.569000 1.029761
Zn6   Zn    Zn3+2 0.931000 0.000000 0.431000 1.077480
O21   O     O_R   0.052740 0.909570 0.462250 -0.571055
O22   O     O_R   0.949410 0.909570 0.358910 -0.624151
O23   O     O_R   0.961220 0.909540 0.551680 -0.598726
O24   O     O_R   0.857880 0.909540 0.448350 -0.584007
C31   C     C_R   0.997864 0.877875 0.382087 0.987520
C32   C     C_R   0.881559 0.884583 0.503896 1.014042
C33   C     C_2   0.991461 0.253037 0.671805 -0.120256
C34   C     C_2   0.008854 0.193189 0.685331 -0.314176
H22   H     H_    0.973368 0.250985 0.609645 0.190704
H23   H     H_    0.036642 0.200989 0.750045 0.153581
C35   C     C_2   0.001693 0.325390 0.743385 -0.090762
C36   C     C_2   0.983831 0.311944 0.802163 -0.332829
H24   H     H_    0.020966 0.388335 0.746133 0.215051
H25   H     H_    0.955183 0.246678 0.793765 0.169376
C37   C     C_2   0.996936 0.738150 0.320771 0.345862
C38   C     C_2   0.988622 0.805005 0.313940 -0.458039
C39   C     C_2   0.986158 0.669034 0.245220 -0.195338
C40   C     C_2   0.008155 0.687030 0.190155 -0.398547
H26   H     H_    0.960915 0.603100 0.235573 0.201919
H27   H     H_    0.041948 0.753876 0.203986 0.166261
N1    N     N_R   0.148970 0.214376 0.435554 0.218651
O25   O     O_R   0.105770 0.151310 0.355547 -0.380744
O26   O     O_R   0.154004 0.289794 0.451117 -0.351616
N2    N     N_R   0.730261 0.898668 0.502097 0.227004
O27   O     O_R   0.650720 0.883098 0.463997 -0.368315
O28   O     O_R   0.793198 0.979192 0.546761 -0.385384
N3    N     N_R   0.007899 0.727781 0.395572 0.227197
O29   O     O_R   0.048398 0.686597 0.415643 -0.361341
O30   O     O_R   0.964414 0.744255 0.433305 -0.389595
H28   H     H_    0.966944 0.803360 0.251828 0.148718
N4    N     N_R   0.869721 0.464438 0.705404 0.203568
O31   O     O_R   0.815447 0.382822 0.646416 -0.402598
O32   O     O_R   0.950821 0.496835 0.725844 -0.389724

loop_
_geom_bond_atom_site_label_1
_geom_bond_atom_site_label_2
_geom_bond_distance
_ccdc_geom_bond_type
C5    C6    1.530927 S    
Zn4   O14   2.005612 S    
N2    O27   1.301094 A    
C10   C12   1.546493 S    
C13   C15   1.465026 S    
O19   C30   1.291239 A    
C17   C18   1.337632 D    
N3    O30   1.301502 A    
C29   C34   1.437359 S    
C4    C20   1.442800 S    
C19   C20   1.337734 D    
Zn1   O7    2.016359 S    
C14   C30   1.450527 S    
C15   C16   1.335468 D    
C7    H10   1.113877 S    
O12   Zn4   2.018329 S    
O13   C27   1.277538 A    
Zn5   O21   2.001475 S    
C13   C14   1.346457 D    
O3    Zn1   2.013990 S    
C21   N2    1.440467 S    
O4    C2    1.270200 A    
O7    C4    1.280812 A    
C8    H7    1.113512 S    
O15   C28   1.280765 A    
C5    H1    1.113386 S    
N4    O31   1.301374 A    
C5    H2    1.113824 S    
C6    H3    1.113698 S    
C19   H17   1.086342 S    
O5    C3    1.271983 A    
Zn3   O13   1.998911 S    
C10   C26   1.456078 S    
C1    C16   1.439207 S    
O9    C25   1.270157 A    
O20   Zn6   2.005444 S    
C8    C9    1.558147 S    
C36   H25   1.087079 S    
C14   N1    1.444956 S    
C13   H12   1.086329 S    
O9    Zn3   2.005610 S    
C21   C23   1.468128 S    
Zn6   O22   2.004071 S    
N2    O28   1.301288 A    
C31   C38   1.440859 S    
C7    C11   1.540208 S    
H5    C7    1.113006 S    
C17   H15   1.086326 S    
C18   H16   1.086665 S    
O23   C32   1.276083 A    
N3    O29   1.301128 A    
O24   C32   1.283803 A    
C23   H20   1.086798 S    
C22   C32   1.441636 S    
O10   Zn4   1.998912 S    
C3    C24   1.441138 S    
C24   H21   1.086626 S    
Zn4   O16   2.012030 S    
O11   C26   1.271036 A    
C27   C40   1.440603 S    
O20   C30   1.272227 A    
Zn3   O15   2.018331 S    
C34   H23   1.087049 S    
Zn5   O23   2.005443 S    
C33   C34   1.336440 D    
O3    C2    1.272096 A    
C18   C28   1.442813 S    
O12   C26   1.272026 A    
O1    C1    1.269457 A    
C12   H8    1.113914 S    
O4    Zn2   2.016362 S    
O21   C31   1.284859 A    
Zn6   O24   1.999310 S    
Zn2   O8    2.013990 S    
O14   C27   1.272019 A    
C2    C9    1.455593 S    
C37   C39   1.469655 S    
C22   H19   1.086749 S    
C39   H26   1.086887 S    
Zn2   O6    2.005235 S    
C5    C9    1.547250 S    
C35   H24   1.085946 S    
C11   H11   1.115616 S    
N1    O25   1.301344 A    
N1    O26   1.301918 A    
O17   Zn5   2.004067 S    
O19   Zn5   1.999309 S    
C7    C9    1.549128 S    
C8    C12   1.533518 S    
O18   Zn6   2.001475 S    
C23   C24   1.337673 D    
Zn1   O5    1.998420 S    
O11   Zn3   2.012116 S    
O1    Zn1   2.005237 S    
O2    Zn2   1.998421 S    
C6    C10   1.557492 S    
C33   C35   1.462203 S    
O8    C4    1.270788 A    
O6    C3    1.278466 A    
O22   C31   1.274838 A    
C40   H27   1.086343 S    
O2    C1    1.279928 A    
O18   C29   1.283790 A    
C12   H9    1.113714 S    
C38   H28   1.086595 S    
C16   H14   1.088028 S    
O10   C25   1.278567 A    
C11   N4    1.469912 S    
C37   C38   1.346687 D    
N4    O32   1.300965 A    
C6    H4    1.110309 S    
C8    H6    1.113420 S    
C39   C40   1.339246 D    
C25   C36   1.437704 S    
C37   N3    1.440320 S    
C20   H18   1.086664 S    
C35   C36   1.336418 D    
C15   H13   1.086082 S    
C21   C22   1.347997 D    
C10   C11   1.566994 S    
C17   C19   1.468195 S    
C33   H22   1.086433 S    
O17   C29   1.275311 A    
O16   C28   1.270572 A    
