data_mof_unit_23709.cif
_audit_creation_date              2012-12-10T19:47:57-0500
_audit_creation_method            fapswitch 2.2
_symmetry_space_group_name_H-M    P1
_symmetry_Int_Tables_number       1
_space_group_crystal_system       triclinic
_cell_length_a                    15.053379
_cell_length_b                    14.11239
_cell_length_c                    10.412942
_cell_angle_alpha                 90.003018
_cell_angle_beta                  88.2167
_cell_angle_gamma                 89.998603
_cell_volume                      2211.04521115

loop_
_atom_site_label
_atom_site_type_symbol
_atom_type_description
_atom_site_fract_x
_atom_site_fract_y
_atom_site_fract_z
_atom_type_partial_charge
C1    C     C_R   0.327732 0.500031 0.498088 0.900236
C2    C     C_R   0.672269 0.500029 0.501904 0.900219
C3    C     C_R   0.048238 0.501332 0.498882 0.110060
C4    C     C_R   0.951765 0.501338 0.500895 0.110061
C5    C     C_R   0.433368 0.105205 0.438783 -0.271264
C6    C     C_R   0.533079 0.894891 0.603901 -0.271393
C7    C     C_R   0.566633 0.105206 0.561220 -0.271259
C8    C     C_R   0.466919 0.894885 0.396101 -0.271398
C9    C     C_R   0.434815 0.204636 0.439561 0.056004
C10   C     C_R   0.533005 0.795468 0.601522 0.051162
C11   C     C_R   0.565186 0.204636 0.560439 0.056011
C12   C     C_R   0.466994 0.795463 0.398479 0.051153
C13   C     C_R   0.500000 0.053411 0.500003 0.135067
C14   C     C_R   0.499999 0.946686 0.500001 0.144391
C15   C     C_R   0.516494 0.499965 0.259232 0.935184
C16   C     C_R   0.483500 0.499970 0.740765 0.935195
C17   C     C_R   0.563196 0.673108 0.095798 0.203382
C18   C     C_R   0.437240 0.326372 0.904049 0.213789
C19   C     C_R   0.436820 0.673130 0.904224 0.203380
C20   C     C_R   0.562683 0.326341 0.095921 0.213799
C21   C     C_R   0.533142 0.758537 0.045185 -0.238730
C22   C     C_R   0.467063 0.240921 0.954606 -0.217568
C23   C     C_R   0.466885 0.758549 0.954862 -0.238742
C24   C     C_R   0.532829 0.240905 0.045348 -0.217589
C25   C     C_R   0.473664 0.586285 0.945639 0.000424
C26   C     C_R   0.526176 0.413325 0.054441 -0.001635
C27   C     C_R   0.526335 0.586275 0.054368 0.000417
C28   C     C_R   0.473778 0.413337 0.945543 -0.001626
C29   C     C_R   0.462865 0.499848 0.879906 -0.167916
C30   C     C_R   0.537118 0.499832 0.120088 -0.167917
C31   C     C_R   0.095380 0.582680 0.460384 -0.155185
C32   C     C_R   0.906307 0.419266 0.465385 -0.157700
C33   C     C_R   0.904631 0.582675 0.539479 -0.155157
C34   C     C_R   0.093689 0.419251 0.534368 -0.157700
C35   C     C_R   0.187181 0.582524 0.460672 -0.157719
C36   C     C_R   0.814768 0.417996 0.470350 -0.159375
C37   C     C_R   0.812828 0.582515 0.539268 -0.157702
C38   C     C_R   0.185228 0.417988 0.529485 -0.159374
C39   C     C_R   0.232135 0.500165 0.495747 -0.026132
C40   C     C_R   0.767866 0.500162 0.504184 -0.026142
H1    H     H_    0.559805 0.174250 0.077715 0.172188
H2    H     H_    0.439914 0.825203 0.922507 0.172463
H3    H     H_    0.440063 0.174279 0.922230 0.172191
H4    H     H_    0.560125 0.825183 0.077554 0.172471
H5    H     H_    0.061522 0.645989 0.429394 0.139491
H6    H     H_    0.941255 0.356168 0.433011 0.139859
H7    H     H_    0.938495 0.645975 0.570493 0.139488
H8    H     H_    0.058734 0.356144 0.566678 0.139851
H9    H     H_    0.222863 0.646162 0.432048 0.162972
H10   H     H_    0.781006 0.353173 0.445797 0.180755
H11   H     H_    0.777151 0.646143 0.567962 0.162956
H12   H     H_    0.218985 0.353161 0.554029 0.180737
H13   H     H_    0.379595 0.069509 0.392049 0.140978
H14   H     H_    0.557885 0.930564 0.687488 0.136028
H15   H     H_    0.620407 0.069509 0.607953 0.140981
H16   H     H_    0.442112 0.930553 0.312515 0.136029
H17   H     H_    0.383458 0.243696 0.392075 0.132975
H18   H     H_    0.559115 0.756592 0.681477 0.138011
H19   H     H_    0.616544 0.243697 0.607921 0.132983
H20   H     H_    0.440882 0.756582 0.318526 0.138018
N1    N     N_R   0.500000 0.252470 0.500000 -0.085103
N2    N     N_R   0.500000 0.747530 0.500000 -0.083864
O1    O     O_R   0.369060 0.579480 0.500010 -0.606935
O2    O     O_R   0.630940 0.420520 0.499990 -0.622740
O3    O     O_R   0.630940 0.579480 0.499990 -0.606925
O4    O     O_R   0.369060 0.420520 0.500010 -0.622745
O5    O     O_R   0.499990 0.579480 0.316780 -0.615842
O6    O     O_R   0.500010 0.420520 0.683220 -0.603324
O7    O     O_R   0.500010 0.579480 0.683220 -0.615835
O8    O     O_R   0.499990 0.420520 0.316780 -0.603319
Zn1   Zn    Zn3+2 0.500000 0.606140 0.500000 0.980261
Zn2   Zn    Zn3+2 0.500000 0.393860 0.500000 0.977123
I1    I     I_    0.675865 0.680015 0.213526 -0.356715
I2    I     I_    0.324277 0.318842 0.788655 -0.389712
I3    I     I_    0.324162 0.680074 0.786477 -0.356721
I4    I     I_    0.675641 0.318747 0.211317 -0.389737

loop_
_geom_bond_atom_site_label_1
_geom_bond_atom_site_label_2
_ccdc_geom_bond_type
C19   C23   A    
C7    H15   S    
C2    O3    A    
C8    H16   S    
C7    C11   A    
C23   H2    S    
C9    N1    A    
C32   C36   A    
C5    H13   S    
C28   C29   A    
C10   H18   S    
C37   C40   A    
C38   C39   A    
C37   H11   S    
C38   H12   S    
C20   I4    S    
O7    Zn1   S    
O4    Zn2   S    
C20   C24   A    
C35   H9    S    
C16   O6    A    
C5    C13   A    
O6    Zn2   S    
C18   I2    S    
C34   C38   A    
C13   C14   S    
C27   C30   A    
C17   I1    S    
C24   H1    S    
C10   N2    A    
C6    H14   S    
C11   H19   S    
C1    O1    A    
C2    O2    A    
C25   C29   A    
C17   C27   A    
C36   C40   A    
C18   C28   A    
C9    H17   S    
C3    C34   A    
C16   C29   S    
O3    Zn1   S    
C17   C21   A    
C35   C39   A    
C5    C9    A    
C6    C14   A    
C21   H4    S    
C12   N2    A    
C22   H3    S    
C8    C12   A    
C15   O5    A    
C1    O4    A    
C3    C31   A    
C4    C32   A    
N1    Zn2   S    
O1    Zn1   S    
C26   C30   A    
C21   C23   A    
C33   H7    S    
C22   C24   A    
C34   H8    S    
C3    C4    S    
C36   H10   S    
C15   C30   S    
C15   O8    A    
C4    C33   A    
C8    C14   A    
C18   C22   A    
C32   H6    S    
C16   O7    A    
C11   N1    A    
C6    C10   A    
C25   C27   A    
C26   C28   A    
C19   I3    S    
C20   C26   A    
C31   C35   A    
N2    Zn1   S    
O5    Zn1   S    
O2    Zn2   S    
C19   C25   A    
C33   C37   A    
C1    C39   S    
C12   H20   S    
C2    C40   S    
C7    C13   A    
C31   H5    S    
O8    Zn2   S    
