data_mof_unit_61792.cif
_audit_creation_date              2012-12-10T18:08:46-0500
_audit_creation_method            fapswitch 2.2
_symmetry_space_group_name_H-M    P1
_symmetry_Int_Tables_number       1
_space_group_crystal_system       triclinic
_cell_length_a                    36.921027
_cell_length_b                    18.37289
_cell_length_c                    18.375169
_cell_angle_alpha                 89.914213
_cell_angle_beta                  119.828572
_cell_angle_gamma                 89.988762
_cell_volume                      10813.3460206

loop_
_atom_site_label
_atom_site_type_symbol
_atom_type_description
_atom_site_fract_x
_atom_site_fract_y
_atom_site_fract_z
_atom_type_partial_charge
C1    C     C_R   0.500020 0.000047 0.360161 0.843583
C2    C     C_R   0.499986 0.999955 0.639844 0.849827
C3    C     C_R   0.000019 0.500046 0.360160 0.843879
C4    C     C_R   0.999986 0.499955 0.639844 0.849844
C5    C     C_1   0.837499 0.998588 0.836540 0.020266
C6    C     C_1   0.162470 0.998649 0.163732 0.021748
C7    C     C_1   0.337501 0.498503 0.836510 0.019801
C8    C     C_1   0.662471 0.498616 0.163710 0.021239
C9    C     C_1   0.662565 0.000200 0.658710 0.027509
C10   C     C_1   0.337410 0.001142 0.338844 0.025734
C11   C     C_1   0.162569 0.500208 0.658639 0.028056
C12   C     C_1   0.837410 0.501067 0.338834 0.026185
C13   C     C_1   0.624877 0.999965 0.622868 -0.156190
C14   C     C_1   0.375110 0.000262 0.375785 -0.156673
C15   C     C_1   0.124880 0.499968 0.622811 -0.156110
C16   C     C_1   0.875110 0.500239 0.375777 -0.156461
C17   C     C_1   0.500009 0.000130 0.282697 -0.167621
C18   C     C_1   0.499998 0.999878 0.717310 -0.162343
C19   C     C_1   0.000008 0.500130 0.282696 -0.167341
C20   C     C_1   0.999998 0.499879 0.717309 -0.162335
C21   C     C_1   0.499995 0.000116 0.217440 -0.168021
C22   C     C_1   0.500010 0.999898 0.782564 -0.163251
C23   C     C_1   0.999994 0.500115 0.217440 -0.167805
C24   C     C_1   0.000010 0.499898 0.782564 -0.163161
C25   C     C_R   0.000067 0.139688 0.000027 0.843728
C26   C     C_R   0.999966 0.860310 0.000015 0.837670
C27   C     C_R   0.500065 0.639688 0.000025 0.843649
C28   C     C_R   0.499967 0.360310 0.000016 0.837579
C29   C     C_R   0.919983 0.000101 0.919973 0.815183
C30   C     C_R   0.080009 0.999790 0.080029 0.812772
C31   C     C_R   0.419983 0.500084 0.919974 0.815084
C32   C     C_R   0.580009 0.499797 0.080028 0.812743
C33   C     C_R   0.500025 0.859939 0.000018 0.844973
C34   C     C_R   0.499978 0.140060 0.000044 0.843817
C35   C     C_R   0.000025 0.359939 0.000020 0.844906
C36   C     C_R   0.999978 0.640060 0.000045 0.843747
C37   C     C_R   0.499995 0.000048 0.139985 0.843112
C38   C     C_R   0.500005 0.999964 0.860016 0.845544
C39   C     C_R   0.999995 0.500047 0.139985 0.843015
C40   C     C_R   0.000005 0.499964 0.860016 0.845478
C41   C     C_1   0.000104 0.217177 0.000010 -0.173722
C42   C     C_1   0.999931 0.782819 0.000075 -0.181982
C43   C     C_1   0.500102 0.717177 0.000006 -0.173665
C44   C     C_1   0.499932 0.282819 0.000075 -0.182092
C45   C     C_R   0.580037 0.999972 0.579696 0.821695
C46   C     C_R   0.419960 0.000040 0.420035 0.823787
C47   C     C_R   0.080039 0.499972 0.579676 0.821864
C48   C     C_R   0.919960 0.500037 0.420033 0.823774
C49   C     C_1   0.500086 0.782443 0.000023 -0.168607
C50   C     C_1   0.499931 0.217553 0.000070 -0.177251
C51   C     C_1   0.000088 0.282444 0.000026 -0.168645
C52   C     C_1   0.999931 0.717553 0.000070 -0.176984
C53   C     C_3   0.726992 0.041941 0.651804 0.395896
C54   C     C_3   0.275182 0.935458 0.326146 0.426849
C55   C     C_3   0.273061 0.080388 0.297998 0.394674
C56   C     C_3   0.724862 0.918363 0.729745 0.426721
C57   C     C_3   0.227017 0.543913 0.653027 0.396736
C58   C     C_3   0.775180 0.435053 0.325757 0.426322
C59   C     C_3   0.773068 0.580113 0.298453 0.395359
C60   C     C_3   0.224862 0.418097 0.727327 0.425917
C61   C     C_3   0.774341 0.917637 0.777945 0.183276
C62   C     C_3   0.224358 0.072738 0.258865 0.256638
C63   C     C_3   0.225712 0.936211 0.278667 0.182814
C64   C     C_3   0.775686 0.029690 0.699068 0.259860
C65   C     C_3   0.274355 0.417415 0.775987 0.183388
C66   C     C_3   0.724403 0.572285 0.259669 0.256666
C67   C     C_3   0.725695 0.435530 0.277912 0.182504
C68   C     C_3   0.275669 0.531342 0.699739 0.260040
C69   C     C_1   0.875173 0.999583 0.875075 -0.211277
C70   C     C_1   0.124804 0.999153 0.124992 -0.207612
C71   C     C_1   0.375174 0.499524 0.875076 -0.211317
C72   C     C_1   0.624805 0.499150 0.124983 -0.207795
C73   C     C_3   0.708768 0.999918 0.703220 0.017365
C74   C     C_3   0.291195 0.002109 0.293934 0.017421
C75   C     C_3   0.208773 0.499919 0.703167 0.017362
C76   C     C_3   0.791196 0.501974 0.293923 0.017174
C77   C     C_3   0.791309 0.997271 0.788406 0.049585
C78   C     C_3   0.208656 0.998754 0.211863 0.051440
C79   C     C_3   0.291312 0.497193 0.788328 0.049375
C80   C     C_3   0.708656 0.498650 0.211833 0.051358
C81   C     C_3   0.773883 0.043360 0.835070 -0.338084
C82   C     C_3   0.225863 0.988396 0.150629 -0.338458
C83   C     C_3   0.273877 0.541713 0.836073 -0.338009
C84   C     C_3   0.725856 0.489096 0.150483 -0.338299
C85   C     C_3   0.725531 0.042740 0.787334 -0.385406
C86   C     C_3   0.274224 0.987514 0.198571 -0.387148
C87   C     C_3   0.225528 0.540740 0.788512 -0.385308
C88   C     C_3   0.774215 0.487787 0.198477 -0.387139
Cu1   Cu    Cu3+1 0.500000 0.072550 0.500000 0.960664
Cu2   Cu    Cu3+1 0.500000 0.927450 0.500000 0.981893
Cu3   Cu    Cu3+1 0.000000 0.572550 0.500000 0.960738
Cu4   Cu    Cu3+1 0.000000 0.427450 0.500000 0.981406
Cu5   Cu    Cu3+1 0.000010 1.000000 0.927480 0.962372
Cu6   Cu    Cu3+1 0.999990 0.000000 0.072520 0.958018
Cu7   Cu    Cu3+1 0.500010 0.500000 0.927480 0.962283
Cu8   Cu    Cu3+1 0.499990 0.500000 0.072520 0.958200
Cu9   Cu    Cu3+1 0.541320 0.000000 0.041310 0.971584
Cu10  Cu    Cu3+1 0.458680 0.000000 0.958690 0.978188
Cu11  Cu    Cu3+1 0.041320 0.500000 0.041310 0.971877
Cu12  Cu    Cu3+1 0.958680 0.500000 0.958690 0.978734
H1    H     H_    0.783455 0.988293 0.664498 0.040259
H2    H     H_    0.216557 0.948151 0.326847 0.057762
H3    H     H_    0.216565 0.071715 0.310307 0.040586
H4    H     H_    0.783778 0.887120 0.737566 0.060104
H5    H     H_    0.283247 0.490808 0.664045 0.040149
H6    H     H_    0.716371 0.446621 0.326010 0.057863
H7    H     H_    0.716787 0.570521 0.311344 0.040545
H8    H     H_    0.283968 0.387985 0.735235 0.060165
H9    H     H_    0.713738 0.099589 0.776384 0.189320
H10   H     H_    0.285498 0.934612 0.188051 0.220701
H11   H     H_    0.285778 0.028435 0.170490 0.186601
H12   H     H_    0.714256 0.018835 0.828083 0.219996
H13   H     H_    0.213602 0.597448 0.779247 0.188814
H14   H     H_    0.785338 0.434847 0.187667 0.221099
H15   H     H_    0.785900 0.528719 0.170660 0.185973
H16   H     H_    0.214384 0.515131 0.828663 0.220356
H17   H     H_    0.785079 0.100491 0.841487 0.212926
H18   H     H_    0.214008 0.936570 0.115346 0.201858
H19   H     H_    0.214515 0.033235 0.103595 0.211567
H20   H     H_    0.785714 0.021757 0.899620 0.202009
H21   H     H_    0.284938 0.599010 0.843565 0.213296
H22   H     H_    0.713858 0.437681 0.114385 0.201565
H23   H     H_    0.714653 0.534485 0.104153 0.211952
H24   H     H_    0.285826 0.519040 0.900211 0.201702
O1    O     O_R   0.500010 0.061270 0.394200 -0.586557
O2    O     O_R   0.499990 0.938730 0.605800 -0.582334
O3    O     O_R   0.499990 0.061270 0.605800 -0.578744
O4    O     O_R   0.500010 0.938730 0.394200 -0.577261
O5    O     O_R   0.000010 0.561270 0.394200 -0.586425
O6    O     O_R   0.999990 0.438730 0.605800 -0.582318
O7    O     O_R   0.999990 0.561270 0.605800 -0.578807
O8    O     O_R   0.000010 0.438730 0.394200 -0.577403
O9    O     O_R   0.560280 0.061270 0.560280 -0.593109
O10   O     O_R   0.439720 0.938730 0.439720 -0.576186
O11   O     O_R   0.439720 0.061270 0.439720 -0.585966
O12   O     O_R   0.560280 0.938730 0.560280 -0.567514
O13   O     O_R   0.060280 0.561270 0.560280 -0.593003
O14   O     O_R   0.939720 0.438730 0.439720 -0.576133
O15   O     O_R   0.939720 0.561270 0.439720 -0.585998
O16   O     O_R   0.060280 0.438730 0.560280 -0.568002
O17   O     O_R   0.000000 0.105620 0.938740 -0.580413
O18   O     O_R   0.000000 0.894380 0.061260 -0.584737
O19   O     O_R   1.000000 0.105620 0.061260 -0.579987
O20   O     O_R   0.000000 0.894380 0.938740 -0.578932
O21   O     O_R   0.500000 0.605620 0.938740 -0.580456
O22   O     O_R   0.500000 0.394380 0.061260 -0.584650
O23   O     O_R   0.500000 0.605620 0.061260 -0.579964
O24   O     O_R   0.500000 0.394380 0.938740 -0.578987
O25   O     O_R   0.939730 0.000000 0.878470 -0.586274
O26   O     O_R   0.060270 1.000000 0.121530 -0.586888
O27   O     O_R   0.439730 0.500000 0.878470 -0.586301
O28   O     O_R   0.560270 0.500000 0.121530 -0.586818
O29   O     O_R   0.939720 1.000000 0.000940 -0.576409
O30   O     O_R   0.060280 1.000000 0.999060 -0.572743
O31   O     O_R   0.439720 0.500000 0.000940 -0.576227
O32   O     O_R   0.560280 0.500000 0.999060 -0.572751
O33   O     O_R   0.534900 0.894160 0.034870 -0.585225
O34   O     O_R   0.465100 0.105840 0.965130 -0.583466
O35   O     O_R   0.465100 0.894160 0.965130 -0.580037
O36   O     O_R   0.534900 0.105840 0.034870 -0.585686
O37   O     O_R   0.034900 0.394160 0.034870 -0.585357
O38   O     O_R   0.965100 0.605840 0.965130 -0.583391
O39   O     O_R   0.965100 0.394160 0.965130 -0.579989
O40   O     O_R   0.034900 0.605840 0.034870 -0.585500
O41   O     O_R   0.534890 1.000000 0.140680 -0.577214
O42   O     O_R   0.465110 1.000000 0.859320 -0.573071
O43   O     O_R   0.034890 0.500000 0.140680 -0.577004
O44   O     O_R   0.965110 0.500000 0.859320 -0.572974
O45   O     O_R   0.465110 1.000000 0.070890 -0.587576
O46   O     O_R   0.534890 0.000000 0.929110 -0.587036
O47   O     O_R   0.965110 0.500000 0.070890 -0.587624
O48   O     O_R   0.034890 0.500000 0.929110 -0.587087
I1    I     I_    0.703790 0.008358 0.521176 -0.434824
I2    I     I_    0.300186 0.941019 0.462686 -0.433657
I3    I     I_    0.296559 0.128570 0.422844 -0.403203
I4    I     I_    0.700364 0.846658 0.619293 -0.420340
I5    I     I_    0.203614 0.513844 0.521263 -0.435337
I6    I     I_    0.799899 0.440274 0.462204 -0.433059
I7    I     I_    0.796790 0.627941 0.423545 -0.402580
I8    I     I_    0.200655 0.349074 0.614762 -0.420948
O49   O     O_3   0.709107 0.895547 0.783475 -0.581594
C89   C     C_3   0.712622 0.820384 0.803117 0.171581
H25   H     H_    0.731214 0.814809 0.872455 0.171406
H26   H     H_    0.728907 0.788135 0.777183 0.149497
C90   C     C_3   0.669176 0.788902 0.773714 -0.359834
H27   H     H_    0.654273 0.818663 0.804618 0.226615
H28   H     H_    0.649360 0.796151 0.704817 0.252758
C91   C     C_3   0.671462 0.708095 0.794876 -0.910815
H29   H     H_    0.685473 0.677086 0.763108 0.265701
H30   H     H_    0.639521 0.686978 0.773133 0.266047
H31   H     H_    0.690552 0.699660 0.863741 0.254323
O50   O     O_3   0.278951 0.132492 0.246615 -0.557163
C92   C     C_3   0.320808 0.153502 0.274793 0.087254
H32   H     H_    0.333097 0.121428 0.240576 0.134698
H33   H     H_    0.342216 0.145590 0.342887 0.170154
C93   C     C_3   0.321449 0.233950 0.254427 -0.315168
H34   H     H_    0.301044 0.242803 0.185875 0.225306
H35   H     H_    0.309066 0.266876 0.287959 0.235607
C94   C     C_3   0.365597 0.259426 0.280492 -0.910471
H36   H     H_    0.386376 0.252398 0.349172 0.266097
H37   H     H_    0.364948 0.317956 0.264751 0.258444
H38   H     H_    0.378345 0.227911 0.246696 0.255167
O51   O     O_3   0.290731 0.871406 0.306230 -0.581155
C95   C     C_3   0.286947 0.805291 0.341600 0.173681
H39   H     H_    0.267762 0.767469 0.289240 0.173290
H40   H     H_    0.271206 0.810509 0.379241 0.147949
C96   C     C_3   0.330174 0.771383 0.394730 -0.351395
H41   H     H_    0.344795 0.763006 0.355125 0.228361
H42   H     H_    0.350372 0.808790 0.446694 0.250205
C97   C     C_3   0.327504 0.698416 0.431480 -0.941671
H43   H     H_    0.314238 0.705868 0.473589 0.263176
H44   H     H_    0.359264 0.674699 0.468233 0.268663
H45   H     H_    0.307609 0.659911 0.380565 0.259602
O52   O     O_3   0.721111 0.119005 0.652565 -0.556047
C98   C     C_3   0.679449 0.144146 0.603844 0.089189
H46   H     H_    0.667041 0.156827 0.646436 0.139991
H47   H     H_    0.657788 0.104912 0.556455 0.163632
C99   C     C_3   0.679548 0.213975 0.558688 -0.310754
H48   H     H_    0.699181 0.255580 0.605727 0.230331
H49   H     H_    0.693290 0.202566 0.518072 0.232379
C100  C     C_3   0.635489 0.244106 0.504768 -0.920477
H50   H     H_    0.615677 0.204235 0.455520 0.265861
H51   H     H_    0.636796 0.295187 0.473795 0.260913
H52   H     H_    0.621214 0.256229 0.544232 0.259644
O53   O     O_3   0.208898 0.393141 0.779959 -0.581285
C101  C     C_3   0.212424 0.317529 0.797310 0.171412
H53   H     H_    0.230829 0.310426 0.866480 0.171194
H54   H     H_    0.228900 0.286659 0.770765 0.149308
C102  C     C_3   0.168957 0.285518 0.766401 -0.359204
H55   H     H_    0.153893 0.313691 0.797979 0.226540
H56   H     H_    0.149286 0.294380 0.697732 0.252904
C103  C     C_3   0.171243 0.204129 0.784846 -0.911146
H57   H     H_    0.185405 0.174711 0.752329 0.266012
H58   H     H_    0.139287 0.182626 0.762087 0.265872
H59   H     H_    0.190198 0.194054 0.853431 0.254094
O54   O     O_3   0.778785 0.632453 0.247058 -0.557049
C104  C     C_3   0.820595 0.653647 0.275015 0.087255
H60   H     H_    0.832817 0.621854 0.240488 0.134504
H61   H     H_    0.842121 0.645540 0.343027 0.169933
C105  C     C_3   0.821120 0.734206 0.254949 -0.314802
H62   H     H_    0.800589 0.743259 0.186470 0.225112
H63   H     H_    0.808820 0.766860 0.288827 0.235711
C106  C     C_3   0.865201 0.759892 0.280754 -0.910950
H64   H     H_    0.886105 0.752658 0.349364 0.266123
H65   H     H_    0.864467 0.818501 0.265251 0.258462
H66   H     H_    0.877859 0.728664 0.246601 0.255135
O55   O     O_3   0.790940 0.371215 0.305951 -0.580906
C107  C     C_3   0.787045 0.304918 0.340875 0.173516
H67   H     H_    0.768017 0.267213 0.288271 0.173041
H68   H     H_    0.771094 0.309878 0.378151 0.147726
C108  C     C_3   0.830252 0.271026 0.394325 -0.351070
H69   H     H_    0.845077 0.262917 0.355050 0.228329
H70   H     H_    0.850316 0.308316 0.446549 0.250227
C109  C     C_3   0.827475 0.197872 0.430604 -0.941625
H71   H     H_    0.814093 0.205066 0.472545 0.262943
H72   H     H_    0.859217 0.174102 0.467432 0.268380
H73   H     H_    0.807641 0.159528 0.379432 0.259363
O56   O     O_3   0.221336 0.620764 0.656438 -0.556059
C110  C     C_3   0.179756 0.646463 0.608337 0.089223
H74   H     H_    0.167452 0.658338 0.651282 0.139751
H75   H     H_    0.157911 0.607898 0.560236 0.163551
C111  C     C_3   0.180060 0.717030 0.564548 -0.310180
H76   H     H_    0.199748 0.758045 0.612401 0.229965
H77   H     H_    0.193853 0.706433 0.523859 0.232795
C112  C     C_3   0.136080 0.747604 0.511013 -0.920849
H78   H     H_    0.116207 0.708306 0.461065 0.266011
H79   H     H_    0.137534 0.799134 0.480927 0.260954
H80   H     H_    0.121779 0.759034 0.550583 0.259548
O57   O     O_3   0.790591 0.883975 0.858188 -0.583169
C113  C     C_3   0.826362 0.840286 0.879985 0.066459
H81   H     H_    0.848054 0.847035 0.948338 0.171628
H82   H     H_    0.844063 0.856549 0.848140 0.129596
C114  C     C_3   0.814476 0.759911 0.862146 -0.396572
H83   H     H_    0.797384 0.742856 0.894867 0.216775
H84   H     H_    0.793916 0.751996 0.793569 0.226935
C115  C     C_3   0.853120 0.711990 0.892023 -0.851581
H85   H     H_    0.870496 0.727261 0.859321 0.259643
H86   H     H_    0.843511 0.654118 0.877991 0.258224
H87   H     H_    0.874013 0.717826 0.960796 0.250356
O58   O     O_3   0.203135 0.130486 0.200981 -0.551139
C116  C     C_3   0.190626 0.186769 0.236303 0.121881
H88   H     H_    0.190332 0.238317 0.204345 0.170767
H89   H     H_    0.212816 0.195297 0.304257 0.158635
C117  C     C_3   0.146451 0.172439 0.220755 -0.402127
H90   H     H_    0.124872 0.164465 0.152495 0.231173
H91   H     H_    0.146297 0.122150 0.254240 0.218998
C118  C     C_3   0.130683 0.235737 0.251113 -0.847622
H92   H     H_    0.151439 0.244103 0.319547 0.271749
H93   H     H_    0.098700 0.223557 0.239032 0.260836
H94   H     H_    0.129560 0.286474 0.217085 0.257545
O59   O     O_3   0.209234 0.868085 0.238804 -0.585261
C119  C     C_3   0.173661 0.845912 0.243861 0.066288
H95   H     H_    0.151404 0.820445 0.182928 0.170320
H96   H     H_    0.156526 0.891507 0.253200 0.132828
C120  C     C_3   0.185713 0.789610 0.313652 -0.387217
H97   H     H_    0.202673 0.743783 0.304473 0.221780
H98   H     H_    0.206443 0.815335 0.375400 0.219558
C121  C     C_3   0.147222 0.759605 0.313879 -0.875711
H99   H     H_    0.130315 0.804053 0.325442 0.254416
H100  H     H_    0.156937 0.718281 0.364348 0.267677
H101  H     H_    0.125891 0.733300 0.252866 0.259764
O60   O     O_3   0.796883 0.096781 0.707274 -0.548504
C122  C     C_3   0.810100 0.104275 0.647349 0.105395
H102  H     H_    0.811302 0.163417 0.636066 0.173729
H103  H     H_    0.787847 0.080044 0.585490 0.153875
C123  C     C_3   0.853920 0.072212 0.681371 -0.364806
H104  H     H_    0.875412 0.096900 0.743359 0.241972
H105  H     H_    0.853092 0.012474 0.689825 0.217778
C124  C     C_3   0.870812 0.086858 0.622081 -0.903061
H106  H     H_    0.849626 0.063438 0.559216 0.263843
H107  H     H_    0.902080 0.061369 0.647522 0.264365
H108  H     H_    0.873954 0.146363 0.616095 0.260435
O61   O     O_3   0.290406 0.382376 0.855449 -0.582685
C125  C     C_3   0.326284 0.339131 0.876792 0.066321
H109  H     H_    0.347764 0.344829 0.945371 0.171524
H110  H     H_    0.344179 0.356613 0.845779 0.129636
C126  C     C_3   0.314526 0.258880 0.856985 -0.397140
H111  H     H_    0.297181 0.240581 0.888738 0.216802
H112  H     H_    0.294247 0.252041 0.788162 0.226729
C127  C     C_3   0.353274 0.211302 0.886475 -0.850119
H113  H     H_    0.370947 0.227888 0.854811 0.259368
H114  H     H_    0.343752 0.153541 0.870876 0.258367
H115  H     H_    0.373862 0.215965 0.955473 0.250387
O62   O     O_3   0.703073 0.630464 0.202556 -0.551122
C128  C     C_3   0.690551 0.686040 0.238675 0.121250
H116  H     H_    0.690139 0.738009 0.207299 0.170907
H117  H     H_    0.712789 0.694049 0.306695 0.158797
C129  C     C_3   0.646439 0.671143 0.223189 -0.401732
H118  H     H_    0.624794 0.663775 0.154856 0.231149
H119  H     H_    0.646396 0.620373 0.256058 0.219097
C130  C     C_3   0.630677 0.733709 0.254546 -0.847215
H120  H     H_    0.651501 0.741451 0.323064 0.271861
H121  H     H_    0.598740 0.721134 0.242488 0.260832
H122  H     H_    0.629448 0.784915 0.221156 0.257605
O63   O     O_3   0.709403 0.367641 0.237176 -0.585024
C131  C     C_3   0.673635 0.344875 0.241183 0.066798
H123  H     H_    0.651473 0.320346 0.179580 0.170322
H124  H     H_    0.656488 0.389993 0.251288 0.132373
C132  C     C_3   0.685368 0.287345 0.309631 -0.387264
H125  H     H_    0.702505 0.242108 0.299965 0.221642
H126  H     H_    0.705836 0.312204 0.372040 0.218873
C133  C     C_3   0.646658 0.256483 0.308277 -0.876830
H127  H     H_    0.629497 0.300329 0.320052 0.254472
H128  H     H_    0.656149 0.214440 0.357947 0.267327
H129  H     H_    0.625632 0.230854 0.246642 0.259912
O64   O     O_3   0.296992 0.598558 0.709401 -0.548348
C134  C     C_3   0.310324 0.607348 0.649794 0.104322
H130  H     H_    0.311633 0.666702 0.639716 0.173784
H131  H     H_    0.288095 0.583966 0.587414 0.153894
C135  C     C_3   0.354111 0.575282 0.683372 -0.364199
H132  H     H_    0.375627 0.599403 0.745686 0.241465
H133  H     H_    0.353225 0.515435 0.691010 0.218008
C136  C     C_3   0.371008 0.590804 0.624268 -0.903682
H134  H     H_    0.349891 0.567628 0.561231 0.263942
H135  H     H_    0.402332 0.565576 0.649556 0.264538
H136  H     H_    0.374021 0.650416 0.618714 0.260795

loop_
_geom_bond_atom_site_label_1
_geom_bond_atom_site_label_2
_ccdc_geom_bond_type
C53   O52   S    
C64   C77   S    
O59   C119  S    
C122  H103  S    
Cu1   O1    S    
C116  C117  S    
C62   O58   S    
C91   H31   S    
C58   O55   S    
C86   H10   S    
C131  C132  S    
C59   C66   S    
Cu2   O10   S    
C53   C64   S    
Cu3   O7    S    
C54   C63   S    
C22   C38   S    
C55   C62   S    
C81   H17   S    
C114  C115  S    
C38   O42   A    
C9    C13   T    
C89   H25   S    
C109  H72   S    
C54   C74   S    
Cu10  O45   S    
C11   C15   T    
C12   C16   T    
O62   C128  S    
C96   C97   S    
C118  H93   S    
C3    C19   S    
C120  C121  S    
C65   H8    S    
C94   H36   S    
C136  H135  S    
C107  H68   S    
C29   C69   S    
C127  H115  S    
C61   H4    S    
C14   C46   S    
C25   C41   S    
C113  H81   S    
C133  H127  S    
C93   H34   S    
C4    O6    A    
C125  H109  S    
C28   C44   S    
C35   O39   A    
C89   C90   S    
C126  C127  S    
C19   C23   T    
C98   H46   S    
C102  H55   S    
C46   O10   A    
C78   C82   S    
C122  H102  S    
C27   O21   A    
C103  H58   S    
C123  H104  S    
Cu2   O2    S    
C60   C65   S    
C35   C51   S    
C113  H82   S    
C121  H99   S    
C82   H18   S    
C5    C77   S    
C7    C79   S    
Cu1   O3    S    
C44   C50   T    
Cu8   O23   S    
C117  H90   S    
C56   C73   S    
C3    O5    A    
C117  C118  S    
C84   C88   S    
C131  H123  S    
C110  H75   S    
C133  H129  S    
Cu3   O5    S    
Cu6   O26   S    
C45   O9    A    
C48   O14   A    
C54   I2    S    
C119  H96   S    
C13   C45   S    
C115  H85   S    
Cu12  O39   S    
C135  H132  S    
C87   H13   S    
C29   O25   A    
O63   C131  S    
C4    C20   S    
C58   C67   S    
C30   O30   A    
C92   H32   S    
Cu8   O22   S    
C125  H110  S    
C41   C51   T    
C42   C52   T    
C65   C79   S    
C66   H7    S    
C85   H12   S    
Cu9   Cu10  S    
C90   H27   S    
C53   I1    S    
C120  H98   S    
C35   O37   A    
C56   I4    S    
Cu4   O8    S    
C102  C103  S    
C37   O45   A    
C65   O61   S    
C90   H28   S    
C54   O51   S    
Cu8   O28   S    
O54   C104  S    
C91   H30   S    
C128  H117  S    
C32   O32   A    
C61   C77   S    
C47   O16   A    
C94   H38   S    
C39   O47   A    
C83   H24   S    
C36   C52   S    
C2    O3    A    
C106  H66   S    
C68   C79   S    
C31   C71   S    
C104  H60   S    
C55   C74   S    
C63   H2    S    
O53   C101  S    
C124  H107  S    
Cu1   O9    S    
Cu6   O18   S    
Cu10  O34   S    
O58   C116  S    
C10   C14   T    
C98   C99   S    
Cu3   Cu4   S    
C108  C109  S    
C37   O41   A    
Cu11  O48   S    
C109  H73   S    
C83   H21   S    
Cu9   O46   S    
C127  H114  S    
C66   O62   S    
C100  H50   S    
C31   O27   A    
C99   H49   S    
C32   O28   A    
C92   C93   S    
C58   I6    S    
C112  H79   S    
C73   C85   S    
Cu10  O42   S    
Cu5   O20   S    
C75   C87   S    
C97   H44   S    
C68   H5    S    
C57   C68   S    
C2    O2    A    
C26   C42   S    
C99   C100  S    
C36   O40   A    
C93   C94   S    
C18   C22   T    
C62   C78   S    
C115  H86   S    
C129  H118  S    
C68   O64   S    
C111  H76   S    
C116  H89   S    
C97   H45   S    
C66   C80   S    
C1    C17   S    
C57   C75   S    
C88   H15   S    
C117  H91   S    
C86   H11   S    
C120  H97   S    
C11   C75   S    
C134  C135  S    
C57   I5    S    
Cu6   O29   S    
C105  H62   S    
C114  H84   S    
C130  H122  S    
C89   H26   S    
C132  C133  S    
C67   O63   S    
C95   H39   S    
C101  H53   S    
C104  C105  S    
C96   H42   S    
Cu12  O38   S    
C59   C76   S    
C81   C85   S    
C63   C78   S    
C83   C87   S    
Cu1   O11   S    
Cu5   O25   S    
Cu7   O21   S    
C1    O4    A    
C80   C84   S    
Cu4   O14   S    
C111  C112  S    
C136  H134  S    
C108  H69   S    
C32   C72   S    
O49   C89   S    
C84   H23   S    
C100  H52   S    
C85   H9    S    
C133  H128  S    
C30   O26   A    
C56   O49   S    
C33   C49   S    
C106  H64   S    
Cu7   O32   S    
C126  H112  S    
C5    C69   T    
C46   O11   A    
Cu11  O37   S    
C59   O54   S    
C123  H105  S    
Cu11  O43   S    
C125  C126  S    
O57   C113  S    
C36   O38   A    
C113  C114  S    
C121  H100  S    
C82   H19   S    
C129  C130  S    
C61   O57   S    
C30   C70   S    
C33   O33   A    
C38   O46   A    
C122  C123  S    
C8    C72   T    
C123  C124  S    
C28   O24   A    
C64   O60   S    
C96   H41   S    
Cu9   O36   S    
C131  H124  S    
C134  H130  S    
C135  C136  S    
C82   C86   S    
C105  C106  S    
C3    O8    A    
C121  H101  S    
C130  H120  S    
C109  H71   S    
C132  H125  S    
C115  H87   S    
C77   C81   S    
C118  H94   S    
C135  H133  S    
C87   H16   S    
Cu3   O15   S    
C93   H35   S    
C12   C76   S    
Cu7   O27   S    
Cu4   O16   S    
C40   O48   A    
C136  H136  S    
Cu5   O17   S    
C107  H67   S    
C6    C70   T    
C119  H95   S    
C28   O22   A    
C25   O17   A    
C67   C80   S    
C31   O31   A    
C67   H6    S    
C60   I8    S    
C60   C75   S    
C55   O50   S    
C59   I7    S    
C102  H56   S    
C127  H113  S    
C79   C83   S    
O61   C125  S    
Cu9   O41   S    
C103  H57   S    
O56   C110  S    
C88   H14   S    
C128  H116  S    
C17   C21   T    
C6    C78   S    
C27   C43   S    
C21   C37   S    
C94   H37   S    
C56   C61   S    
Cu1   Cu2   S    
C33   O35   A    
C34   O36   A    
O51   C95   S    
Cu5   Cu6   S    
C2    C18   S    
Cu4   O6    S    
Cu7   Cu8   S    
C15   C47   S    
C110  C111  S    
C16   C48   S    
C99   H48   S    
C124  H106  S    
C81   H20   S    
Cu6   O19   S    
Cu5   O30   S    
C1    O1    A    
C98   H47   S    
C7    C71   T    
C108  H70   S    
Cu8   O31   S    
C84   H22   S    
C57   O56   S    
C60   O53   S    
Cu3   O13   S    
C20   C24   T    
C106  H65   S    
C95   C96   S    
C112  H78   S    
C76   C88   S    
C107  C108  S    
Cu12  O47   S    
C63   O59   S    
C25   O19   A    
C9    C73   S    
C26   O20   A    
C4    O7    A    
C64   H1    S    
C34   C50   S    
C129  H119  S    
O52   C98   S    
C43   C49   T    
C90   C91   S    
C111  H77   S    
C92   H33   S    
C116  H88   S    
C103  H59   S    
C91   H29   S    
Cu9   O33   S    
C128  C129  S    
C134  H131  S    
Cu2   O12   S    
Cu11  Cu12  S    
C47   O13   A    
C105  H63   S    
C114  H83   S    
C74   C86   S    
C130  H121  S    
C55   I3    S    
C34   O34   A    
C132  H126  S    
C95   H40   S    
C101  H54   S    
C104  H61   S    
C118  H92   S    
C110  H74   S    
C29   O29   A    
C62   H3    S    
C124  H108  S    
O60   C122  S    
C45   O12   A    
C48   O15   A    
C58   C76   S    
C119  C120  S    
C53   C73   S    
Cu7   O24   S    
O55   C107  S    
C101  C102  S    
Cu12  O44   S    
O50   C92   S    
C100  H51   S    
C10   C74   S    
O64   C134  S    
C23   C39   S    
C24   C40   S    
C39   O43   A    
C126  H111  S    
C112  H80   S    
C40   O44   A    
Cu11  O40   S    
Cu10  O35   S    
C27   O23   A    
C97   H43   S    
C8    C80   S    
Cu2   O4    S    
C26   O18   A    
