data_mof_unit_36959.cif
_audit_creation_date              2012-12-10T18:09:54-0500
_audit_creation_method            fapswitch 2.2
_symmetry_space_group_name_H-M    P1
_symmetry_Int_Tables_number       1
_space_group_crystal_system       triclinic
_cell_length_a                    10.639296
_cell_length_b                    12.592744
_cell_length_c                    13.130739
_cell_angle_alpha                 82.39974
_cell_angle_beta                  90.354336
_cell_angle_gamma                 102.154189
_cell_volume                      1704.26079158

loop_
_atom_site_label
_atom_site_type_symbol
_atom_type_description
_atom_site_fract_x
_atom_site_fract_y
_atom_site_fract_z
_atom_type_partial_charge
Br1   Br    Br    0.861967 0.434958 0.724914 -0.623648
C1    C     C_R   0.481053 0.438853 0.691125 0.887659
C2    C     C_R   0.470463 0.447282 0.973436 0.093153
C3    C     C_R   0.436560 0.466620 0.869900 0.078202
C4    C     C_R   0.741761 0.499724 0.501411 0.890760
C5    C     C_R   0.466975 0.529238 0.036534 0.080867
C6    C     C_R   0.410889 0.619853 0.001069 0.170650
C7    C     C_R   0.361012 0.628912 0.902790 -0.236454
C8    C     C_R   0.373628 0.553265 0.837787 -0.192240
C9    C     C_R   0.519813 0.524294 0.133693 -0.254067
C10   C     C_R   0.446555 0.686274 0.165840 -0.209906
C11   C     C_R   0.468590 0.399614 0.800647 -0.109769
C12   C     C_3   0.121826 0.499939 0.502553 0.116010
C13   C     C_R   0.324690 0.089265 0.344636 -0.309613
C14   C     C_R   0.649343 0.798507 0.631841 0.022665
C15   C     C_R   0.675592 0.901529 0.663741 -0.250522
C16   C     C_R   0.512829 0.561005 0.308839 0.852104
C17   C     C_R   0.616376 0.982679 0.615637 -0.216327
C18   C     C_R   0.531586 0.961264 0.533914 0.020611
C19   C     C_R   0.506883 0.854412 0.505289 0.241175
C20   C     C_R   0.470456 0.040953 0.479751 -0.013781
C21   C     C_R   0.384800 0.011725 0.399596 0.203516
C22   C     C_R   0.360504 0.905632 0.374563 -0.306284
C23   C     C_3   0.067688 0.484211 0.394624 -0.403809
C24   C     C_R   0.421086 0.828393 0.426567 -0.229261
C25   C     C_R   0.491813 0.149575 0.500634 -0.068211
C26   C     C_R   0.350863 0.195382 0.368598 0.005402
C27   C     C_R   0.258266 0.499812 0.500650 0.827176
C28   C     C_3   0.906745 0.404228 0.587608 0.422258
C29   C     C_3   0.052740 0.405924 0.584368 -0.431620
C30   C     C_3   0.924516 0.487996 0.393804 -0.442927
C31   C     C_3   0.956473 0.611729 0.528281 -0.427950
C32   C     C_3   0.878370 0.498719 0.503452 0.122997
C33   C     C_3   0.838960 0.237867 0.490377 -0.816918
C34   C     C_3   0.099134 0.610724 0.531113 -0.385913
C35   C     C_R   0.403546 0.699026 0.065407 -0.199415
C36   C     C_R   0.501234 0.596538 0.200356 -0.048360
C37   C     C_R   0.506945 0.301824 0.837268 -0.143172
C38   C     C_R   0.521536 0.274087 0.941795 -0.129755
C39   C     C_R   0.506559 0.346881 0.009487 -0.185780
H1    H     H_    0.151675 0.680636 0.475968 0.187709
H2    H     H_    0.549949 0.198064 0.970066 0.141807
H3    H     H_    0.332349 0.562653 0.762438 0.163688
H4    H     H_    0.306158 0.256947 0.326576 0.134612
H5    H     H_    0.295019 0.882306 0.313856 0.149215
H6    H     H_    0.259094 0.068200 0.283431 0.144169
H7    H     H_    0.555018 0.179616 0.559561 0.150068
H8    H     H_    0.693948 0.734612 0.669541 0.152684
H9    H     H_    0.638552 0.060677 0.644228 0.143422
H10   H     H_    0.740893 0.918264 0.725982 0.155266
H11   H     H_    0.398982 0.748730 0.403335 0.210010
H12   H     H_    0.910988 0.560191 0.339295 0.164854
H13   H     H_    0.095706 0.418104 0.660552 0.174388
H14   H     H_    0.071435 0.326060 0.568668 0.182962
H15   H     H_    0.867646 0.416638 0.361663 0.191066
H16   H     H_    0.081177 0.405228 0.372163 0.178381
H17   H     H_    0.941127 0.678934 0.468349 0.183965
H18   H     H_    0.925304 0.632735 0.602354 0.221248
H19   H     H_    0.135360 0.623088 0.609385 0.195988
H20   H     H_    0.823749 0.241095 0.647061 0.243021
H21   H     H_    0.819954 0.147943 0.514356 0.234183
H22   H     H_    0.935072 0.261038 0.452728 0.238944
H23   H     H_    0.120874 0.550404 0.336210 0.164194
H24   H     H_    0.764020 0.253171 0.434758 0.262839
H25   H     H_    0.431025 0.742738 0.217469 0.147443
H26   H     H_    0.314177 0.695530 0.875481 0.150768
H27   H     H_    0.359853 0.767923 0.039484 0.136108
H28   H     H_    0.571614 0.461636 0.161563 0.146529
H29   H     H_    0.529936 0.248700 0.784832 0.156009
H30   H     H_    0.520748 0.321263 0.089639 0.131632
N1    N     N_R   0.433240 0.222190 0.444680 -0.103571
N2    N     N_R   0.566070 0.776970 0.554790 -0.133967
N3    N     N_2   0.830404 0.293900 0.579213 -0.286833
O1    O     O_R   0.468120 0.366740 0.627160 -0.613865
O2    O     O_R   0.510770 0.544830 0.662520 -0.608707
O3    O     O_R   0.663880 0.410950 0.482330 -0.602087
O4    O     O_R   0.706530 0.589040 0.517700 -0.623908
O5    O     O_R   0.489230 0.455170 0.337480 -0.618241
O6    O     O_R   0.531880 0.633260 0.372840 -0.634676
O7    O     O_R   0.293470 0.410960 0.482300 -0.622750
O8    O     O_R   0.336120 0.589050 0.517670 -0.652555
Zn1   Zn    Zn3+2 0.471520 0.381090 0.476390 0.937830
Zn2   Zn    Zn3+2 0.528480 0.618910 0.523610 0.926659

loop_
_geom_bond_atom_site_label_1
_geom_bond_atom_site_label_2
_ccdc_geom_bond_type
C20   C25   A    
C7    H26   S    
C22   H5    S    
C6    C35   A    
C18   C19   A    
C31   H18   S    
C30   H12   S    
C2    C5    A    
C1    C11   S    
C35   H27   S    
C6    C7    A    
C13   H6    S    
C16   O6    A    
C14   N2    A    
C29   H14   S    
C39   H30   S    
C9    C36   A    
C14   H8    S    
C10   C35   A    
C18   C20   A    
C15   H10   S    
C12   C34   S    
C37   C38   A    
C28   N3    S    
C19   C24   A    
O4    Zn2   S    
C14   C15   A    
C28   C32   S    
H20   N3    S    
C33   H22   S    
C34   H19   S    
C17   C18   A    
C10   C36   A    
C26   H4    S    
C7    C8    A    
C4    C32   S    
C30   C32   S    
C12   C27   S    
C13   C26   A    
C3    C11   A    
C1    O1    A    
N1    Zn1   S    
C37   H29   S    
C20   C21   A    
C25   N1    A    
C31   H17   S    
O1    Zn1   S    
C27   O7    A    
Br1   C28   S    
O8    Zn2   S    
C38   H2    S    
C29   H13   S    
C8    H3    S    
C31   C34   S    
C12   C29   S    
O7    Zn1   S    
O3    Zn1   S    
C38   C39   A    
C33   H21   S    
C12   C23   S    
C24   H11   S    
C28   C29   S    
O5    Zn1   S    
C33   H24   S    
C16   C36   S    
C25   H7    S    
C2    C39   A    
C23   H23   S    
C4    O4    A    
C2    C3    A    
C26   N1    A    
C27   O8    A    
C5    C9    A    
C5    C6    A    
C9    H28   S    
C23   H16   S    
C31   C32   S    
C13   C21   A    
C4    O3    A    
C23   C30   S    
O6    Zn2   S    
O2    Zn2   S    
C16   O5    A    
C22   C24   A    
C11   C37   A    
C34   H1    S    
N2    Zn2   S    
C33   N3    S    
C15   C17   A    
C21   C22   A    
C19   N2    A    
C30   H15   S    
C3    C8    A    
C1    O2    A    
C10   H25   S    
C17   H9    S    
