data_mof_unit_64283.cif
_audit_creation_date              2012-12-10T19:46:45-0500
_audit_creation_method            fapswitch 2.2
_symmetry_space_group_name_H-M    P1
_symmetry_Int_Tables_number       1
_space_group_crystal_system       monoclinic
_cell_length_a                    28.236364
_cell_length_b                    18.272252
_cell_length_c                    21.658079
_cell_angle_alpha                 90.0
_cell_angle_beta                  139.679659
_cell_angle_gamma                 90.0
_cell_volume                      7230.45570663

loop_
_atom_site_label
_atom_site_type_symbol
_atom_type_description
_atom_site_fract_x
_atom_site_fract_y
_atom_site_fract_z
_atom_type_partial_charge
C1    C     C_R   0.858747 0.500005 0.858584 0.926807
C2    C     C_R   0.141253 0.499995 0.141415 0.926807
C3    C     C_R   0.358747 0.999995 0.858584 0.926806
C4    C     C_R   0.641253 0.000005 0.141415 0.926806
C5    C     C_R   0.040626 0.455769 0.822064 -0.202597
C6    C     C_R   0.959374 0.544231 0.177936 -0.202597
C7    C     C_R   0.540627 0.044230 0.822065 -0.202597
C8    C     C_R   0.459374 0.955769 0.177936 -0.202597
C9    C     C_R   0.043560 0.458770 0.761623 -0.202035
C10   C     C_R   0.956440 0.541230 0.238376 -0.202036
C11   C     C_R   0.543560 0.041229 0.761624 -0.202035
C12   C     C_R   0.456440 0.958770 0.238376 -0.202036
C13   C     C_R   0.998428 0.507220 0.684800 -0.106497
C14   C     C_R   0.001572 0.492780 0.315200 -0.106497
C15   C     C_R   0.498428 0.992780 0.684800 -0.106497
C16   C     C_R   0.501572 0.007220 0.315200 -0.106497
C17   C     C_1   0.782274 0.500020 0.781822 -0.195030
C18   C     C_1   0.217726 0.499980 0.218178 -0.195030
C19   C     C_1   0.282274 0.999980 0.781822 -0.195030
C20   C     C_1   0.717726 0.000020 0.218178 -0.195030
C21   C     C_1   0.717491 0.500024 0.716979 -0.184013
C22   C     C_1   0.282509 0.499975 0.283021 -0.184014
C23   C     C_1   0.217491 0.999975 0.716979 -0.184013
C24   C     C_1   0.782509 0.000024 0.283021 -0.184014
C25   C     C_R   0.999995 0.641270 0.500030 0.927249
C26   C     C_R   0.000005 0.358730 0.499970 0.927249
C27   C     C_R   0.500005 0.141270 0.499970 0.927250
C28   C     C_R   0.499995 0.858730 0.500030 0.927250
C29   C     C_R   0.999697 0.503198 0.619949 0.869429
C30   C     C_R   0.000303 0.496802 0.380051 0.869429
C31   C     C_R   0.499697 0.996802 0.619949 0.869429
C32   C     C_R   0.500303 0.003198 0.380051 0.869430
C33   C     C_R   0.499987 0.640999 0.499991 0.925804
C34   C     C_R   0.500013 0.359001 0.500008 0.925804
C35   C     C_R   0.000013 0.140999 0.500008 0.925804
C36   C     C_R   0.999987 0.859001 0.499991 0.925804
C37   C     C_R   0.641003 0.500014 0.640834 0.925757
C38   C     C_R   0.358996 0.499986 0.359166 0.925758
C39   C     C_R   0.141003 0.999986 0.640834 0.925757
C40   C     C_R   0.858997 0.000014 0.359166 0.925758
C41   C     C_1   0.999980 0.717741 0.500028 -0.194758
C42   C     C_1   0.000020 0.282259 0.499972 -0.194758
C43   C     C_1   0.500019 0.217741 0.499972 -0.194758
C44   C     C_1   0.499980 0.782259 0.500028 -0.194757
C45   C     C_R   0.996702 0.500085 0.876496 0.869744
C46   C     C_R   0.003298 0.499915 0.123503 0.869744
C47   C     C_R   0.496702 0.999915 0.876497 0.869743
C48   C     C_R   0.503297 0.000085 0.123503 0.869744
C49   C     C_1   0.500023 0.282521 0.499996 -0.184089
C50   C     C_1   0.499976 0.717479 0.500004 -0.184089
C51   C     C_1   0.999977 0.782520 0.500004 -0.184089
C52   C     C_1   0.000023 0.217479 0.499996 -0.184089
C53   C     C_R   0.891075 0.591436 0.705404 -0.172911
C54   C     C_R   0.108925 0.408565 0.294597 -0.172912
C55   C     C_R   0.391074 0.908565 0.705403 -0.172910
C56   C     C_R   0.608925 0.091435 0.294597 -0.172911
C57   C     C_R   0.847896 0.641684 0.630570 -0.133906
C58   C     C_R   0.152104 0.358317 0.369430 -0.133906
C59   C     C_R   0.347894 0.858318 0.630569 -0.133906
C60   C     C_R   0.652104 0.141683 0.369430 -0.133906
C61   C     C_R   0.856906 0.650803 0.576250 -0.134312
C62   C     C_R   0.143094 0.349197 0.423751 -0.134312
C63   C     C_R   0.356905 0.849198 0.576248 -0.134312
C64   C     C_R   0.643094 0.150803 0.423751 -0.134312
C65   C     C_R   0.907326 0.607899 0.594378 -0.172904
C66   C     C_R   0.092675 0.392101 0.405622 -0.172905
C67   C     C_R   0.407324 0.892102 0.594377 -0.172905
C68   C     C_R   0.592675 0.107898 0.405622 -0.172904
C69   C     C_R   0.949806 0.554670 0.667801 0.098317
C70   C     C_R   0.050194 0.445331 0.332199 0.098317
C71   C     C_R   0.449805 0.945331 0.667801 0.098317
C72   C     C_R   0.550194 0.054669 0.332199 0.098317
C73   C     C_R   0.944437 0.549212 0.727166 0.098287
C74   C     C_R   0.055563 0.450788 0.272834 0.098287
C75   C     C_R   0.444437 0.950788 0.727166 0.098286
C76   C     C_R   0.555563 0.049212 0.272834 0.098287
C77   C     C_R   0.992189 0.500848 0.805920 -0.106728
C78   C     C_R   0.007811 0.499152 0.194080 -0.106728
C79   C     C_R   0.492189 0.999152 0.805920 -0.106727
C80   C     C_R   0.507811 0.000848 0.194080 -0.106728
H1    H     H_    0.077166 0.418913 0.882659 0.161507
H2    H     H_    0.922833 0.581087 0.117340 0.161506
H3    H     H_    0.577168 0.081086 0.882661 0.161506
H4    H     H_    0.422833 0.918913 0.117340 0.161507
H5    H     H_    0.881389 0.585549 0.744755 0.150961
H6    H     H_    0.118612 0.414452 0.255246 0.150960
H7    H     H_    0.381388 0.914453 0.744754 0.150959
H8    H     H_    0.618612 0.085548 0.255246 0.150960
H9    H     H_    0.807695 0.674043 0.615161 0.141910
H10   H     H_    0.192306 0.325957 0.384840 0.141910
H11   H     H_    0.307693 0.825959 0.615159 0.141910
H12   H     H_    0.692306 0.174043 0.384839 0.141910
H13   H     H_    0.824345 0.690894 0.519393 0.141705
H14   H     H_    0.175655 0.309107 0.480607 0.141705
H15   H     H_    0.324343 0.809108 0.519391 0.141705
H16   H     H_    0.675655 0.190893 0.480607 0.141705
H17   H     H_    0.080558 0.422401 0.774097 0.161671
H18   H     H_    0.919441 0.577598 0.225902 0.161671
H19   H     H_    0.580560 0.077597 0.774099 0.161672
H20   H     H_    0.419441 0.922402 0.225902 0.161672
O1    O     O_R   0.892670 0.439420 0.892670 -0.613580
O2    O     O_R   0.107330 0.560580 0.107330 -0.613580
O3    O     O_R   0.107330 0.439420 0.107330 -0.628975
O4    O     O_R   0.892670 0.560580 0.892670 -0.628975
O5    O     O_R   0.392670 0.939420 0.892670 -0.628974
O6    O     O_R   0.607330 0.060580 0.107330 -0.628975
O7    O     O_R   0.607330 0.939420 0.107330 -0.613580
O8    O     O_R   0.392670 0.060580 0.892670 -0.613580
O9    O     O_R   0.999990 0.439420 0.908380 -0.620441
O10   O     O_R   0.000010 0.560580 0.091620 -0.620440
O11   O     O_R   0.000010 0.439420 0.091620 -0.624897
O12   O     O_R   0.999990 0.560580 0.908380 -0.624898
O13   O     O_R   0.499990 0.939420 0.908380 -0.624897
O14   O     O_R   0.500010 0.060580 0.091620 -0.624897
O15   O     O_R   0.500010 0.939420 0.091620 -0.620440
O16   O     O_R   0.499990 0.060580 0.908380 -0.620440
O17   O     O_R   0.060590 0.607350 0.560620 -0.613734
O18   O     O_R   0.939410 0.392650 0.439380 -0.613734
O19   O     O_R   0.939410 0.607350 0.439380 -0.628826
O20   O     O_R   0.060590 0.392650 0.560620 -0.628826
O21   O     O_R   0.560590 0.107350 0.560620 -0.628826
O22   O     O_R   0.439410 0.892650 0.439380 -0.628826
O23   O     O_R   0.439410 0.107350 0.439380 -0.613734
O24   O     O_R   0.560590 0.892650 0.560620 -0.613734
O25   O     O_R   0.060610 0.500000 0.652240 -0.619281
O26   O     O_R   0.939390 0.500000 0.347760 -0.619282
O27   O     O_R   0.560610 0.000000 0.652240 -0.619281
O28   O     O_R   0.439390 0.000000 0.347760 -0.619282
O29   O     O_R   0.939430 0.500000 0.531050 -0.626444
O30   O     O_R   0.060570 0.500000 0.468950 -0.626444
O31   O     O_R   0.439430 1.000000 0.531050 -0.626444
O32   O     O_R   0.560570 1.000000 0.468950 -0.626444
O33   O     O_R   0.500010 0.607330 0.448300 -0.619488
O34   O     O_R   0.499990 0.392670 0.551700 -0.619488
O35   O     O_R   0.499990 0.607330 0.551700 -0.620055
O36   O     O_R   0.500010 0.392670 0.448300 -0.620056
O37   O     O_R   0.000010 0.107330 0.448300 -0.620056
O38   O     O_R   0.999990 0.892670 0.551700 -0.620056
O39   O     O_R   0.999990 0.107330 0.551700 -0.619488
O40   O     O_R   0.000010 0.892670 0.448300 -0.619488
O41   O     O_R   0.607330 0.500000 0.555630 -0.621472
O42   O     O_R   0.392670 0.500000 0.444370 -0.621472
O43   O     O_R   0.107330 0.000000 0.555630 -0.621472
O44   O     O_R   0.892670 1.000000 0.444370 -0.621472
O45   O     O_R   0.607340 0.500000 0.659080 -0.618030
O46   O     O_R   0.392660 0.500000 0.340920 -0.618030
O47   O     O_R   0.107340 0.000000 0.659080 -0.618030
O48   O     O_R   0.892660 1.000000 0.340920 -0.618030
Zn1   Zn    Zn3+2 1.000000 0.419100 0.000000 0.962394
Zn2   Zn    Zn3+2 0.000000 0.580900 0.000000 0.962394
Zn3   Zn    Zn3+2 0.500000 0.919100 0.000000 0.962395
Zn4   Zn    Zn3+2 0.500000 0.080900 0.000000 0.962395
Zn5   Zn    Zn3+2 0.080920 0.500000 0.580940 0.962089
Zn6   Zn    Zn3+2 0.919080 0.500000 0.419060 0.962089
Zn7   Zn    Zn3+2 0.580920 1.000000 0.580940 0.962089
Zn8   Zn    Zn3+2 0.419080 1.000000 0.419060 0.962089
Zn9   Zn    Zn3+2 0.500000 0.500000 0.430940 0.970081
Zn10  Zn    Zn3+2 0.500000 0.500000 0.569060 0.970082
Zn11  Zn    Zn3+2 0.000000 1.000000 0.430940 0.970081
Zn12  Zn    Zn3+2 0.000000 1.000000 0.569060 0.970082
H21   H     H_    0.913130 0.617719 0.551182 0.151292
H22   H     H_    0.086870 0.382281 0.448818 0.151292
H23   H     H_    0.413129 0.882282 0.551181 0.151293
H24   H     H_    0.586870 0.117719 0.448818 0.151292

loop_
_geom_bond_atom_site_label_1
_geom_bond_atom_site_label_2
_ccdc_geom_bond_type
C58   C62   A    
C7    H3    S    
C30   O26   A    
C6    H2    S    
C55   C59   A    
C2    C18   S    
C38   O42   A    
O13   Zn3   S    
C19   C23   T    
C65   H21   S    
C16   C72   A    
C31   O27   A    
C72   C76   A    
C15   C31   S    
C27   O21   A    
C45   O12   A    
O46   Zn9   S    
C3    O5    A    
C7    C11   A    
O3    Zn1   S    
C37   O41   A    
C56   C76   A    
C64   C68   A    
C13   C29   S    
O31   Zn8   S    
O42   Zn10  S    
C29   O25   A    
O40   Zn11  S    
O29   Zn6   S    
C45   O9    A    
C56   H8    S    
C34   O34   A    
C22   C38   S    
C63   H15   S    
C27   O23   A    
O32   Zn7   S    
C66   H22   S    
C11   H19   S    
O4    Zn2   S    
C10   H18   S    
C9    C13   A    
C38   O46   A    
C31   O31   A    
C35   O39   A    
O8    Zn4   S    
C48   O14   A    
C11   C15   A    
C29   O29   A    
C12   C16   A    
C34   C49   S    
C70   C74   A    
C3    C19   S    
O14   Zn4   S    
O44   Zn12  S    
C67   C71   A    
C8    C12   A    
C55   C75   A    
C60   H12   S    
O35   Zn10  S    
C54   C74   A    
C46   O11   A    
C14   C70   A    
C14   C30   S    
O47   Zn12  S    
O11   Zn1   S    
O25   Zn5   S    
O23   Zn8   S    
C68   H24   S    
C47   O16   A    
O5    Zn3   S    
C4    O7    A    
C63   C67   A    
O6    Zn4   S    
O37   Zn11  S    
C76   C80   A    
C64   H16   S    
C10   C14   A    
O27   Zn7   S    
C54   H6    S    
C62   C66   A    
C43   C49   T    
C33   C50   S    
C30   O30   A    
C4    O6    A    
C46   C78   S    
C28   C44   S    
C17   C21   T    
C56   C60   A    
C25   O17   A    
O48   Zn11  S    
O9    Zn1   S    
C62   H14   S    
C5    C9    A    
C27   C43   S    
C5    H1    S    
C33   O35   A    
C34   O36   A    
C68   C72   A    
C59   H11   S    
C69   C73   A    
C58   H10   S    
C1    O4    A    
C36   C51   S    
C57   H9    S    
O2    Zn2   S    
C48   O15   A    
O36   Zn9   S    
O26   Zn6   S    
O41   Zn9   S    
O34   Zn10  S    
C39   O43   A    
O39   Zn12  S    
O19   Zn6   S    
C46   O10   A    
O17   Zn5   S    
C5    C77   A    
O12   Zn2   S    
C75   C79   A    
C25   C41   S    
C1    O1    A    
O16   Zn4   S    
C26   C42   S    
C7    C79   A    
C54   C58   A    
C28   O22   A    
C44   C50   T    
C47   O13   A    
C40   O48   A    
C9    H17   S    
O21   Zn7   S    
C32   O32   A    
O15   Zn3   S    
C8    H4    S    
O22   Zn8   S    
C33   O33   A    
C53   C73   A    
C26   O18   A    
C26   O20   A    
O10   Zn2   S    
C53   C57   A    
C6    C10   A    
C53   H5    S    
C28   O24   A    
C57   C61   A    
C3    O8    A    
C16   C32   S    
C15   C71   A    
C59   C63   A    
C25   O19   A    
C40   O44   A    
C60   C64   A    
C32   O28   A    
C18   C22   T    
O7    Zn3   S    
C47   C79   S    
C35   O37   A    
C71   C75   A    
O45   Zn10  S    
C48   C80   S    
C66   C70   A    
C13   C69   A    
C2    O3    A    
C65   C69   A    
O1    Zn1   S    
O20   Zn5   S    
C24   C40   S    
C41   C51   T    
O18   Zn6   S    
O30   Zn5   S    
O33   Zn9   S    
O43   Zn11  S    
C36   O40   A    
C61   C65   A    
C55   H7    S    
C20   C24   T    
C12   H20   S    
C6    C78   A    
O28   Zn8   S    
C4    C20   S    
C67   H23   S    
O38   Zn12  S    
C21   C37   S    
C1    C17   S    
C73   C77   A    
C74   C78   A    
O24   Zn7   S    
C39   O47   A    
C35   C52   S    
C8    C80   A    
C2    O2    A    
C45   C77   S    
C37   O45   A    
C61   H13   S    
C36   O38   A    
C23   C39   S    
C42   C52   T    
