data_mof_unit_7177.cif
_audit_creation_date              2012-12-10T19:44:34-0500
_audit_creation_method            fapswitch 2.2
_symmetry_space_group_name_H-M    P1
_symmetry_Int_Tables_number       1
_space_group_crystal_system       triclinic
_cell_length_a                    8.62022
_cell_length_b                    15.098419
_cell_length_c                    14.261516
_cell_angle_alpha                 89.919463
_cell_angle_beta                  99.244512
_cell_angle_gamma                 92.151708
_cell_volume                      1830.74031254

loop_
_atom_site_label
_atom_site_type_symbol
_atom_type_description
_atom_site_fract_x
_atom_site_fract_y
_atom_site_fract_z
_atom_type_partial_charge
C1    C     C_R   0.505847 0.327848 0.500674 0.984838
C2    C     C_R   0.439824 0.424576 0.887129 0.219424
C3    C     C_R   0.500668 0.497000 0.053416 -0.148091
C4    C     C_R   0.500918 0.497713 0.946308 -0.208932
C5    C     C_R   0.201122 0.500568 0.475044 0.926506
C6    C     C_R   0.799051 0.502004 0.525123 0.942997
C7    C     C_2   0.035728 0.500202 0.462342 -0.360638
C8    C     C_2   0.964763 0.507350 0.538381 -0.411437
C9    C     C_R   0.405841 0.097754 0.565964 0.360827
C10   C     C_R   0.397577 0.903598 0.414420 0.376779
C11   C     C_R   0.455821 0.185597 0.577767 0.310686
C12   C     C_R   0.489036 0.671803 0.499139 0.970422
C13   C     C_R   0.408775 0.811226 0.413141 0.271282
C14   C     C_R   0.505369 0.231451 0.501297 -0.437199
C15   C     C_R   0.464939 0.767062 0.498515 -0.425238
C16   C     C_R   0.548642 0.183524 0.425482 0.261311
C17   C     C_R   0.494215 0.814751 0.584792 0.283184
C18   C     C_R   0.546070 0.091032 0.430672 0.394415
C19   C     C_R   0.505213 0.906381 0.583700 0.370856
C20   C     C_R   0.463847 0.047932 0.496499 -0.181643
C21   C     C_R   0.455596 0.951220 0.498402 -0.153383
C22   C     C_3   0.176341 0.029663 0.592313 0.132043
C23   C     C_R   0.366046 0.467926 0.092210 0.221924
C24   C     C_3   0.095475 0.985385 0.667653 -0.855407
C25   C     C_3   0.181255 0.958172 0.322923 0.101497
C26   C     C_3   0.119746 0.994169 0.224959 -0.812324
C27   C     C_3   0.627398 0.209525 0.712990 0.174052
C28   C     C_3   0.647131 0.236711 0.816841 -0.739671
C29   C     C_3   0.434151 0.769097 0.262379 0.189302
C30   C     C_3   0.347902 0.722956 0.173354 -0.870880
C31   C     C_3   0.513901 0.217100 0.268118 0.192034
C32   C     C_3   0.592713 0.258353 0.189859 -0.810858
C33   C     C_3   0.366576 0.763332 0.704095 0.246995
C34   C     C_R   0.563587 0.571732 0.900912 0.257241
C35   C     C_3   0.379853 0.802622 0.803383 -0.831006
C36   C     C_3   0.778260 0.026626 0.419188 0.157357
C37   C     C_3   0.815121 0.930751 0.402532 -0.919879
C38   C     C_3   0.712169 0.949800 0.697440 0.136607
C39   C     C_3   0.750513 0.961030 0.804786 -0.808121
C40   C     C_3   0.107885 0.452841 0.211346 0.192410
C41   C     C_3   0.987436 0.383179 0.234204 -0.781542
C42   C     C_3   0.819930 0.611938 0.771503 0.201479
C43   C     C_3   0.920228 0.663968 0.852325 -0.850687
C44   C     C_3   0.819474 0.648891 0.249174 0.166533
C45   C     C_R   0.370915 0.465838 0.192495 0.414940
C46   C     C_3   0.887912 0.705175 0.335420 -0.880159
C47   C     C_3   0.184172 0.357280 0.737937 0.182489
C48   C     C_3   0.137796 0.259305 0.743169 -0.700712
C49   C     C_R   0.577776 0.566187 0.803848 0.445621
C50   C     C_R   0.627463 0.534773 0.216456 0.435078
C51   C     C_R   0.421680 0.433046 0.787009 0.429539
C52   C     C_R   0.636517 0.524146 0.118278 0.201201
H1    H     H_    0.972224 0.492149 0.390864 0.221522
H2    H     H_    0.141926 0.946898 0.169414 0.258431
H3    H     H_    0.991217 0.003458 0.217950 0.212171
H4    H     H_    0.179633 0.059039 0.214521 0.248054
H5    H     H_    0.713154 0.249692 0.678356 0.105103
H6    H     H_    0.656923 0.138583 0.710908 0.135600
H7    H     H_    0.761030 0.213694 0.854926 0.177982
H8    H     H_    0.648501 0.309828 0.822856 0.245534
H9    H     H_    0.550312 0.206633 0.850515 0.287033
H10   H     H_    0.545588 0.735638 0.285910 0.147867
H11   H     H_    0.462394 0.838620 0.243511 0.189334
H12   H     H_    0.027798 0.517614 0.610087 0.146953
H13   H     H_    0.237906 0.757371 0.146770 0.262801
H14   H     H_    0.423610 0.724277 0.117387 0.192584
H15   H     H_    0.317591 0.653088 0.189328 0.239293
H16   H     H_    0.402697 0.251524 0.270927 0.173633
H17   H     H_    0.484862 0.146308 0.248819 0.172716
H18   H     H_    0.706256 0.226770 0.187260 0.254172
H19   H     H_    0.515085 0.247975 0.120585 0.209935
H20   H     H_    0.614604 0.330439 0.202970 0.243633
H21   H     H_    0.335220 0.691534 0.707832 0.146087
H22   H     H_    0.266315 0.794325 0.657597 0.076974
H23   H     H_    0.180493 0.979051 0.536720 0.109959
H24   H     H_    0.268866 0.788818 0.831843 0.188831
H25   H     H_    0.478340 0.773313 0.851341 0.303675
H26   H     H_    0.402076 0.875362 0.801460 0.282916
H27   H     H_    0.796498 0.038150 0.497639 0.087973
H28   H     H_    0.863817 0.070762 0.389200 0.155336
H29   H     H_    0.807426 0.917789 0.325285 0.262297
H30   H     H_    0.935008 0.917061 0.439395 0.192580
H31   H     H_    0.731024 0.885214 0.431540 0.243725
H32   H     H_    0.767434 0.006144 0.663349 0.106227
H33   H     H_    0.763627 0.886657 0.678964 0.152590
H34   H     H_    0.105271 0.085745 0.561053 0.099867
H35   H     H_    0.702724 0.902937 0.840194 0.272892
H36   H     H_    0.879963 0.965880 0.827273 0.203844
H37   H     H_    0.698531 0.021999 0.827532 0.254911
H38   H     H_    0.214979 0.472463 0.976737 0.337179
H39   H     H_    0.558069 0.655791 0.002954 0.338769
H40   H     H_    0.071608 0.473046 0.136895 0.197360
H41   H     H_    0.102717 0.513184 0.254574 0.146005
H42   H     H_    0.021526 0.358153 0.307597 0.247774
H43   H     H_    0.870073 0.411899 0.228027 0.240710
H44   H     H_    0.980603 0.326657 0.183777 0.249507
H45   H     H_    0.056478 0.036193 0.714120 0.243847
H46   H     H_    0.860496 0.632908 0.704527 0.151572
H47   H     H_    0.842525 0.539730 0.780031 0.083120
H48   H     H_    0.900201 0.637107 0.921977 0.290981
H49   H     H_    0.046664 0.657956 0.847288 0.180499
H50   H     H_    0.891556 0.735131 0.847831 0.279677
H51   H     H_    0.731688 0.688075 0.202156 0.120860
H52   H     H_    0.918104 0.634997 0.210693 0.198804
H53   H     H_    0.987382 0.671473 0.378313 0.266871
H54   H     H_    0.932292 0.769842 0.311542 0.218997
H55   H     H_    0.796961 0.716732 0.380540 0.251862
H56   H     H_    0.993790 0.944526 0.632087 0.181559
H57   H     H_    0.113046 0.384531 0.673603 0.123492
H58   H     H_    0.151252 0.391987 0.800510 0.114093
H59   H     H_    0.211377 0.227999 0.804423 0.294650
H60   H     H_    0.012337 0.251577 0.751920 0.155989
H61   H     H_    0.153800 0.225047 0.676754 0.256578
H62   H     H_    0.782978 0.502039 0.030967 0.353890
H63   H     H_    0.459530 0.337888 0.988015 0.360181
H64   H     H_    0.176448 0.940872 0.711700 0.278969
H65   H     H_    0.155827 0.006668 0.376436 0.111056
H66   H     H_    0.118141 0.893702 0.331211 0.159933
N1    N     N_R   0.500000 0.499980 0.252470 -0.205434
N2    N     N_R   0.500000 0.500020 0.747530 -0.249184
O1    O     O_R   0.500010 0.369070 0.579480 -0.544019
O2    O     O_3   0.344470 0.947865 0.330987 -0.566070
O3    O     O_3   0.471350 0.222683 0.667457 -0.497166
O4    O     O_3   0.338485 0.763336 0.333820 -0.585878
O5    O     O_3   0.616741 0.226395 0.355580 -0.577566
O6    O     O_3   0.513946 0.773031 0.672013 -0.523392
O7    O     O_3   0.624786 0.043018 0.371702 -0.556754
O8    O     O_3   0.548077 0.951344 0.668971 -0.540972
O9    O     O_3   0.232703 0.435148 0.034385 -0.735413
O10   O     O_3   0.614562 0.649652 0.948373 -0.732042
O11   O     O_3   0.258604 0.416317 0.231262 -0.575201
O12   O     O_R   0.499990 0.630930 0.420520 -0.592838
O13   O     O_3   0.659476 0.632713 0.763888 -0.514289
O14   O     O_3   0.754860 0.568502 0.280106 -0.585420
O15   O     O_3   0.345159 0.366658 0.728496 -0.498592
O16   O     O_3   0.780918 0.537249 0.089229 -0.788972
O17   O     O_3   0.399484 0.343675 0.923304 -0.719117
O18   O     O_R   0.500010 0.369060 0.420520 -0.568183
O19   O     O_R   0.499990 0.630940 0.579480 -0.565979
O20   O     O_R   0.271750 0.500000 0.560890 -0.621581
O21   O     O_R   0.728250 0.500000 0.439110 -0.545499
O22   O     O_R   0.271750 0.499990 0.401930 -0.603740
O23   O     O_R   0.728250 0.500010 0.598070 -0.663270
O24   O     O_3   0.328144 0.059738 0.634477 -0.516516
Zn1   Zn    Zn3+2 0.500000 0.500010 0.606140 0.986282
Zn2   Zn    Zn3+2 0.500000 0.499990 0.393860 1.022923

loop_
_geom_bond_atom_site_label_1
_geom_bond_atom_site_label_2
_ccdc_geom_bond_type
C29   H11   S    
C23   C45   A    
O22   Zn2   S    
C3    C23   A    
C39   H35   S    
C40   H41   S    
C26   H3    S    
C44   H52   S    
C7    C8    D    
C32   H20   S    
H39   O10   S    
N1    Zn2   S    
C42   O13   S    
C39   H36   S    
C36   C37   S    
C19   C21   A    
O18   Zn2   S    
C42   H46   S    
C38   C39   S    
C11   C14   A    
C17   O6    S    
C41   H44   S    
C29   O4    S    
C19   O8    S    
C46   H53   S    
C23   O9    S    
C15   C17   A    
C50   O14   S    
C17   C19   A    
H38   O9    S    
C51   O15   S    
C44   H51   S    
H63   O17   S    
C50   C52   A    
C24   H56   S    
C16   O5    S    
C18   C20   A    
C30   H15   S    
C38   H32   S    
C28   H9    S    
C45   N1    A    
N2    Zn1   S    
C25   H66   S    
C37   H29   S    
C22   H23   S    
C26   H2    S    
C9    O24   S    
C44   C46   S    
C32   H19   S    
C28   H8    S    
C10   C21   A    
C44   O14   S    
C31   H16   S    
C4    C34   A    
C35   H24   S    
C38   H33   S    
C24   H45   S    
C43   H48   S    
C27   H5    S    
C5    C7    S    
C13   O4    S    
C27   O3    S    
C6    C8    S    
C25   C26   S    
C47   H57   S    
C10   C13   A    
C50   N1    A    
C25   H65   S    
C2    C4    A    
C43   H49   S    
C29   C30   S    
C18   O7    S    
C9    C20   A    
C38   O8    S    
C47   C48   S    
C12   C15   S    
C46   H55   S    
C51   N2    A    
C12   O19   A    
C40   H40   S    
C6    O21   A    
C9    C11   A    
C30   H14   S    
O21   Zn2   S    
C8    H12   S    
C33   H21   S    
C40   C41   S    
C48   H60   S    
C40   O11   S    
C24   H64   S    
C13   C15   A    
C36   H28   S    
C52   O16   S    
O1    Zn1   S    
C14   C16   A    
C37   H30   S    
C36   O7    S    
C42   C43   S    
C31   O5    S    
C3    C4    S    
C5    O20   A    
C25   O2    S    
C28   H7    S    
O23   Zn1   S    
C49   O13   S    
C29   H10   S    
O19   Zn1   S    
C34   C49   A    
H62   O16   S    
C12   O12   A    
C47   O15   S    
C2    O17   S    
C31   C32   S    
C11   O3    S    
C10   O2    S    
C36   H27   S    
C26   H4    S    
O20   Zn1   S    
C32   H18   S    
C3    C52   A    
C45   O11   S    
C41   H42   S    
C47   H58   S    
C35   H26   S    
O12   Zn2   S    
C43   H50   S    
C42   H47   S    
C5    O22   A    
C41   H43   S    
C27   H6    S    
C46   H54   S    
C33   O6    S    
C33   C35   S    
C35   H25   S    
C22   C24   S    
C22   H34   S    
C1    O1    A    
C30   H13   S    
C2    C51   A    
C49   N2    A    
C33   H22   S    
C31   H17   S    
C48   H59   S    
C20   C21   S    
C34   O10   S    
C16   C18   A    
C22   O24   S    
C27   C28   S    
C7    H1    S    
C37   H31   S    
C1    C14   S    
C6    O23   A    
C39   H37   S    
C1    O18   A    
C48   H61   S    
