data_mof_unit_61898.cif
_audit_creation_date              2012-12-11T17:45:03-0500
_audit_creation_method            fapswitch 2.2
_symmetry_space_group_name_H-M    P1
_symmetry_Int_Tables_number       1
_space_group_crystal_system       triclinic
_cell_length_a                    6.963133
_cell_length_b                    21.070747
_cell_length_c                    23.15444
_cell_angle_alpha                 101.374629
_cell_angle_beta                  89.838859
_cell_angle_gamma                 90.942726
_cell_volume                      3330.00616295

loop_
_atom_site_label
_atom_site_type_symbol
_atom_type_description
_atom_site_fract_x
_atom_site_fract_y
_atom_site_fract_z
_atom_type_partial_charge
O1    O     O_R   0.505780 0.447360 0.554530 -0.537811
O2    O     O_R   0.171080 0.428590 0.433940 -0.526679
O3    O     O_R   0.005580 0.552640 0.445470 -0.534331
C1    C     C_R   0.339081 0.410903 0.412430 0.747082
O4    O     O_R   0.175750 0.439670 0.553370 -0.524811
O5    O     O_R   0.010280 0.563800 0.565750 -0.530638
C2    C     C_R   0.342652 0.427395 0.573244 0.763396
O6    O     O_R   0.501080 0.436200 0.434250 -0.540672
O7    O     O_3   0.340780 0.540710 0.503920 -0.377243
V1    V     V_3+5 0.064050 0.492450 0.499270 1.546424
O8    O     O_R   0.680840 0.571410 0.566060 -0.536159
C3    C     C_R   0.850138 0.589079 0.587702 0.764177
O9    O     O_R   0.676170 0.560330 0.446630 -0.533477
C4    C     C_R   0.845614 0.573708 0.427717 0.817736
V2    V     V_3+5 0.564640 0.507550 0.500730 1.526929
O10   O     O_3   0.837780 0.459290 0.496080 -0.368735
C5    C     C_R   0.857632 0.618045 0.384858 -0.248155
C6    C     C_R   0.742894 0.674054 0.392557 0.322157
C7    C     C_R   0.767175 0.718983 0.354953 0.215199
C8    C     C_R   0.890241 0.704873 0.305570 0.273490
C9    C     C_R   0.999704 0.648801 0.297624 -0.226681
C10   C     C_R   0.985115 0.605701 0.336426 0.161885
C11   C     C_R   0.938614 0.829419 0.185995 -0.188570
C12   C     C_R   0.939619 0.872035 0.146752 -0.202777
C13   C     C_R   0.766492 0.802712 0.202329 0.282411
N1    N     N_2   0.911559 0.746424 0.264058 -0.244183
N2    N     N_2   0.754784 0.761793 0.244973 -0.193648
C14   C     C_R   0.773341 0.881648 0.115576 -0.172735
H1    H     H_    0.071574 0.897309 0.140544 0.201288
H2    H     H_    0.070408 0.818694 0.204852 0.218734
H3    H     H_    0.095986 0.638108 0.260262 0.204195
C15   C     C_R   0.601161 0.850716 0.128892 0.159564
C16   C     C_R   0.595857 0.818571 0.176933 0.421104
C17   C     C_1   0.861078 0.641696 0.638887 -0.117251
C18   C     C_2   0.895588 0.739109 0.732240 0.293874
C19   C     C_2   0.745091 0.761504 0.766850 -0.157777
C20   C     C_1   0.761227 0.814570 0.818035 0.150244
C21   C     C_1   0.873053 0.685863 0.681542 0.030298
C22   C     C_1   0.770361 0.858529 0.860922 -0.086177
H4    H     H_    0.604031 0.739399 0.756810 0.159318
C23   C     C_1   0.283058 0.143041 0.137349 -0.148384
C24   C     C_2   0.246027 0.245184 0.226873 0.422855
C25   C     C_2   0.375770 0.257446 0.271382 0.174488
C26   C     C_1   0.357215 0.312459 0.320438 0.117500
C27   C     C_1   0.270304 0.188773 0.178357 -0.048436
C28   C     C_1   0.346991 0.357607 0.362060 -0.114808
C29   C     C_R   0.344872 0.383474 0.616462 -0.154537
C30   C     C_R   0.192361 0.381637 0.657118 0.196528
C31   C     C_R   0.189481 0.334439 0.692904 0.246972
C32   C     C_R   0.342985 0.290822 0.690289 0.329231
C33   C     C_R   0.494264 0.294063 0.651012 -0.131964
C34   C     C_R   0.496271 0.339973 0.614926 -0.208425
C35   C     C_R   0.433707 0.155401 0.800758 0.255773
C36   C     C_R   0.416521 0.108426 0.836524 0.117866
C37   C     C_R   0.310801 0.209488 0.810483 0.280578
N3    N     N_2   0.341853 0.240141 0.722946 -0.180500
N4    N     N_2   0.319331 0.259630 0.777026 -0.187591
C38   C     C_R   0.286160 0.117147 0.884441 -0.244546
H5    H     H_    0.610886 0.260172 0.647931 0.200791
H6    H     H_    0.614239 0.340123 0.584348 0.175714
C39   C     C_R   0.163609 0.170731 0.893460 0.360950
C40   C     C_R   0.179602 0.216607 0.857113 -0.242678
H7    H     H_    0.090278 0.259047 0.865875 0.194386
O11   O     O_R   0.129670 0.063870 0.065710 -0.541379
O12   O     O_R   0.455180 0.060340 0.946620 -0.546071
O13   O     O_R   0.620470 0.936180 0.934260 -0.520703
C41   C     C_R   0.287988 0.073165 0.927353 0.822555
O14   O     O_R   0.459670 0.071430 0.066050 -0.542801
O15   O     O_R   0.624990 0.947350 0.054550 -0.521186
C42   C     C_R   0.291622 0.089229 0.087470 0.722306
O16   O     O_R   0.125140 0.052700 0.945420 -0.526184
O17   O     O_3   0.289910 0.959320 0.996050 -0.347768
V3    V     V_3+5 0.566700 0.007550 0.000730 1.523037
O18   O     O_R   0.954390 0.939600 0.053420 -0.536130
C43   C     C_R   0.784238 0.924957 0.071450 0.767516
O19   O     O_R   0.949890 0.928520 0.933980 -0.533828
C44   C     C_R   0.780648 0.910940 0.912278 0.754931
V4    V     V_3+5 0.066100 0.992360 0.999330 1.552106
O20   O     O_3   0.793030 0.040670 0.003950 -0.381841
Br1   Br    Br    0.148466 0.776107 0.747761 -0.483289
Br2   Br    Br    0.594108 0.203275 0.273377 -0.540046
O21   O     O_3   0.090821 0.287137 0.229779 -0.542262
C45   C     C_3   0.971269 0.273025 0.179618 -0.108329
H8    H     H_    0.903189 0.224170 0.175112 0.156621
H9    H     H_    0.052220 0.277496 0.139080 0.124857
H10   H     H_    0.854164 0.308780 0.185035 0.178933
Br3   Br    Br    0.565736 0.030493 0.817778 -0.447937
Br4   Br    Br    0.639290 0.148207 0.743747 -0.371351
O22   O     O_3   0.043315 0.182098 0.941954 -0.556129
C46   C     C_3   0.851784 0.170442 0.922616 -0.124436
H11   H     H_    0.756935 0.175476 0.961776 0.142636
H12   H     H_    0.831909 0.120294 0.896953 0.174055
H13   H     H_    0.805027 0.206215 0.896265 0.142703
Br5   Br    Br    0.967946 0.326213 0.741452 -0.407243
Br6   Br    Br    0.990255 0.444721 0.666736 -0.467118
Br7   Br    Br    0.133493 0.528207 0.318128 -0.537095
Br8   Br    Br    0.380333 0.842519 0.078520 -0.492166
Br9   Br    Br    0.649506 0.802352 0.376249 -0.459532
O23   O     O_3   0.422859 0.804208 0.200771 -0.532891
C47   C     C_3   0.391070 0.852105 0.252112 -0.174728
H14   H     H_    0.331166 0.896162 0.239740 0.130921
H15   H     H_    0.521645 0.866187 0.279621 0.173433
H16   H     H_    0.285667 0.832950 0.280655 0.194090
O24   O     O_3   0.620394 0.688006 0.440403 -0.531223
C48   C     C_3   0.430945 0.670704 0.421050 -0.058365
H17   H     H_    0.335144 0.676885 0.460051 0.152204
H18   H     H_    0.419185 0.619165 0.398151 0.141825
H19   H     H_    0.377371 0.702323 0.391664 0.154542

loop_
_geom_bond_atom_site_label_1
_geom_bond_atom_site_label_2
_ccdc_geom_bond_type
C30   Br6   S    
C7    C8    A    
C24   O21   S    
C1    O6    A    
C1    C28   S    
C35   C36   A    
C15   Br8   S    
C48   H18   S    
N1    N2    D    
C45   H8    S    
C22   C44   S    
C19   C20   S    
O19   V4    S    
O5    C3    A    
C36   Br3   S    
V2    O10   S    
C37   C40   A    
C18   Br1   S    
O12   V3    S    
N3    N4    D    
C6    C7    A    
C12   H1    S    
O17   V4    S    
C34   H6    S    
O8    V2    S    
O23   C47   S    
C26   C28   T    
O12   C41   A    
C11   C12   A    
O15   V3    S    
O1    V2    S    
O11   C42   A    
C31   Br5   S    
O7    V1    S    
C38   C39   A    
C17   C21   T    
O9    C4    A    
C4    C5    S    
O11   V4    S    
O24   C48   S    
C7    Br9   S    
C39   O22   S    
C5    C6    A    
C35   C37   A    
C48   H19   S    
O18   C43   A    
C33   C34   A    
C11   H2    S    
C19   H4    S    
C18   C21   S    
O19   C44   A    
O4    C2    A    
V4    O20   S    
O14   V3    S    
O13   V3    S    
C47   H16   S    
C32   N3    S    
C16   O23   S    
C24   C27   S    
C2    C29   S    
O2    C1    A    
C25   C26   S    
C40   H7    S    
C9    H3    S    
C46   H12   S    
C29   C30   A    
C14   C15   A    
C47   H15   S    
C32   C33   A    
V3    O20   S    
C6    O24   S    
O3    C4    A    
C30   C31   A    
C45   H9    S    
C31   C32   A    
O6    V2    S    
O9    V2    S    
C25   Br2   S    
C33   H5    S    
C24   C25   D    
C3    C17   S    
O2    V1    S    
C46   H13   S    
C36   C38   A    
O13   C44   A    
O1    C2    A    
C10   Br7   S    
C12   C14   A    
O17   V3    S    
O5    V1    S    
O8    C3    A    
C29   C34   A    
C13   N2    S    
C48   H17   S    
C5    C10   A    
C15   C16   A    
C37   N4    S    
O7    V2    S    
O4    V1    S    
C20   C22   T    
O3    V1    S    
V1    O10   S    
C46   H11   S    
C8    N1    S    
C47   H14   S    
O15   C43   A    
C35   Br4   S    
C41   O16   A    
C11   C13   A    
C39   C40   A    
C38   C41   S    
C45   H10   S    
C8    C9    A    
O14   C42   A    
O21   C45   S    
O18   V4    S    
C23   C27   T    
C18   C19   D    
O22   C46   S    
C9    C10   A    
C14   C43   S    
O16   V4    S    
C13   C16   A    
C23   C42   S    
