data_mof_unit_24922.cif
_audit_creation_date              2013-03-05T16:46:35-0500
_audit_creation_method            fapswitch 2.2
_symmetry_space_group_name_H-M    P1
_symmetry_Int_Tables_number       1
_space_group_crystal_system       triclinic
_cell_length_a                    12.781132
_cell_length_b                    8.928325
_cell_length_c                    8.123334
_cell_angle_alpha                 89.966025
_cell_angle_beta                  98.364858
_cell_angle_gamma                 90.047077
_cell_volume                      917.125014108

loop_
_atom_site_label
_atom_site_type_symbol
_atom_site_description
_atom_site_fract_x
_atom_site_fract_y
_atom_site_fract_z
_atom_type_partial_charge
O1    O     O_R   0.499990 0.285340 0.636850 -0.621896
O2    O     O_R   0.500010 0.714660 0.363150 -0.621894
O3    O     O_R   0.500010 0.285340 0.363150 -0.590565
O4    O     O_R   0.499990 0.714660 0.636850 -0.590567
N1    N     N_1   0.500020 0.500000 0.073640 0.002778
N2    N     N_1   0.499980 0.500000 0.926360 0.002780
C1    C     C_R   0.500118 0.218054 0.500058 0.940121
C2    C     C_R   0.499882 0.781946 0.499942 0.940104
O5    O     O_R   0.346350 0.500000 0.614250 -0.607620
O6    O     O_R   0.653650 0.500000 0.385750 -0.607620
O7    O     O_R   0.346360 0.500000 0.340500 -0.581832
O8    O     O_R   0.653640 0.500000 0.659500 -0.581820
C3    C     C_R   0.297887 0.493273 0.465753 0.909782
C4    C     C_R   0.702113 0.506726 0.534247 0.909764
Zn1   Zn    Zn3+2 0.499990 0.500000 0.682780 1.075918
Zn2   Zn    Zn3+2 0.500010 0.500000 0.317220 1.075913
C5    C     C_R   0.814534 0.519501 0.559845 -0.268645
C6    C     C_R   0.185467 0.480495 0.440154 -0.268655
C7    C     C_R   0.035105 0.315666 0.416758 -0.136075
C8    C     C_R   0.964895 0.684331 0.583239 -0.136077
C9    C     C_R   0.139467 0.340040 0.395826 0.220033
C10   C     C_R   0.860536 0.659951 0.604189 0.220019
C11   C     C_R   0.126820 0.598680 0.494952 0.404743
C12   C     C_R   0.873178 0.401320 0.505031 0.404757
C13   C     C_R   0.023003 0.571288 0.519207 -0.017387
C14   C     C_R   0.976994 0.428712 0.480778 -0.017387
H1    H     H_    0.000232 0.207015 0.384459 0.248438
H2    H     H_    0.999770 0.792978 0.615545 0.248444
C15   C     C_1   0.500042 0.065213 0.500052 -0.094007
C16   C     C_1   0.499959 0.934787 0.499948 -0.094019
O9    O     O_3   0.829906 0.260789 0.467523 -0.715581
H3    H     H_    0.765932 0.247236 0.521599 0.344415
O10   O     O_3   0.170091 0.739213 0.532454 -0.715565
H4    H     H_    0.234067 0.752763 0.478382 0.344421
N3    N     N_R   0.800825 0.781230 0.660888 0.203941
O11   O     O_R   0.817264 0.918028 0.615440 -0.360372
O12   O     O_R   0.742203 0.758914 0.776744 -0.356167
N4    N     N_R   0.199186 0.218746 0.339179 0.203930
O13   O     O_R   0.257817 0.241030 0.223323 -0.356185
O14   O     O_R   0.182756 0.081962 0.384684 -0.360365

loop_
_geom_bond_atom_site_label_1
_geom_bond_atom_site_label_2
_geom_bond_distance
_ccdc_geom_bond_type
C15   C16   1.164482 T    
O1    Zn1   1.952752 S    
C6    C9    1.409122 A    
O2    Zn2   1.952751 S    
O7    Zn2   2.000102 S    
C5    C10   1.409128 A    
O8    Zn1   2.000102 S    
O4    C2    1.263542 A    
C2    C16   1.364614 S    
O4    Zn1   1.952316 S    
O10   H4    0.990180 S    
O5    Zn1   1.961616 S    
C12   O9    1.386822 S    
C13   C14   1.417575 A    
O6    Zn2   1.961616 S    
N4    O14   1.301466 A    
C10   N3    1.439200 S    
O7    C3    1.267263 A    
C4    C5    1.426065 S    
N1    N2    1.196331 T    
C3    C6    1.426065 S    
C1    C15   1.364614 S    
N3    O12   1.300591 A    
O8    C4    1.267262 A    
O3    C1    1.263542 A    
C11   C13   1.390955 A    
N4    O13   1.300611 A    
C12   C14   1.390949 A    
C5    C12   1.404417 A    
C8    C13   1.398237 A    
C9    N4    1.439192 S    
C6    C11   1.404417 A    
C7    H1    1.083557 S    
O6    C4    1.274772 A    
C7    C14   1.398233 A    
O5    C3    1.274771 A    
N1    Zn2   1.978699 S    
C8    H2    1.083558 S    
C7    C9    1.385976 A    
N2    Zn1   1.978701 S    
O1    C1    1.263730 A    
O2    C2    1.263731 A    
O3    Zn2   1.952317 S    
O9    H3    0.990181 S    
C8    C10   1.385980 A    
C11   O10   1.386825 S    
N3    O11   1.301464 A    
