data_mof_unit_30882.cif
_audit_creation_date              2012-12-11T20:41:34-0500
_audit_creation_method            fapswitch 2.2
_symmetry_space_group_name_H-M    P1
_symmetry_Int_Tables_number       1
_space_group_crystal_system       triclinic
_cell_length_a                    8.44728
_cell_length_b                    18.947645
_cell_length_c                    27.069818
_cell_angle_alpha                 97.736727
_cell_angle_beta                  92.197723
_cell_angle_gamma                 86.223577
_cell_volume                      4282.02162548

loop_
_atom_site_label
_atom_site_type_symbol
_atom_type_description
_atom_site_fract_x
_atom_site_fract_y
_atom_site_fract_z
_atom_type_partial_charge
Ba1   Ba    Ba6+2 0.852670 0.466460 0.522850 1.656083
Ba2   Ba    Ba6+2 0.337150 0.533490 0.477140 1.628346
C1    C     C_3   0.650240 0.207498 0.655659 -0.351863
C2    C     C_R   0.884686 0.564303 0.179024 0.577521
C3    C     C_2   0.758507 0.523354 0.273141 -0.066984
C4    C     C_3   0.133519 0.248628 0.647958 0.365009
C5    C     C_3   0.715314 0.518214 0.326314 -0.009708
C6    C     C_1   0.991640 0.495862 0.346321 0.107087
C7    C     C_2   0.035311 0.500405 0.299986 -0.121272
C8    C     C_2   0.912573 0.514036 0.259574 0.193566
C9    C     C_R   0.032499 0.511247 0.105822 -0.087450
C10   C     C_R   0.108079 0.461835 0.134913 -0.044435
C11   C     C_R   0.226961 0.413198 0.113438 -0.085172
C12   C     C_3   0.610450 0.282072 0.642101 0.361859
C13   C     C_R   0.919394 0.562531 0.128019 -0.034953
C14   C     C_2   0.855485 0.526116 0.362040 -0.292087
C15   C     C_2   0.336026 0.475975 0.641059 -0.139394
C16   C     C_3   0.085171 0.193316 0.679754 -0.341934
C17   C     C_R   0.195928 0.447346 0.978993 0.032540
C18   C     C_R   0.055636 0.564858 0.977479 0.020239
C19   C     C_R   0.144000 0.505028 0.952790 0.040034
C20   C     C_R   0.258701 0.383975 0.950934 -0.078359
C21   C     C_R   0.281770 0.380054 0.899807 -0.072953
C22   C     C_R   0.246723 0.439738 0.874692 -0.027933
C23   C     C_3   0.545688 0.647302 0.632919 0.281950
C24   C     C_R   0.180690 0.502915 0.901503 -0.080532
C25   C     C_R   0.151809 0.564027 0.877241 -0.030860
C26   C     C_R   0.195596 0.561719 0.826898 0.586073
C27   C     C_R   0.273437 0.437056 0.823194 0.585883
C28   C     C_3   0.185834 0.297042 0.374801 0.582785
C29   C     C_2   0.430927 0.465232 0.731094 -0.126506
C30   C     C_3   0.457717 0.446680 0.676349 -0.084805
C31   C     C_1   0.205729 0.512196 0.658749 0.104758
C32   C     C_2   0.166880 0.517041 0.707139 0.049340
C33   C     C_2   0.287403 0.494162 0.746541 0.207636
C34   C     C_3   0.561922 0.676363 0.688879 -0.000089
C35   C     C_R   0.177775 0.454369 0.031816 0.035425
C36   C     C_R   0.069481 0.509143 0.054513 0.001397
C37   C     C_R   0.997217 0.561494 0.026050 0.025559
C38   C     C_R   0.265581 0.410330 0.063268 0.116191
C39   C     C_R   0.837390 0.609207 0.098261 -0.053057
C40   C     C_3   0.121515 0.222946 0.352576 -0.041635
C41   C     C_R   0.035500 0.626803 0.953361 -0.109845
C42   C     C_R   0.083306 0.626496 0.904404 -0.061600
C43   C     C_R   0.868205 0.606956 0.047462 0.047492
C44   C     C_2   0.408934 0.299697 0.516409 -0.222988
C45   C     C_3   0.139295 0.676244 0.344899 0.300022
C46   C     C_3   0.333215 0.256034 0.550627 -0.081928
C47   C     C_2   0.377930 0.176982 0.539124 -0.130852
C48   C     C_2   0.502532 0.153555 0.509867 -0.058210
C49   C     C_2   0.584497 0.205895 0.484798 -0.130728
C50   C     C_1   0.533026 0.273937 0.490229 0.092465
C51   C     C_R   0.666839 0.937619 0.496912 0.489890
C52   C     C_3   0.036565 0.692537 0.594629 0.312275
C53   C     C_R   0.562636 0.077732 0.505068 0.457262
C54   C     C_R   0.616752 0.811886 0.512812 -0.055447
C55   C     C_R   0.664244 0.738049 0.508441 0.087680
C56   C     C_3   0.163187 0.691087 0.291295 -0.100587
C57   C     C_R   0.902519 0.758684 0.465972 0.010304
C58   C     C_R   0.855006 0.832133 0.468271 0.047493
C59   C     C_R   0.712227 0.859364 0.491959 -0.043865
C60   C     C_R   0.804797 0.712838 0.484852 -0.278442
C61   C     C_3   0.045150 0.770928 0.619121 -0.061545
C62   C     C_3   0.679815 0.371667 0.370680 0.296091
C63   C     C_3   0.661201 0.349642 0.313779 -0.191429
C64   C     C_3   0.238855 0.158658 0.359271 -0.416801
C65   C     C_3   0.959273 0.210050 0.372022 -0.377682
C66   C     C_3   0.015350 0.823676 0.581621 -0.473049
C67   C     C_3   0.583516 0.716208 0.347451 0.498580
C68   C     C_3   0.203418 0.783632 0.647428 -0.364731
C69   C     C_3   0.726444 0.703272 0.702668 -0.306757
C70   C     C_3   0.760098 0.699237 0.354280 -0.291902
C71   C     C_3   0.139307 0.321591 0.679789 -0.309175
C72   C     C_3   0.742809 0.644625 0.016871 -0.413793
C73   C     C_3   0.467626 0.840789 0.539900 -0.324842
C74   C     C_3   0.562245 0.778462 0.315772 -0.368000
C75   C     C_R   0.065698 0.462641 0.185184 0.595227
H1    H     H_    0.617823 0.279311 0.600916 0.034308
H2    H     H_    0.554839 0.379710 0.299436 0.099517
H3    H     H_    0.487059 0.298721 0.653924 -0.067955
H4    H     H_    0.553667 0.172306 0.641462 0.075742
H5    H     H_    0.422729 0.630632 0.624308 -0.031860
H6    H     H_    0.631259 0.600598 0.624040 0.056081
H7    H     H_    0.475258 0.722618 0.697329 0.113312
H8    H     H_    0.662409 0.209070 0.696893 0.121667
H9    H     H_    0.179115 0.184769 0.708482 0.085549
H10   H     H_    0.246838 0.647718 0.357931 0.125242
H11   H     H_    0.042780 0.640100 0.344995 -0.021060
H12   H     H_    0.104441 0.223287 0.311585 0.100559
H13   H     H_    0.183972 0.639148 0.266639 0.091243
H14   H     H_    0.270367 0.720956 0.290160 0.149217
H15   H     H_    0.636064 0.823340 0.331423 0.086183
H16   H     H_    0.437557 0.801144 0.315340 0.104540
H17   H     H_    0.597870 0.759988 0.276658 0.145263
H18   H     H_    0.158270 0.490699 0.290390 0.150893
H19   H     H_    0.294799 0.378109 0.136107 0.116767
H20   H     H_    0.521141 0.448725 0.757568 0.117669
H21   H     H_    0.329071 0.329959 0.880051 0.120325
H22   H     H_    0.282762 0.335276 0.967266 0.103789
H23   H     H_    0.915082 0.683721 0.579046 -0.031949
H24   H     H_    0.663441 0.527933 0.245404 0.115312
H25   H     H_    0.741440 0.645585 0.113998 0.123862
H26   H     H_    0.987554 0.677077 0.972711 0.083398
H27   H     H_    0.254737 0.230349 0.635669 -0.034510
H28   H     H_    0.063578 0.675279 0.887521 0.118520
H29   H     H_    0.839444 0.545758 0.401192 0.071043
H30   H     H_    0.317956 0.140129 0.558315 0.083102
H31   H     H_    0.686685 0.187922 0.462242 0.092951
H32   H     H_    0.349949 0.350400 0.510083 0.092856
H33   H     H_    0.972792 0.211058 0.698721 0.127018
H34   H     H_    0.123307 0.680159 0.564585 0.063933
H35   H     H_    0.842302 0.656828 0.483052 0.061257
H36   H     H_    0.069169 0.141741 0.655919 0.110078
H37   H     H_    0.361598 0.168878 0.350048 0.145034
H38   H     H_    0.239566 0.144867 0.397881 0.131707
H39   H     H_    0.202793 0.111088 0.333776 0.128431
H40   H     H_    0.961244 0.214011 0.413310 0.160257
H41   H     H_    0.869307 0.249153 0.359436 0.151576
H42   H     H_    0.922457 0.156219 0.356230 0.117786
H43   H     H_    0.032165 0.879129 0.599479 0.146560
H44   H     H_    0.096518 0.810827 0.550037 0.137654
H45   H     H_    0.950730 0.782576 0.646908 0.116026
H46   H     H_    0.890612 0.821775 0.568378 0.116282
H47   H     H_    0.213924 0.752394 0.679353 0.136676
H48   H     H_    0.303814 0.767732 0.622437 0.138184
H49   H     H_    0.210153 0.840770 0.662842 0.112266
H50   H     H_    0.773814 0.358535 0.249133 0.190905
H51   H     H_    0.889785 0.323579 0.292027 0.212612
H52   H     H_    0.410767 0.610638 0.713767 0.164042
H53   H     H_    0.601412 0.576676 0.710029 0.180826
H54   H     H_    0.741166 0.716346 0.743861 0.128821
H55   H     H_    0.819847 0.661988 0.688885 0.144332
H56   H     H_    0.803372 0.382027 0.382051 0.064823
H57   H     H_    0.740125 0.752740 0.685692 0.108129
H58   H     H_    0.987171 0.773990 0.297692 0.211156
H59   H     H_    0.938329 0.699009 0.258999 0.222598
H60   H     H_    0.784365 0.666825 0.385026 0.046505
H61   H     H_    0.803051 0.668658 0.319275 0.087157
H62   H     H_    0.822962 0.748954 0.363422 0.084910
H63   H     H_    0.563509 0.784505 0.412465 0.136259
H64   H     H_    0.393964 0.752807 0.390077 0.215785
H65   H     H_    0.163826 0.362633 0.656359 0.086952
H66   H     H_    0.025231 0.337168 0.698306 0.160213
H67   H     H_    0.604553 0.421302 0.381605 0.025607
H68   H     H_    0.235746 0.319996 0.708588 0.115332
H69   H     H_    0.395812 0.316019 0.052899 0.169157
H70   H     H_    0.502664 0.388608 0.068345 0.179854
H71   H     H_    0.977264 0.523175 0.752388 0.192681
H72   H     H_    0.016903 0.600738 0.731770 0.205784
H73   H     H_    0.621579 0.637235 0.029765 0.121209
H74   H     H_    0.760434 0.703136 0.021232 0.118352
H75   H     H_    0.741860 0.621507 0.976882 0.128964
H76   H     H_    0.374041 0.389916 0.591519 0.118913
H77   H     H_    0.416475 0.468106 0.571527 0.209194
H78   H     H_    0.762478 0.184716 0.638012 0.140789
H79   H     H_    0.390966 0.799442 0.547860 0.141818
H80   H     H_    0.499765 0.871197 0.576427 0.119570
H81   H     H_    0.393770 0.875428 0.516899 0.121838
H82   H     H_    0.978396 0.861877 0.412139 0.203529
H83   H     H_    0.063271 0.880271 0.470901 0.184870
H84   H     H_    0.313789 0.306325 0.313108 0.156849
H85   H     H_    0.381056 0.349994 0.366431 0.207687
H86   H     H_    0.244652 0.253313 0.439311 0.131611
H87   H     H_    0.100645 0.318598 0.445651 0.211487
H88   H     H_    0.640085 0.291646 0.305194 0.131042
N1    N     N_R   0.955980 0.514099 0.207389 -0.423576
N2    N     N_3   0.512937 0.737939 0.396059 -0.453358
N3    N     N_3   0.406322 0.368744 0.046506 -0.510888
N4    N     N_3   0.011616 0.545774 0.721649 -0.438670
N5    N     N_3   0.336360 0.442962 0.590684 -0.439051
N6    N     N_3   0.955108 0.880308 0.449930 -0.476828
N7    N     N_3   0.335733 0.302474 0.351085 -0.489117
N8    N     N_3   0.209214 0.302955 0.428828 -0.502860
N9    N     N_R   0.249544 0.497867 0.799482 -0.421336
N10   N     N_R   0.610663 0.972379 0.540522 -0.262743
N11   N     N_R   0.558626 0.040692 0.544466 -0.255263
N12   N     N_R   0.624205 0.044055 0.461811 -0.245892
N13   N     N_R   0.674360 0.975181 0.457706 -0.221461
N14   N     N_3   0.801323 0.364103 0.287569 -0.510641
N15   N     N_3   0.529028 0.622768 0.720342 -0.488927
N16   N     N_3   0.029622 0.732660 0.270733 -0.494302
O1    O     O_2   0.914730 0.537460 0.618690 -0.437344
O2    O     O_2   0.235145 0.752019 0.467934 -0.495476
O3    O     O_3   0.111241 0.739825 0.377433 -0.641943
O4    O     O_3   0.146720 0.537410 0.558510 -0.471557
O5    O     O_3   0.553920 0.415280 0.473710 -0.490263
O6    O     O_2   0.383540 0.672140 0.526840 -0.464097
O7    O     O_3   0.576949 0.702425 0.605736 -0.666941
O8    O     O_2   0.396324 0.536457 0.327444 -0.511991
O9    O     O_3   0.508679 0.656870 0.321275 -0.607778
O10   O     O_2   0.124304 0.416182 0.208768 -0.608506
O11   O     O_2   0.317675 0.380163 0.799373 -0.612555
O12   O     O_3   0.631907 0.315606 0.394250 -0.650553
O13   O     O_2   0.790763 0.611071 0.198175 -0.617395
O14   O     O_2   0.187453 0.616766 0.807839 -0.603799
O15   O     O_3   0.666360 0.409390 0.586570 -0.481568
O16   O     O_2   0.790969 0.462033 0.674799 -0.462951
O17   O     O_3   0.069891 0.649992 0.632444 -0.662731
O18   O     O_3   0.718730 0.329638 0.666277 -0.569638
O19   O     O_2   0.806150 0.327840 0.473120 -0.461267
O20   O     O_3   0.073640 0.373350 0.561550 -0.434486
O21   O     O_2   0.019485 0.246994 0.510657 -0.489733
O22   O     O_3   0.023382 0.251574 0.607493 -0.557024
O23   O     O_2   0.274960 0.462520 0.381280 -0.484683
O24   O     O_3   0.042980 0.462530 0.441480 -0.479025
O25   O     O_3   0.523340 0.590550 0.413420 -0.449300
O26   O     O_3   0.075759 0.351602 0.362384 -0.664717
O27   O     O_3   0.635780 0.584660 0.526290 -0.480257
O28   O     O_3   0.116060 0.626590 0.438450 -0.487131
P1    P     P_3+3 0.084800 0.558370 0.611580 1.021848
P2    P     P_3+3 0.628800 0.338360 0.458800 0.986562
P3    P     P_3+3 0.114002 0.280560 0.557014 0.980863
P4    P     P_3+3 0.104900 0.441570 0.388420 0.996095
P5    P     P_3+3 0.091664 0.719313 0.438333 0.909794
P6    P     P_3+3 0.658630 0.414733 0.651635 0.969208
P7    P     P_3+3 0.566240 0.674280 0.541548 0.948302
P8    P     P_3+3 0.541411 0.576967 0.348311 0.944601

loop_
_geom_bond_atom_site_label_1
_geom_bond_atom_site_label_2
_ccdc_geom_bond_type
C19   C24   A    
C63   H2    S    
C63   H88   S    
H63   N2    S    
C1    H8    S    
C34   N15   S    
O26   P4    S    
C27   N9    Am   
O28   P5    S    
Ba1   O20   S    
C51   N13   A    
C18   C41   A    
C69   H57   S    
C67   N2    S    
O7    P7    S    
C57   P5    S    
C55   C60   A    
C47   H30   S    
C42   H28   S    
C39   H25   S    
C2    O13   D    
C51   N10   A    
C24   C25   A    
C16   H9    S    
C64   H39   S    
C56   N16   S    
O18   P6    S    
C17   C19   A    
C22   C24   A    
C32   C33   S    
C35   C38   A    
C71   H66   S    
C36   C37   A    
O12   P2    S    
Ba1   P2    S    
C52   C61   S    
C44   C50   D    
O1    P1    D    
C26   O14   D    
C54   C55   A    
H77   N5    S    
C67   C74   S    
Ba1   Ba2   S    
C67   O9    S    
C61   C66   S    
H84   N7    S    
Ba1   O27   S    
Ba2   O6    S    
C11   C38   A    
C17   C35   A    
C74   H17   S    
C69   H55   S    
C22   C27   A    
C30   P6    S    
C51   C59   S    
C73   H79   S    
C70   H62   S    
C46   P3    S    
C32   N4    S    
C49   H31   S    
Ba2   O28   S    
H76   N5    S    
C1    H4    S    
C50   P2    S    
C21   C22   A    
C61   C68   S    
Ba2   O25   S    
C4    H27   S    
Ba1   O24   S    
C56   H14   S    
C7    H18   S    
O20   P3    S    
C72   H74   S    
O16   P6    D    
C34   C69   S    
C14   H29   S    
C37   C43   A    
C73   H80   S    
O2    P5    D    
H71   N4    S    
C9    C13   A    
O24   P4    S    
C57   C58   A    
O27   P7    S    
C54   C73   S    
O5    P2    S    
C10   C75   A    
C53   N12   A    
C52   H23   S    
C15   C31   D    
C4    O22   S    
C25   C42   A    
C66   H46   S    
O8    P8    D    
C31   C32   D    
C44   C46   S    
C71   H65   S    
O25   P8    S    
C4    C16   S    
H52   N15   S    
C3    H24   S    
H64   N2    S    
O19   P2    D    
C64   H38   S    
C11   H19   S    
C72   H73   S    
C49   C50   D    
C75   O10   D    
Ba1   O15   S    
Ba2   O23   S    
C13   C39   A    
O6    P7    D    
C6    P4    S    
C3    C5    S    
O15   P6    S    
C15   N5    S    
C6    C7    D    
C62   H67   S    
C68   H49   S    
C75   N1    Am   
Ba1   O5    S    
O23   P4    D    
C71   H68   S    
C58   C59   A    
C58   N6    S    
C45   H10   S    
H59   N16   S    
C67   C70   S    
C41   C42   A    
Ba2   O5    S    
C35   C36   A    
C23   O7    S    
C74   H16   S    
C56   H13   S    
C31   P1    S    
O3    P5    S    
C29   C30   S    
C55   P7    S    
C9    C10   A    
C62   O12   S    
C17   C20   A    
C1    H78   S    
C48   C49   S    
C27   O11   D    
C60   H35   S    
H87   N8    S    
O4    P1    S    
Ba2   O24   S    
C18   C19   A    
C65   H40   S    
C28   N7    S    
H72   N4    S    
C1    C12   S    
H82   N6    S    
C74   H15   S    
C73   H81   S    
C70   H60   S    
N12   N13   A    
C12   H3    S    
C23   H5    S    
C29   C33   D    
O22   P3    S    
Ba1   O19   S    
Ba2   O27   S    
H58   N16   S    
H86   N8    S    
O9    P8    S    
C61   H45   S    
C68   H48   S    
C4    C71   S    
C40   C64   S    
C7    C8    S    
C18   C37   A    
H69   N3    S    
C62   H56   S    
C46   C47   S    
C57   C60   A    
C39   C43   A    
C20   H22   S    
C64   H37   S    
Ba1   P1    S    
C54   C59   A    
C33   N9    S    
C5    C14   S    
C16   H33   S    
O21   P3    D    
C45   O3    S    
C66   H44   S    
Ba1   O1    S    
C29   H20   S    
Ba1   O4    S    
C8    N1    S    
C63   N14   S    
C12   O18   S    
H51   N14   S    
C48   C53   S    
C52   O17   S    
C28   N8    S    
C40   H12   S    
H50   N14   S    
C45   H11   S    
C2    C13   A    
Ba2   O4    S    
C3    C8    D    
N10   N11   A    
C66   H43   S    
C45   C56   S    
C26   N9    Am   
C40   C65   S    
C34   H7    S    
C28   O26   S    
C62   C63   S    
C70   H61   S    
C72   H75   S    
H83   N6    S    
C2    N1    Am   
C52   H34   S    
C28   C40   S    
C12   H1    S    
O17   P1    S    
C65   H41   S    
C41   H26   S    
C53   N11   A    
C38   N3    S    
H70   N3    S    
C23   C34   S    
C69   H54   S    
C5    P8    S    
C68   H47   S    
H53   N15   S    
C21   H21   S    
H85   N7    S    
C10   C11   A    
Ba2   P4    S    
C6    C14   D    
C47   C48   D    
C44   H32   S    
C25   C26   A    
C23   H6    S    
C15   C30   S    
C16   H36   S    
C20   C21   A    
C43   C72   S    
C9    C36   A    
C65   H42   S    
