data_mof_unit_11731.cif
_audit_creation_date              2012-12-10T18:10:21-0500
_audit_creation_method            fapswitch 2.2
_symmetry_space_group_name_H-M    P1
_symmetry_Int_Tables_number       1
_space_group_crystal_system       triclinic
_cell_length_a                    10.733353
_cell_length_b                    9.413192
_cell_length_c                    15.889672
_cell_angle_alpha                 89.924936
_cell_angle_beta                  90.083883
_cell_angle_gamma                 89.903666
_cell_volume                      1605.40942692

loop_
_atom_site_label
_atom_site_type_symbol
_atom_type_description
_atom_site_fract_x
_atom_site_fract_y
_atom_site_fract_z
_atom_type_partial_charge
C1    C     C_R   0.259743 0.500287 0.499968 0.773322
C2    C     C_3   0.613576 0.585069 0.952731 0.373524
C3    C     C_3   0.607248 0.585513 0.051493 -0.569064
C4    C     C_1   0.498909 0.499680 0.824871 -0.010216
C5    C     C_1   0.497297 0.498530 0.175541 -0.083126
C6    C     C_1   0.498965 0.499941 0.250937 -0.206918
C7    C     C_3   0.070904 0.655166 0.503070 -0.395129
C8    C     C_3   0.071794 0.415719 0.575365 -0.394026
C9    C     C_3   0.928366 0.654745 0.504616 -0.439163
C10   C     C_3   0.928233 0.420131 0.577050 -0.447288
C11   C     C_3   0.074677 0.431289 0.416442 -0.456709
C12   C     C_3   0.121968 0.500752 0.498884 0.140406
C13   C     C_3   0.878239 0.499624 0.498030 0.167409
C14   C     C_R   0.500012 0.500062 0.340335 0.858842
C15   C     C_3   0.928946 0.426970 0.415030 0.366296
C16   C     C_3   0.600063 0.083579 0.556662 -0.191711
C17   C     C_3   0.600041 0.915889 0.556684 -0.189916
C18   C     C_3   0.380429 0.083857 0.532910 -0.190281
C19   C     C_3   0.380426 0.916435 0.532883 -0.189899
C20   C     C_3   0.520556 0.083736 0.416287 -0.185380
C21   C     C_3   0.520591 0.916561 0.416298 -0.184742
C22   C     C_R   0.740093 0.499961 0.499435 0.825353
C23   C     C_R   0.499858 0.499904 0.659828 0.822590
C24   C     C_3   0.373024 0.569488 0.047271 0.031534
C25   C     C_3   0.514372 0.341866 0.048018 0.027215
C26   C     C_3   0.498698 0.344355 0.950503 -0.494771
C27   C     C_3   0.375031 0.567934 0.949023 -0.434323
C28   C     C_1   0.499426 0.499673 0.749390 -0.197983
C29   C     C_3   0.494519 0.496078 0.083308 0.216120
C30   C     C_3   0.498197 0.500216 0.917161 0.257423
Cu1   Cu    Cu3+1 0.499860 0.642410 0.500040 0.894993
Cu2   Cu    Cu3+1 0.499860 0.357590 0.500040 0.903867
H1    H     H_    0.295998 0.508412 0.921557 0.188782
H2    H     H_    0.410514 0.291670 0.931181 0.167797
H3    H     H_    0.891692 0.723516 0.453334 0.169065
H4    H     H_    0.890407 0.310598 0.581600 0.165532
H5    H     H_    0.111510 0.491594 0.361548 0.133858
H6    H     H_    0.114165 0.322300 0.410629 0.150216
H7    H     H_    0.588511 0.122568 0.622202 0.143012
H8    H     H_    0.588479 0.876717 0.622236 0.149279
H9    H     H_    0.692787 0.121380 0.535219 0.149066
H10   H     H_    0.692778 0.877915 0.535264 0.137949
H11   H     H_    0.361164 0.123697 0.597486 0.138223
H12   H     H_    0.361082 0.876308 0.597429 0.139244
H13   H     H_    0.446109 0.121656 0.372914 0.143248
H14   H     H_    0.446203 0.879042 0.372912 0.140417
H15   H     H_    0.610425 0.123128 0.390437 0.159173
H16   H     H_    0.610514 0.877006 0.390511 0.144106
H17   H     H_    0.302262 0.121029 0.492482 0.136371
H18   H     H_    0.302358 0.879778 0.492390 0.135933
H19   H     H_    0.614023 0.313983 0.059182 0.159361
H20   H     H_    0.382150 0.683600 0.065091 0.107255
H21   H     H_    0.574400 0.281280 0.920691 0.162192
H22   H     H_    0.362981 0.677522 0.924252 0.143457
H23   H     H_    0.599920 0.696007 0.075993 0.166784
H24   H     H_    0.695471 0.543302 0.078889 0.167657
H25   H     H_    0.103280 0.717200 0.447555 0.159989
H26   H     H_    0.103379 0.303186 0.571831 0.162218
H27   H     H_    0.106271 0.709377 0.560582 0.167556
H28   H     H_    0.109149 0.461062 0.634929 0.155759
H29   H     H_    0.896236 0.704028 0.564505 0.168137
H30   H     H_    0.896912 0.475781 0.635112 0.164697
N1    N     N_3   0.500250 0.143650 0.501830 -0.113243
N2    N     N_3   0.500250 0.856350 0.501830 -0.112800
O1    O     O_R   0.317570 0.620260 0.500050 -0.601364
O2    O     O_R   0.317570 0.379740 0.500050 -0.600559
O3    O     O_R   0.499890 0.620310 0.379470 -0.589272
O4    O     O_R   0.499890 0.379690 0.379470 -0.583630
O5    O     O_R   0.682190 0.620260 0.500020 -0.604607
O6    O     O_R   0.682190 0.379740 0.500020 -0.571117
O7    O     O_R   0.499870 0.620210 0.620600 -0.581777
O8    O     O_R   0.499870 0.379790 0.620600 -0.589191
N3    N     N_3   0.880804 0.503278 0.340552 -0.603330
H31   H     H_    0.906602 0.448595 0.285996 0.204940
H32   H     H_    0.922213 0.603245 0.335354 0.195084
N4    N     N_3   0.886018 0.278243 0.410252 -0.584055
H33   H     H_    0.930440 0.215968 0.455802 0.191431
H34   H     H_    0.911993 0.234691 0.352324 0.196772
C31   C     C_3   0.245928 0.525573 0.088011 -0.370836
C32   C     C_3   0.168368 0.412705 0.042203 -0.878679
H35   H     H_    0.226705 0.326405 0.016275 0.251485
H36   H     H_    0.100290 0.365430 0.086694 0.231997
H37   H     H_    0.114436 0.462079 0.990080 0.241160
H38   H     H_    0.259978 0.490582 0.154005 0.192054
H39   H     H_    0.186237 0.622015 0.092551 0.184699
C33   C     C_3   0.436462 0.222970 0.091614 -0.375389
C34   C     C_3   0.513494 0.135569 0.154267 -0.918098
H40   H     H_    0.589769 0.078880 0.121053 0.246884
H41   H     H_    0.554154 0.204881 0.203592 0.268172
H42   H     H_    0.453015 0.055488 0.185257 0.238897
H43   H     H_    0.356655 0.268156 0.126530 0.232783
H44   H     H_    0.398238 0.147479 0.044524 0.197331
N5    N     N_3   0.611612 0.732126 0.920372 -0.581199
H45   H     H_    0.539563 0.790254 0.948068 0.191402
H46   H     H_    0.693631 0.783850 0.938317 0.205927
N6    N     N_3   0.730184 0.517349 0.924181 -0.582056
H47   H     H_    0.806194 0.578783 0.943399 0.205000
H48   H     H_    0.742363 0.418596 0.953084 0.190606

loop_
_geom_bond_atom_site_label_1
_geom_bond_atom_site_label_2
_ccdc_geom_bond_type
C24   H20   S    
C34   H40   S    
N5    H45   S    
N3    H31   S    
C24   C27   S    
C27   H22   S    
Cu2   O8    S    
C27   H1    S    
Cu1   O3    S    
C9    H29   S    
N4    H34   S    
C33   H43   S    
C17   N2    S    
C5    C6    T    
C18   N1    S    
C3    C29   S    
C18   C19   S    
C11   H5    S    
C9    C13   S    
C24   C29   S    
C21   N2    S    
C8    H26   S    
C17   H10   S    
C11   C15   S    
C26   H2    S    
C16   C17   S    
N6    H48   S    
C1    O1    A    
C14   O3    A    
C16   N1    S    
C22   O5    A    
C20   H13   S    
Cu2   O4    S    
C21   H16   S    
Cu1   O7    S    
C15   N4    S    
N5    H46   S    
C27   C30   S    
N3    H32   S    
C10   H30   S    
C1    C12   S    
C3    H23   S    
C32   H37   S    
Cu1   N2    S    
C7    H27   S    
C4    C28   T    
C5    C29   S    
C25   C29   S    
C7    C12   S    
C23   O7    A    
N4    H33   S    
C32   H36   S    
C33   C34   S    
Cu2   O6    S    
C25   C26   S    
C17   H8    S    
C11   H6    S    
C25   H19   S    
C6    C14   S    
C3    H24   S    
C24   C31   S    
Cu1   Cu2   S    
C19   N2    S    
C8    C12   S    
N6    H47   S    
C1    O2    A    
C23   C28   S    
C15   N3    S    
C26   C30   S    
C13   C15   S    
C26   H21   S    
C31   H39   S    
C19   H12   S    
Cu2   O2    S    
C21   H14   S    
Cu1   O1    S    
C23   O8    A    
C2    N5    S    
Cu2   N1    S    
C32   H35   S    
C10   C13   S    
C11   C12   S    
C2    C30   S    
C20   N1    S    
C2    N6    S    
C2    C3    S    
C33   H44   S    
C18   H11   S    
C8    H28   S    
C19   H18   S    
C31   H38   S    
C25   C33   S    
C7    H25   S    
C13   C22   S    
C20   H15   S    
C16   H7    S    
C31   C32   S    
C7    C9    S    
Cu1   O5    S    
C20   C21   S    
C8    C10   S    
C34   H42   S    
C9    H3    S    
C34   H41   S    
C14   O4    A    
C10   H4    S    
C16   H9    S    
C22   O6    A    
C4    C30   S    
C18   H17   S    
