data_mof_unit_45091.cif
_audit_creation_date              2012-10-26T20:31:45-0400
_audit_creation_method            fapswitch 2.2
_symmetry_space_group_name_H-M    P1
_symmetry_Int_Tables_number       1
_space_group_crystal_system       triclinic
_cell_length_a                    15.883423
_cell_length_b                    10.831164
_cell_length_c                    9.556465
_cell_angle_alpha                 90.217897
_cell_angle_beta                  90.092929
_cell_angle_gamma                 90.11974
_cell_volume                      1644.03796187

loop_
_atom_site_label
_atom_site_type_symbol
_atom_type_description
_atom_site_fract_x
_atom_site_fract_y
_atom_site_fract_z
_atom_type_partial_charge
C1    C     C_R   0.498718 0.262426 0.499723 0.584989
C2    C     C_R   0.491406 0.129353 0.499233 0.041555
C3    C     C_R   0.479376 0.063934 0.373383 -0.155464
C4    C     C_R   0.340255 0.499963 0.499928 0.541837
C5    C     C_R   0.479353 0.935119 0.373683 -0.153425
C6    C     C_R   0.490910 0.870811 0.499948 0.015730
C7    C     C_R   0.490956 0.937182 0.625371 -0.023333
C8    C     C_3   0.548324 0.930255 0.749091 -0.224382
C9    C     C_3   0.549884 0.070666 0.748695 0.119122
C10   C     C_R   0.573219 0.515342 0.073887 0.172311
C11   C     C_R   0.429090 0.472647 0.073895 -0.020799
C12   C     C_3   0.950204 0.412951 0.619228 -0.180778
C13   C     C_R   0.429069 0.472720 0.925452 -0.020557
C14   C     C_R   0.573309 0.514809 0.926664 0.187789
C15   C     C_3   0.631575 0.622696 0.921362 -0.276748
C16   C     C_R   0.498711 0.737671 0.500117 0.544273
C17   C     C_3   0.631049 0.623763 0.080272 -0.275954
C18   C     C_R   0.659750 0.500021 0.500101 0.571233
C19   C     C_3   0.047713 0.404422 0.610016 0.181601
C20   C     C_3   0.048768 0.459043 0.355646 -0.266288
C21   C     C_3   0.951012 0.454457 0.358407 -0.234908
C22   C     C_1   0.749382 0.499882 0.500663 -0.011866
C23   C     C_3   0.917030 0.499348 0.502393 0.026645
C24   C     C_3   0.083034 0.499764 0.501052 0.064263
C25   C     C_3   0.091738 0.509530 0.817663 0.006922
C26   C     C_3   0.107524 0.481863 0.971286 -0.379352
C27   C     C_3   0.950983 0.631199 0.530945 -0.225534
C28   C     C_3   0.048408 0.632484 0.525899 -0.223219
C29   C     C_1   0.824910 0.499680 0.501508 -0.062316
C30   C     C_1   0.175131 0.499872 0.499816 -0.049641
C31   C     C_1   0.250641 0.499925 0.499642 -0.033088
C32   C     C_R   0.492194 0.064090 0.624842 0.024587
Cl1   Cl    Cl    0.651755 0.131907 0.708650 -0.611058
Cu1   Cu    Cu3+1 0.500000 0.499980 0.640670 0.973169
Cu2   Cu    Cu3+1 0.500000 0.500020 0.359330 0.944498
H1    H     H_    0.922443 0.319083 0.606212 0.117754
H2    H     H_    0.060116 0.311979 0.562923 0.137030
H3    H     H_    0.371195 0.451809 0.870752 0.125511
H4    H     H_    0.693822 0.597843 0.876457 0.136621
H5    H     H_    0.601676 0.705202 0.874647 0.137852
H6    H     H_    0.693086 0.599804 0.126703 0.133881
H7    H     H_    0.600574 0.707066 0.125773 0.147842
H8    H     H_    0.069887 0.524914 0.273865 0.121766
H9    H     H_    0.073917 0.366765 0.325881 0.107239
H10   H     H_    0.929389 0.358275 0.337815 0.128172
H11   H     H_    0.925632 0.513456 0.273118 0.125777
H12   H     H_    0.929326 0.446723 0.723384 0.132221
H13   H     H_    0.074249 0.676733 0.621248 0.096657
H14   H     H_    0.068915 0.693295 0.438603 0.117283
H15   H     H_    0.929389 0.664208 0.635291 0.113519
H16   H     H_    0.032259 0.562774 0.810875 0.117895
H17   H     H_    0.145490 0.566055 0.780148 0.142569
H18   H     H_    0.167185 0.429637 0.983611 0.156418
H19   H     H_    0.112545 0.569773 0.030891 0.083608
H20   H     H_    0.054703 0.426415 0.014245 0.155107
H21   H     H_    0.925768 0.696376 0.451500 0.126906
H22   H     H_    0.473842 0.111571 0.274358 0.135530
H23   H     H_    0.474036 0.886601 0.274734 0.133223
H24   H     H_    0.515896 0.891695 0.842243 0.098588
H25   H     H_    0.609665 0.886454 0.723244 0.172702
H26   H     H_    0.519511 0.112944 0.841945 0.128339
H27   H     H_    0.371252 0.451657 0.128177 0.120000
N1    N     N_R   0.500530 0.500930 0.147930 -0.234145
N2    N     N_R   0.500530 0.500890 0.852020 -0.232241
O1    O     O_R   0.500000 0.319640 0.618810 -0.469602
O2    O     O_R   0.500010 0.319680 0.381230 -0.506550
O3    O     O_R   0.379430 0.499990 0.618840 -0.510164
O4    O     O_R   0.379440 0.500030 0.381260 -0.513580
O5    O     O_R   0.499990 0.680320 0.618770 -0.506112
O6    O     O_R   0.500000 0.680360 0.381190 -0.510251
O7    O     O_R   0.620560 0.499970 0.618740 -0.479687
O8    O     O_R   0.620570 0.500010 0.381160 -0.497664
O9    O     O_3   0.088719 0.397200 0.742516 -0.561830

loop_
_geom_bond_atom_site_label_1
_geom_bond_atom_site_label_2
_ccdc_geom_bond_type
Cu1   O3    S    
C9    C32   S    
C4    O3    A    
C1    O1    A    
C25   H16   S    
C6    C7    A    
C22   C29   T    
C23   C27   S    
C12   H1    S    
C28   H14   S    
C25   O9    S    
C10   N1    A    
C12   C23   S    
C27   H15   S    
C19   O9    S    
C11   H27   S    
C14   N2    A    
C26   H20   S    
C27   H21   S    
Cu1   N2    S    
C2    C3    A    
C25   H17   S    
C7    C8    S    
C18   C22   S    
C8    H25   S    
C9    Cl1   S    
C11   C13   A    
Cu1   O5    S    
C15   H4    S    
C13   H3    S    
C5    C6    A    
C13   N2    A    
Cu2   O4    S    
C12   H12   S    
C9    H26   S    
C23   C29   S    
Cu1   O1    S    
C20   H9    S    
Cu2   O8    S    
C19   C24   S    
C11   N1    A    
C21   C23   S    
C8    H24   S    
C18   O8    A    
C30   C31   T    
Cu1   Cu2   S    
C17   H6    S    
C15   H5    S    
C21   H10   S    
C4    C31   S    
C10   C17   S    
C6    C16   S    
C5    H23   S    
C21   H11   S    
C26   H18   S    
C26   H19   S    
C27   C28   S    
C20   H8    S    
C16   O6    A    
C20   C21   S    
C12   C19   S    
C2    C32   A    
C1    C2    S    
C10   C14   A    
C18   O7    A    
C15   C17   S    
C20   C24   S    
C14   C15   S    
C28   H13   S    
Cu2   N1    S    
C7    C32   A    
C19   H2    S    
Cu2   O2    S    
C3    C5    A    
C25   C26   S    
C17   H7    S    
C4    O4    A    
Cu1   O7    S    
C24   C30   S    
C16   O5    A    
C24   C28   S    
Cu2   O6    S    
C8    C9    S    
C3    H22   S    
C1    O2    A    
