data_mof_unit_18894.cif
_audit_creation_date              2012-12-10T17:53:24-0500
_audit_creation_method            fapswitch 2.2
_symmetry_space_group_name_H-M    P1
_symmetry_Int_Tables_number       1
_space_group_crystal_system       triclinic
_cell_length_a                    23.13866
_cell_length_b                    10.734662
_cell_length_c                    9.985941
_cell_angle_alpha                 92.499049
_cell_angle_beta                  91.146631
_cell_angle_gamma                 91.041505
_cell_volume                      2477.05913323

loop_
_atom_site_label
_atom_site_type_symbol
_atom_type_description
_atom_site_fract_x
_atom_site_fract_y
_atom_site_fract_z
_atom_type_partial_charge
C1    C     C_R   0.502459 0.260748 0.497572 0.936102
C2    C     C_R   0.122419 0.631248 0.415244 0.610167
C3    C     C_R   0.251456 0.666024 0.487386 -0.009864
C4    C     C_R   0.389602 0.498361 0.498603 0.971954
C5    C     C_R   0.309397 0.638135 0.475495 -0.182991
C6    C     C_R   0.328123 0.517206 0.496935 -0.151468
C7    C     C_R   0.288548 0.421611 0.526456 0.390875
C8    C     C_R   0.230230 0.450618 0.536816 -0.157203
C9    C     C_R   0.211924 0.572681 0.519415 0.207165
C10   C     C_R   0.768177 0.437864 0.546035 -0.037380
C11   C     C_R   0.708568 0.419484 0.532724 0.415996
C12   C     C_R   0.976182 0.556459 0.770247 -0.101440
C13   C     C_R   0.673283 0.521737 0.502322 -0.268789
C14   C     C_R   0.699171 0.639381 0.477731 0.386368
C15   C     C_R   0.758739 0.654283 0.493197 -0.162370
C16   C     C_R   0.497270 0.739950 0.503965 1.027243
C17   C     C_R   0.793113 0.554697 0.525969 0.112253
C18   C     C_R   0.572881 0.134678 0.690122 -0.047207
C19   C     C_R   0.591164 0.083062 0.808565 -0.078657
C20   C     C_R   0.569455 0.967510 0.841328 -0.130761
C21   C     C_R   0.533304 0.899538 0.750671 0.017632
C22   C     C_R   0.518633 0.945673 0.622985 0.060160
C23   C     C_R   0.036167 0.562991 0.770030 -0.086587
C24   C     C_R   0.533005 0.069888 0.600989 -0.009959
C25   C     C_R   0.505199 0.127734 0.493801 -0.216371
C26   C     C_R   0.470469 0.060244 0.398333 0.361303
C27   C     C_R   0.467141 0.930910 0.403626 0.284989
C28   C     C_R   0.610520 0.506694 0.500887 0.939470
C29   C     C_R   0.492007 0.873777 0.514380 -0.196954
C30   C     C_R   0.410472 0.376989 0.121887 -0.093812
C31   C     C_R   0.360882 0.343877 0.045553 -0.227761
C32   C     C_R   0.351547 0.398451 0.922737 -0.169060
C33   C     C_R   0.393582 0.479910 0.874199 0.461919
C34   C     C_R   0.065133 0.591317 0.652802 -0.002202
C35   C     C_R   0.450064 0.472986 0.927769 -0.011269
C36   C     C_R   0.453930 0.450557 0.066940 0.098907
C37   C     C_R   0.546389 0.537863 0.078626 -0.135141
C38   C     C_R   0.548561 0.532592 0.937023 0.410649
C39   C     C_R   0.881425 0.604915 0.415625 0.571426
C40   C     C_R   0.884221 0.560289 0.647967 0.550703
C41   C     C_R   0.944211 0.577114 0.652824 -0.005359
C42   C     C_R   0.972769 0.612943 0.536392 -0.052461
C43   C     C_R   0.940865 0.634999 0.418525 -0.209914
C44   C     C_R   0.033473 0.620590 0.536361 -0.066750
C45   C     C_R   0.062463 0.651796 0.418743 -0.224389
C46   C     C_R   0.030114 0.696390 0.308661 0.426455
C47   C     C_R   0.969375 0.684593 0.307549 0.358766
C48   C     C_R   0.125155 0.585555 0.647312 0.552508
H1    H     H_    0.955108 0.530821 0.861229 0.217561
H2    H     H_    0.327530 0.285874 0.086924 0.219098
H3    H     H_    0.308634 0.392734 0.877316 0.216049
H4    H     H_    0.237227 0.760105 0.472730 0.184577
H5    H     H_    0.340037 0.711741 0.453580 0.192632
H6    H     H_    0.198575 0.378737 0.557150 0.190228
H7    H     H_    0.795448 0.360091 0.568145 0.187163
H8    H     H_    0.648452 0.292005 0.502530 0.310226
H9    H     H_    0.595864 0.812733 0.278081 0.377547
H10   H     H_    0.404593 0.072708 0.274861 0.376495
H11   H     H_    0.443490 0.898366 0.217339 0.364445
H12   H     H_    0.779445 0.743605 0.477698 0.205155
H13   H     H_    0.332411 0.651433 0.051454 0.368865
H14   H     H_    0.654482 0.718315 0.763072 0.399166
H15   H     H_    0.139442 0.900615 0.167701 0.401587
H16   H     H_    0.907096 0.776671 0.232366 0.376747
H17   H     H_    0.380853 0.169014 0.631325 0.386120
H18   H     H_    0.589552 0.226485 0.670601 0.172207
H19   H     H_    0.620453 0.134854 0.877153 0.176601
H20   H     H_    0.580941 0.929735 0.936870 0.170749
H21   H     H_    0.516073 0.814315 0.787413 0.205743
H22   H     H_    0.583585 0.565888 0.139360 0.247258
H23   H     H_    0.059739 0.540876 0.860372 0.225317
H24   H     H_    0.415505 0.340466 0.219786 0.250085
N1    N     N_R   0.854469 0.571982 0.529966 -0.339180
N2    N     N_R   0.152004 0.600184 0.528497 -0.358218
N3    N     N_R   0.499460 0.498800 0.142780 -0.139269
N4    N     N_R   0.499440 0.498720 0.857170 -0.170781
O1    O     O_R   0.500000 0.316780 0.614690 -0.632930
O2    O     O_R   0.583850 0.500050 0.614640 -0.531934
O3    O     O_R   0.583840 0.500030 0.385310 -0.607678
O4    O     O_2   0.850778 0.604351 0.299157 -0.478617
O5    O     O_3   0.687013 0.300185 0.546960 -0.714580
O6    O     O_2   0.626881 0.822650 0.544197 -0.329940
O7    O     O_2   0.701326 0.871300 0.384496 -0.257994
O8    O     O_3   0.614489 0.733552 0.299939 -0.539291
O9    O     O_3   0.439281 0.123023 0.303762 -0.747670
O10   O     O_3   0.438415 0.858718 0.304248 -0.733135
O11   O     O_2   0.407801 0.708877 0.773230 -0.286783
O12   O     O_2   0.855797 0.531433 0.759554 -0.496951
O13   O     O_2   0.308720 0.625622 0.783955 -0.285060
O14   O     O_3   0.360889 0.703007 0.004595 -0.502867
O15   O     O_2   0.656812 0.621940 0.992621 -0.273217
O16   O     O_2   0.645844 0.457799 0.818910 -0.274122
O17   O     O_3   0.614421 0.684838 0.767482 -0.539825
O18   O     O_2   0.085075 0.690925 0.074320 -0.245009
O19   O     O_2   0.021787 0.867816 0.116209 -0.221748
O20   O     O_3   0.119431 0.867761 0.245906 -0.508280
O21   O     O_3   0.938842 0.724207 0.197949 -0.637857
O22   O     O_2   0.261756 0.188489 0.596649 -0.260579
O23   O     O_2   0.156498 0.561523 0.758423 -0.489020
O24   O     O_2   0.323481 0.213034 0.402715 -0.313314
O25   O     O_3   0.368880 0.257073 0.640121 -0.576233
O26   O     O_2   0.150625 0.633341 0.298589 -0.461177
O27   O     O_R   0.500000 0.316750 0.385360 -0.586470
O28   O     O_R   0.416160 0.499970 0.614690 -0.568403
O29   O     O_R   0.416150 0.499950 0.385360 -0.643420
O30   O     O_R   0.500000 0.683250 0.614640 -0.606185
O31   O     O_R   0.500000 0.683220 0.385310 -0.546604
S1    S     S_3+6 0.660265 0.771421 0.428039 0.041677
S2    S     S_3+6 0.367189 0.631873 0.852276 0.047450
S3    S     S_3+6 0.618256 0.572551 0.878490 0.042936
S4    S     S_3+6 0.063533 0.781421 0.180127 0.118783
S5    S     S_3+6 0.309822 0.264999 0.540327 0.016542
Zn1   Zn    Zn3+2 0.500000 0.500020 0.653130 1.070507
Zn2   Zn    Zn3+2 0.500000 0.499980 0.346870 1.027935

loop_
_geom_bond_atom_site_label_1
_geom_bond_atom_site_label_2
_ccdc_geom_bond_type
C17   N1    S    
C22   C29   A    
C27   C29   A    
C1    O1    A    
C15   H12   S    
C35   C36   A    
H17   O25   S    
C12   H1    S    
C7    C8    A    
C32   H3    S    
C38   N4    A    
C45   C46   A    
C40   N1    A    
O25   S5    S    
C12   C23   A    
C26   C27   A    
C37   C38   A    
C18   C24   A    
O15   S3    D    
C21   C22   A    
C30   C31   A    
C2    O26   S    
C10   C17   A    
O13   S2    D    
O18   S4    D    
O7    S1    D    
C18   C19   A    
C41   C42   A    
C28   O3    A    
C16   O31   A    
O8    S1    S    
C19   C20   A    
C8    C9    A    
C13   C28   S    
C19   H19   S    
O6    S1    D    
C38   S3    S    
C28   O2    A    
C1    O27   A    
C2    N2    A    
C16   O30   A    
O17   S3    S    
C14   S1    S    
C37   N3    A    
C46   S4    S    
C1    C25   S    
C42   C44   A    
O1    Zn1   S    
C2    C45   A    
O20   S4    S    
C35   N4    A    
O22   S5    D    
O30   Zn1   S    
C13   C14   A    
C48   N2    A    
O29   Zn2   S    
H8    O5    S    
O27   Zn2   S    
C34   C44   A    
C24   C25   A    
C4    C6    S    
C8    H6    S    
C39   C43   A    
C25   C26   A    
H15   O20   S    
C11   O5    S    
C21   H21   S    
C27   O10   S    
O31   Zn2   S    
C12   C41   A    
C3    C9    A    
C36   N3    A    
C23   H23   S    
C31   C32   A    
C23   C34   A    
N4    Zn1   S    
H9    O8    S    
N3    Zn2   S    
C10   H7    S    
H16   O21   S    
O24   S5    D    
C22   C24   A    
O3    Zn2   S    
O2    Zn1   S    
C33   S2    S    
C42   C43   A    
C31   H2    S    
H10   O9    S    
H13   O14   S    
C7    S5    S    
C5    H5    S    
C15   C17   A    
C48   O23   S    
C46   C47   A    
C40   C41   A    
C20   H20   S    
C44   C45   A    
C3    C5    A    
C30   H24   S    
C3    H4    S    
C6    C7    A    
O11   S2    D    
C18   H18   S    
C4    O29   A    
C47   O21   S    
C30   C36   A    
C32   C33   A    
C40   O12   S    
C16   C29   S    
H11   O10   S    
O19   S4    D    
C39   O4    S    
C11   C13   A    
O16   S3    D    
C5    C6    A    
C26   O9    S    
C4    O28   A    
C33   C35   A    
C39   N1    A    
C10   C11   A    
O28   Zn1   S    
C34   C48   A    
C20   C21   A    
C9    N2    S    
H14   O17   S    
C14   C15   A    
O14   S2    S    
C37   H22   S    
C43   C47   A    
