data_mof_unit_41825.cif
_audit_creation_date              2012-12-10T17:31:15-0500
_audit_creation_method            fapswitch 2.2
_symmetry_space_group_name_H-M    P1
_symmetry_Int_Tables_number       1
_space_group_crystal_system       triclinic
_cell_length_a                    11.978437
_cell_length_b                    12.915832
_cell_length_c                    15.176248
_cell_angle_alpha                 86.981576
_cell_angle_beta                  114.848218
_cell_angle_gamma                 94.154589
_cell_volume                      2124.33843143

loop_
_atom_site_label
_atom_site_type_symbol
_atom_type_description
_atom_site_fract_x
_atom_site_fract_y
_atom_site_fract_z
_atom_type_partial_charge
C1    C     C_R   0.475875 0.299222 0.497662 0.900855
C2    C     C_R   0.648869 0.975140 0.496455 -0.276602
C3    C     C_R   0.355584 0.132612 0.500498 0.215126
C4    C     C_R   0.645415 0.867261 0.501501 0.213941
C5    C     C_R   0.555342 0.133818 0.492590 -0.315546
C6    C     C_R   0.445569 0.866013 0.509281 -0.313316
C7    C     C_R   0.551454 0.027303 0.497573 0.152726
C8    C     C_R   0.449664 0.972544 0.504678 0.151093
C9    C     C_R   0.016022 0.615236 0.424856 0.149528
C10   C     C_R   0.985357 0.386451 0.577022 0.137167
C11   C     C_R   0.134512 0.599992 0.430109 -0.035101
C12   C     C_R   0.524272 0.700744 0.502670 0.898691
C13   C     C_R   0.866270 0.400816 0.570897 -0.032080
C14   C     C_R   0.154930 0.450572 0.531765 -0.038221
C15   C     C_R   0.845206 0.549762 0.468497 -0.043824
C16   C     C_R   0.576008 0.498038 0.681244 0.863620
C17   C     C_R   0.424833 0.507947 0.318810 0.864238
C18   C     C_R   0.035402 0.458667 0.527537 -0.029745
C19   C     C_R   0.965188 0.542285 0.473334 -0.027757
C20   C     C_R   0.624143 0.520300 0.784813 -0.076555
C21   C     C_R   0.383321 0.534767 0.215291 -0.072704
C22   C     C_R   0.792313 0.561399 0.939873 -0.180226
C23   C     C_R   0.662317 0.629417 0.110247 0.439460
C24   C     C_R   0.226204 0.586321 0.059104 -0.180432
C25   C     C_R   0.750869 0.529009 0.844357 -0.189165
C26   C     C_R   0.259727 0.552465 0.155306 -0.190666
C27   C     C_R   0.540396 0.546136 0.820983 -0.237555
C28   C     C_R   0.472611 0.553965 0.179088 -0.244136
C29   C     C_R   0.580251 0.587319 0.913090 0.078935
C30   C     C_R   0.442471 0.595625 0.085634 0.080602
C31   C     C_R   0.707500 0.588522 0.975270 0.089620
C32   C     C_R   0.316528 0.605564 0.023195 0.091831
C33   C     C_R   0.494787 0.616084 0.948178 -0.110704
C34   C     C_R   0.370278 0.638510 0.886991 0.434660
C35   C     C_R   0.533636 0.615947 0.049672 -0.113238
C36   C     C_3   0.993282 0.770876 0.315131 -0.744502
C37   C     C_3   0.014723 0.237611 0.694863 -0.806771
C38   C     C_3   0.841366 0.794789 0.595758 -0.748351
C39   C     C_3   0.158751 0.203826 0.406759 -0.760418
C40   C     C_R   0.747553 0.615271 0.072090 -0.229712
C41   C     C_R   0.282798 0.632781 0.925550 -0.227038
C42   C     C_R   0.540987 0.812596 0.505680 -0.102979
C43   C     C_R   0.459660 0.187281 0.495688 -0.104599
C44   C     C_R   0.352332 0.024727 0.505922 -0.274323
H1    H     H_    0.845159 0.622296 0.119158 0.161161
H2    H     H_    0.129855 0.596391 0.012600 0.126316
H3    H     H_    0.366039 0.824903 0.514236 0.177574
H4    H     H_    0.634802 0.174887 0.487490 0.174008
H5    H     H_    0.273492 0.981913 0.510449 0.140965
H6    H     H_    0.727844 0.017966 0.492171 0.138539
H7    H     H_    0.786811 0.610214 0.425338 0.172533
H8    H     H_    0.213030 0.389791 0.574558 0.155756
H9    H     H_    0.913439 0.742910 0.413170 0.219004
H10   H     H_    0.923332 0.827966 0.274564 0.250512
H11   H     H_    0.007652 0.724995 0.261247 0.235927
H12   H     H_    0.187628 0.646643 0.878160 0.164805
H13   H     H_    0.080210 0.814151 0.361710 0.210595
H14   H     H_    0.086595 0.257349 0.590931 0.218417
H15   H     H_    0.086667 0.182828 0.737443 0.246509
H16   H     H_    0.927925 0.191594 0.652631 0.228680
H17   H     H_    0.001938 0.287837 0.746793 0.249521
H18   H     H_    0.644559 0.702781 0.211082 0.328931
H19   H     H_    0.404574 0.706395 0.783671 0.334317
H20   H     H_    0.780826 0.850243 0.454061 0.210682
H21   H     H_    0.911823 0.748469 0.589009 0.232476
H22   H     H_    0.802725 0.749849 0.642015 0.254541
H23   H     H_    0.824559 0.347585 0.607109 0.149164
H24   H     H_    0.886567 0.868976 0.631291 0.227890
H25   H     H_    0.221367 0.150199 0.549087 0.210644
H26   H     H_    0.088388 0.250133 0.413663 0.227299
H27   H     H_    0.113752 0.129147 0.372225 0.226959
H28   H     H_    0.196291 0.248282 0.359554 0.255580
H29   H     H_    0.176654 0.653303 0.394292 0.145275
H30   H     H_    0.566107 0.533929 0.223932 0.202292
H31   H     H_    0.442947 0.532320 0.776984 0.205355
H32   H     H_    0.189306 0.539646 0.182443 0.149285
H33   H     H_    0.817467 0.510890 0.817269 0.152639
H34   H     H_    0.890248 0.564735 0.986114 0.125553
N1    N     N_R   0.799120 0.480200 0.517090 -0.118297
N2    N     N_R   0.200880 0.519800 0.482910 -0.112233
N3    N     N_2   0.949055 0.703532 0.374379 -0.267446
N4    N     N_2   0.054204 0.299995 0.629914 -0.309405
N5    N     N_2   0.745444 0.815239 0.500271 -0.299813
N6    N     N_2   0.255739 0.184648 0.502029 -0.298282
O1    O     O_R   0.580150 0.341050 0.504560 -0.632972
O2    O     O_3   0.332230 0.672793 0.791696 -0.779206
O3    O     O_R   0.419850 0.658950 0.495440 -0.631699
O4    O     O_R   0.388090 0.353760 0.493600 -0.588059
O5    O     O_R   0.611910 0.646240 0.506400 -0.589569
O6    O     O_R   0.650890 0.490020 0.640860 -0.617038
O7    O     O_R   0.349110 0.509980 0.359140 -0.617815
O8    O     O_R   0.458830 0.502730 0.629890 -0.607197
O9    O     O_R   0.541170 0.497270 0.370110 -0.610050
O10   O     O_3   0.708101 0.662885 0.204375 -0.776625
Zn1   Zn    Zn3+2 0.628240 0.491510 0.507320 0.942649
Zn2   Zn    Zn3+2 0.371760 0.508490 0.492680 0.947524

loop_
_geom_bond_atom_site_label_1
_geom_bond_atom_site_label_2
_ccdc_geom_bond_type
C44   H5    S    
C21   C26   A    
O4    Zn2   S    
C16   O6    A    
C38   N5    S    
C27   C29   A    
C14   C18   A    
C2    C7    A    
C17   O7    A    
C28   H30   S    
C13   N1    A    
C7    C8    A    
H20   N5    S    
C15   C19   A    
C3    C43   A    
C30   C35   A    
C25   H33   S    
C24   C26   A    
C39   N6    S    
H14   N4    S    
C20   C25   A    
C23   C40   A    
C29   C33   A    
O8    Zn2   S    
C31   C40   A    
H9    N3    S    
C18   C19   A    
C34   O2    S    
C12   C42   S    
C2    H6    S    
O7    Zn2   S    
C1    C43   S    
C15   N1    A    
C38   H22   S    
C22   C25   A    
C26   H32   S    
C32   C41   A    
C15   H7    S    
N2    Zn2   S    
C1    O4    A    
C5    C43   A    
O9    Zn1   S    
C34   C41   A    
C27   H31   S    
C9    C19   A    
C1    O1    A    
C40   H1    S    
C5    H4    S    
C14   H8    S    
C3    C44   A    
C22   C31   A    
C12   O5    A    
O6    Zn1   S    
C22   H34   S    
C36   H13   S    
C6    H3    S    
C5    C7    A    
C6    C8    A    
C10   N4    S    
C17   C21   S    
O5    Zn1   S    
C2    C4    A    
C24   C32   A    
C41   H12   S    
N1    Zn1   S    
C38   H21   S    
C36   N3    S    
C16   C20   S    
O3    Zn2   S    
C33   C34   A    
C9    C11   A    
C37   H15   S    
C39   H28   S    
C21   C28   A    
C38   H24   S    
C16   O8    A    
C23   C35   A    
C14   N2    A    
H18   O10   S    
H19   O2    S    
C11   H29   S    
C37   N4    S    
C17   O9    A    
C13   H23   S    
C12   O3    A    
C8    C44   A    
C10   C13   A    
C37   H17   S    
C20   C27   A    
C23   O10   S    
C24   H2    S    
C28   C30   A    
C29   C31   A    
C36   H11   S    
C30   C32   A    
O1    Zn1   S    
C4    N5    S    
C4    C42   A    
C10   C18   A    
C33   C35   A    
C39   H26   S    
C37   H16   S    
C36   H10   S    
C11   N2    A    
C6    C42   A    
C3    N6    S    
H25   N6    S    
C39   H27   S    
C9    N3    S    
