data_mof_unit_7047.cif
_audit_creation_date              2013-03-05T15:58:07-0500
_audit_creation_method            fapswitch 2.2
_symmetry_space_group_name_H-M    P1
_symmetry_Int_Tables_number       1
_space_group_crystal_system       triclinic
_cell_length_a                    15.012933
_cell_length_b                    13.943909
_cell_length_c                    10.751235
_cell_angle_alpha                 89.958029
_cell_angle_beta                  85.373305
_cell_angle_gamma                 90.385763
_cell_volume                      2243.26582867

loop_
_atom_site_label
_atom_site_type_symbol
_atom_site_description
_atom_site_fract_x
_atom_site_fract_y
_atom_site_fract_z
_atom_type_partial_charge
O1    O     O_R   0.370250 0.582280 0.500040 -0.579628
O2    O     O_R   0.370250 0.417720 0.500040 -0.579599
C1    C     C_R   0.329385 0.499727 0.500496 0.782206
O3    O     O_R   0.499970 0.582270 0.317700 -0.591643
O4    O     O_R   0.499970 0.417730 0.317700 -0.587379
C2    C     C_R   0.496605 0.500065 0.260815 0.749187
Cu1   Cu    Cu3+1 0.499990 0.597420 0.500010 0.922949
Cu2   Cu    Cu3+1 0.499990 0.402580 0.500010 0.928076
O5    O     O_R   0.629730 0.582260 0.499980 -0.579641
O6    O     O_R   0.629730 0.417740 0.499980 -0.578950
O7    O     O_R   0.500000 0.582270 0.682320 -0.588864
O8    O     O_R   0.500000 0.417730 0.682320 -0.591331
C3    C     C_R   0.670978 0.500170 0.498069 0.799869
C4    C     C_R   0.498422 0.499932 0.740113 0.737088
C5    C     C_3   0.449540 0.591128 0.077041 -0.379254
C6    C     C_3   0.446761 0.410491 0.077544 -0.370700
H1    H     H_    0.483933 0.657223 0.106876 0.183992
H2    H     H_    0.481056 0.344000 0.104479 0.182832
H3    H     H_    0.379226 0.593522 0.118595 0.166750
H4    H     H_    0.377277 0.407716 0.122267 0.166328
C7    C     C_3   0.450915 0.590776 0.933875 -0.432164
C8    C     C_3   0.444399 0.412755 0.934843 -0.438823
H5    H     H_    0.380942 0.592063 0.906552 0.159936
H6    H     H_    0.373808 0.417841 0.910784 0.159219
H7    H     H_    0.483092 0.657811 0.896373 0.189544
H8    H     H_    0.469964 0.343803 0.895528 0.189714
H9    H     H_    0.627848 0.566028 0.097363 0.154968
H10   H     H_    0.629823 0.438680 0.104809 0.155649
C9    C     C_3   0.594079 0.500160 0.065787 -0.372240
C10   C     C_3   0.496339 0.500329 0.122982 0.098983
C11   C     C_3   0.499564 0.499844 0.878672 0.176089
C12   C     C_3   0.598659 0.496045 0.920332 0.375371
C13   C     C_R   0.819646 0.511104 0.372184 0.127544
C14   C     C_R   0.768394 0.500160 0.488198 -0.040657
C15   C     C_R   0.809053 0.486048 0.597980 -0.298748
C16   C     C_R   0.900994 0.485427 0.598329 0.124399
C17   C     C_R   0.954693 0.496827 0.485136 0.006620
C18   C     C_R   0.915298 0.507477 0.369122 0.015435
C19   C     C_R   0.939645 0.473632 0.711775 -0.192567
C20   C     C_R   0.031916 0.473691 0.714892 -0.197143
C21   C     C_R   0.086658 0.485611 0.604566 0.123315
C22   C     C_R   0.048301 0.497256 0.489306 0.069706
C23   C     C_R   0.103977 0.509443 0.378822 0.088118
C24   C     C_R   0.066888 0.518230 0.264993 -0.262008
C25   C     C_R   0.974378 0.515235 0.257563 0.031862
C26   C     C_R   0.179396 0.486020 0.607498 -0.262121
C27   C     C_R   0.233600 0.499078 0.497270 -0.033280
C28   C     C_R   0.196630 0.510979 0.383435 -0.215672
H11   H     H_    0.768550 0.476463 0.684672 0.145433
H12   H     H_    0.898259 0.464610 0.798451 0.164686
H13   H     H_    0.060437 0.464712 0.803601 0.162542
H14   H     H_    0.209581 0.476811 0.695074 0.116251
H15   H     H_    0.240228 0.520382 0.298684 0.116458
H16   H     H_    0.110792 0.525240 0.180057 0.147858
C29   C     C_R   0.441445 0.794017 0.582773 0.294124
C30   C     C_R   0.443036 0.204964 0.584760 0.291034
N1    N     N_R   0.499930 0.743810 0.499950 -0.180906
N2    N     N_R   0.499930 0.256190 0.499950 -0.181870
C31   C     C_R   0.558379 0.795257 0.417487 0.257339
C32   C     C_R   0.553308 0.205743 0.410861 0.281972
C33   C     C_R   0.551055 0.897308 0.406606 0.003408
C34   C     C_R   0.549783 0.103207 0.405572 -0.004506
C35   C     C_R   0.496341 0.948259 0.495598 0.033824
C36   C     C_R   0.496431 0.051454 0.495842 0.033566
C37   C     C_R   0.441839 0.896564 0.584738 -0.003717
C38   C     C_R   0.442711 0.102351 0.585808 -0.002735
C39   C     C_R   0.597329 0.950696 0.310029 -0.185013
C40   C     C_R   0.597725 0.050574 0.310444 -0.192369
C41   C     C_R   0.388384 0.048849 0.674227 -0.191479
C42   C     C_R   0.387706 0.949191 0.673419 -0.192255
H17   H     H_    0.631632 0.917391 0.229546 0.144424
H18   H     H_    0.635862 0.085293 0.233394 0.152376
H19   H     H_    0.345082 0.082514 0.746296 0.151707
H20   H     H_    0.343779 0.914834 0.744781 0.152033
C43   C     C_2   0.946263 0.515835 0.129296 0.817275
O9    O     O_2   0.928483 0.440220 0.079014 -0.619616
O10   O     O_R   0.945611 0.602206 0.063346 -0.769385
H21   H     H_    0.926470 0.593373 0.975755 0.323501
C44   C     C_3   0.375905 0.744024 0.676601 -0.789995
H22   H     H_    0.373942 0.666411 0.675154 0.271483
H23   H     H_    0.391495 0.763431 0.772602 0.184440
H24   H     H_    0.306876 0.766915 0.661500 0.203017
C45   C     C_3   0.377089 0.253940 0.677856 -0.794638
H25   H     H_    0.374334 0.331488 0.674643 0.271946
H26   H     H_    0.308267 0.229386 0.662699 0.202464
H27   H     H_    0.392423 0.235215 0.774081 0.184794
C46   C     C_3   0.639401 0.746140 0.353366 -0.752864
H28   H     H_    0.682391 0.790703 0.288625 0.177363
H29   H     H_    0.685304 0.726654 0.424623 0.246043
H30   H     H_    0.621069 0.684093 0.297917 0.244681
C47   C     C_3   0.617787 0.255588 0.315461 -0.775317
H31   H     H_    0.685793 0.225651 0.320335 0.202856
H32   H     H_    0.595642 0.244235 0.220460 0.185969
H33   H     H_    0.626693 0.332298 0.325859 0.275905
C48   C     C_3   0.656374 0.581687 0.866540 -0.859819
H34   H     H_    0.726203 0.575516 0.892976 0.231625
H35   H     H_    0.658610 0.584277 0.763359 0.238846
H36   H     H_    0.630853 0.651342 0.903529 0.223190
C49   C     C_3   0.647059 0.402317 0.876483 -0.856203
H37   H     H_    0.616027 0.338098 0.923500 0.222312
H38   H     H_    0.646852 0.392217 0.774361 0.244451
H39   H     H_    0.717843 0.404058 0.899920 0.235500
C50   C     C_3   0.771175 0.527868 0.255987 -0.892269
H40   H     H_    0.779903 0.465595 0.192476 0.257390
H41   H     H_    0.698387 0.535590 0.275241 0.201917
H42   H     H_    0.794625 0.595581 0.209710 0.255619

loop_
_geom_bond_atom_site_label_1
_geom_bond_atom_site_label_2
_geom_bond_distance
_ccdc_geom_bond_type
C46   H28   1.099377 S    
C35   C37   1.404316 A    
H9    C9    1.112564 S    
C21   C22   1.417618 A    
C48   H34   1.111958 S    
C4    C11   1.491163 S    
C23   C24   1.390462 A    
C44   H24   1.110734 S    
C48   H36   1.108742 S    
Cu1   Cu2   2.716830 S    
O10   H21   1.013860 S    
C5    H3    1.113303 S    
C7    C11   1.561087 S    
C12   C48   1.554193 S    
C17   C18   1.430906 A    
C30   C45   1.516119 S    
C45   H25   1.083031 S    
C6    H4    1.113278 S    
C9    C12   1.560898 S    
O4    C2    1.303611 A    
O7    C4    1.304225 A    
N1    C31   1.391299 A    
C38   C41   1.411070 A    
N2    C32   1.392530 A    
C37   C42   1.411401 A    
C26   H14   1.085276 S    
C32   C34   1.431717 A    
C14   C15   1.386326 A    
C17   C22   1.409633 A    
C33   C35   1.406040 A    
O5    C3    1.304480 A    
C18   C25   1.436616 A    
C34   C36   1.403557 A    
Cu2   N2    2.041244 S    
C27   C28   1.394258 A    
C49   H39   1.111845 S    
C42   H20   1.080103 S    
C16   C17   1.412771 A    
C21   C26   1.395129 A    
C41   H19   1.080145 S    
C23   C28   1.395903 A    
C40   H18   1.080536 S    
O1    Cu1   1.957745 S    
O3    Cu1   1.971587 S    
C29   C37   1.430058 A    
C16   C19   1.402340 A    
C28   H15   1.085499 S    
C31   C33   1.433382 A    
C8    C11   1.558835 S    
C39   C40   1.392674 A    
O3    C2    1.302201 A    
C19   C20   1.388357 A    
C44   H23   1.109875 S    
C35   C36   1.438942 A    
C49   H38   1.107296 S    
O1    C1    1.300560 A    
C15   C16   1.380700 A    
C36   C38   1.404480 A    
Cu1   O7    1.971267 S    
C43   O9    1.222906 D    
C15   H11   1.078705 S    
C9    C10   1.544590 S    
C24   H16   1.086172 S    
C47   H32   1.110460 S    
C29   C44   1.517016 S    
C33   C39   1.410845 A    
C49   H37   1.109131 S    
Cu2   O8    1.971575 S    
C19   H12   1.084270 S    
C13   C14   1.419290 A    
C50   H41   1.101682 S    
C43   O10   1.397610 S    
Cu2   O6    1.957775 S    
C20   C21   1.396637 A    
C45   H26   1.110766 S    
O8    C4    1.303640 A    
C7    H5    1.113637 S    
C8    H6    1.113683 S    
C22   C23   1.405737 A    
C47   H31   1.110730 S    
C24   C25   1.397898 A    
C5    C10   1.551656 S    
C32   C47   1.517191 S    
C5    H1    1.113392 S    
C7    H7    1.109774 S    
C26   C27   1.393522 A    
H10   C9    1.113938 S    
C6    C8    1.537785 S    
C2    C10   1.482201 S    
C13   C50   1.514374 S    
C11   C12   1.589092 S    
O2    Cu2   1.960572 S    
O6    C3    1.301283 A    
O4    Cu2   1.971279 S    
C48   H35   1.107673 S    
C20   H13   1.083992 S    
C13   C18   1.434981 A    
C12   C49   1.554581 S    
C34   C40   1.411426 A    
C25   C43   1.474415 S    
C29   N1    1.391773 A    
O2    C1    1.301139 A    
C3    C14   1.457779 S    
C47   H33   1.084041 S    
C30   C38   1.430828 A    
C1    C27   1.441203 S    
C30   N2    1.391538 A    
C50   H42   1.108847 S    
C39   H17   1.077746 S    
C41   C42   1.389635 A    
C31   C46   1.516752 S    
C44   H22   1.082587 S    
Cu1   O5    1.960605 S    
C5    C7    1.537690 S    
C45   H27   1.109170 S    
C6    H2    1.112936 S    
C8    H8    1.108949 S    
C46   H30   1.097129 S    
C50   H40   1.106969 S    
C46   H29   1.105907 S    
C6    C10   1.552063 S    
Cu1   N1    2.041255 S    
