data_mof_unit_63389.cif
_audit_creation_date              2012-12-10T16:47:49-0500
_audit_creation_method            fapswitch 2.2
_symmetry_space_group_name_H-M    P1
_symmetry_Int_Tables_number       1
_space_group_crystal_system       triclinic
_cell_length_a                    18.633714
_cell_length_b                    18.649174
_cell_length_c                    27.627244
_cell_angle_alpha                 89.770823
_cell_angle_beta                  90.006552
_cell_angle_gamma                 89.954598
_cell_volume                      9600.48064159

loop_
_atom_site_label
_atom_site_type_symbol
_atom_type_description
_atom_site_fract_x
_atom_site_fract_y
_atom_site_fract_z
_atom_type_partial_charge
C1    C     C_1   0.500008 0.000012 0.680953 0.012175
C2    C     C_R   0.500003 0.000010 0.629122 0.504029
C3    C     C_3   0.311708 0.794482 0.894455 -0.408270
C4    C     C_3   0.875859 0.794291 0.976404 -0.280640
C5    C     C_3   0.912119 0.799000 0.926899 -0.432534
C6    C     C_3   0.731739 0.183729 0.917420 -0.300887
C7    C     C_3   0.666919 0.225163 0.898128 -0.421583
C8    C     C_3   0.214227 0.900667 0.480984 -0.112085
C9    C     C_3   0.164120 0.243811 0.571612 -0.062344
C10   C     C_3   0.776902 0.096312 0.472146 -0.138162
C11   C     C_3   0.758635 0.653540 0.579200 -0.116306
C12   C     C_3   0.782748 0.904642 0.472455 -0.121374
C13   C     C_R   0.499984 0.999884 0.129110 0.489580
C14   C     C_3   0.857010 0.222910 0.554114 -0.066482
C15   C     C_3   0.226687 0.097094 0.455388 -0.139934
C16   C     C_3   0.228798 0.648911 0.585720 -0.109710
C17   C     C_3   0.714431 0.400568 0.980868 -0.111004
C18   C     C_3   0.665553 0.745527 0.072513 -0.059292
C19   C     C_3   0.290377 0.625442 0.031596 -0.062920
C20   C     C_3   0.259856 0.157539 0.079277 -0.119706
C21   C     C_3   0.280197 0.406492 0.966849 -0.111424
C22   C     C_3   0.283976 0.840302 0.090820 -0.133322
C23   C     C_3   0.725485 0.596690 0.956495 -0.137682
C24   C     C_R   0.000004 0.500011 0.129122 0.502816
C25   C     C_3   0.728377 0.149463 0.086053 -0.109810
C26   C     C_R   0.999997 0.500006 0.370911 0.498687
C27   C     C_R   0.499997 0.000114 0.370920 0.498373
C28   C     C_R   0.499997 0.999997 0.870911 0.499645
C29   C     C_R   0.999995 0.500114 0.870920 0.500303
C30   C     C_R   0.138348 0.360985 0.499842 0.500056
C31   C     C_R   0.638816 0.138105 0.499164 0.486685
C32   C     C_R   0.861576 0.638444 0.499726 0.492507
C33   C     C_1   0.000013 0.499728 0.680943 0.007188
C34   C     C_R   0.361034 0.861811 0.499662 0.489749
C35   C     C_R   0.860577 0.361788 0.500917 0.500654
C36   C     C_R   0.361217 0.138321 0.499312 0.499176
C37   C     C_R   0.139257 0.637587 0.500456 0.497048
C38   C     C_R   0.639099 0.861932 0.499404 0.494714
C39   C     C_R   0.638354 0.861001 0.999847 0.501505
C40   C     C_R   0.138541 0.638675 0.000136 0.497717
C41   C     C_R   0.361721 0.138626 0.999639 0.491458
C42   C     C_R   0.861057 0.361788 0.999681 0.489105
C43   C     C_R   0.360484 0.862383 0.000730 0.502985
C44   C     C_1   0.000010 0.500022 0.180953 0.010350
C45   C     C_R   0.861143 0.638291 0.999266 0.498721
C46   C     C_R   0.639289 0.137566 0.000482 0.497802
C47   C     C_R   0.139190 0.362129 0.999229 0.496845
C48   C     C_1   0.999999 0.500029 0.275519 -0.044229
C49   C     C_1   0.499971 0.000132 0.275515 -0.045774
C50   C     C_1   0.499996 0.000008 0.775520 -0.043004
C51   C     C_1   0.000004 0.500138 0.775516 -0.043638
C52   C     C_2   0.310454 0.743405 0.480522 0.035678
C53   C     C_2   0.240550 0.294796 0.465586 0.048500
C54   C     C_2   0.682656 0.260682 0.496283 0.062396
C55   C     C_1   0.499969 0.999721 0.180942 0.002413
C56   C     C_2   0.760417 0.706284 0.465762 0.039540
C57   C     C_2   0.694241 0.747286 0.475037 0.043752
C58   C     C_2   0.739733 0.311640 0.482142 0.060508
C59   C     C_2   0.306387 0.253350 0.475591 0.059594
C60   C     C_2   0.245847 0.700773 0.470134 0.051149
C61   C     C_2   0.810847 0.243097 0.980981 0.036131
C62   C     C_2   0.739515 0.793993 0.965019 0.048823
C63   C     C_2   0.185141 0.760216 0.987427 0.051563
C64   C     C_2   0.261738 0.207673 0.965082 0.040676
C65   C     C_2   0.195424 0.248457 0.974256 0.043221
C66   C     C_1   0.500005 0.000012 0.724524 -0.038360
C67   C     C_2   0.247185 0.805284 0.974533 0.055247
C68   C     C_2   0.805655 0.752768 0.974588 0.058925
C69   C     C_2   0.746418 0.200264 0.970442 0.050406
C70   C     C_2   0.300240 0.812433 0.494084 0.321200
C71   C     C_2   0.197400 0.309335 0.503861 0.299396
C72   C     C_2   0.697313 0.189732 0.491906 0.325048
C73   C     C_2   0.800508 0.686713 0.504602 0.325499
C74   C     C_2   0.701470 0.815495 0.491136 0.330993
C75   C     C_2   0.800039 0.312520 0.509710 0.311536
C76   C     C_2   0.298935 0.183451 0.488579 0.328772
C77   C     C_1   0.000011 0.499864 0.724516 -0.041174
C78   C     C_2   0.202323 0.682759 0.507602 0.342648
C79   C     C_2   0.800370 0.312250 0.994172 0.321362
C80   C     C_2   0.697335 0.809237 0.003660 0.299476
C81   C     C_2   0.197822 0.689712 0.995896 0.313379
C82   C     C_2   0.301427 0.188042 0.004064 0.322888
C83   C     C_2   0.202043 0.316999 0.989891 0.331522
C84   C     C_2   0.297259 0.817452 0.009329 0.328416
C85   C     C_2   0.798640 0.683174 0.988471 0.328251
C86   C     C_2   0.702411 0.182642 0.007747 0.342500
C87   C     C_1   0.999994 0.500021 0.319088 0.001105
C88   C     C_1   0.000007 0.500029 0.224523 -0.040162
C89   C     C_1   0.499982 0.000271 0.319088 0.000976
C90   C     C_1   0.499992 0.000003 0.819088 0.001854
C91   C     C_1   0.999998 0.500274 0.819088 0.002262
C92   C     C_3   0.384559 0.709891 0.473638 -0.295496
C93   C     C_3   0.384674 0.627828 0.473359 -0.460366
C94   C     C_3   0.224766 0.318119 0.413574 -0.286650
C95   C     C_3   0.235147 0.257788 0.377012 -0.451300
C96   C     C_3   0.611043 0.288238 0.515666 -0.295996
C97   C     C_3   0.611587 0.367357 0.530087 -0.452683
C98   C     C_3   0.780555 0.689864 0.413380 -0.286703
C99   C     C_1   0.499965 0.999855 0.224514 -0.044573
C100  C     C_3   0.776270 0.756254 0.380890 -0.447300
C101  C     C_3   0.623305 0.707133 0.472268 -0.288083
C102  C     C_3   0.591178 0.708081 0.421352 -0.424669
C103  C     C_3   0.729291 0.351959 0.434764 -0.291198
C104  C     C_3   0.776334 0.321530 0.394434 -0.403467
C105  C     C_3   0.376587 0.294721 0.478853 -0.281276
C106  C     C_3   0.413996 0.301344 0.429830 -0.433686
C107  C     C_3   0.230496 0.684743 0.417126 -0.300786
C108  C     C_3   0.165382 0.726290 0.398407 -0.423752
C109  C     C_3   0.885085 0.209699 0.974490 -0.295424
C110  C     C_R   0.000009 0.499886 0.629110 0.496961
C111  C     C_3   0.885427 0.127633 0.974798 -0.460585
C112  C     C_3   0.722612 0.816772 0.913058 -0.286891
C113  C     C_3   0.731454 0.755835 0.876782 -0.450696
C114  C     C_3   0.111593 0.795952 0.990912 -0.299691
C115  C     C_3   0.112940 0.862294 0.023127 -0.457720
C116  C     C_3   0.281191 0.189394 0.912884 -0.286483
C117  C     C_3   0.276268 0.254499 0.879292 -0.446547
C118  C     C_3   0.124908 0.207408 0.972474 -0.288748
C119  C     C_3   0.091596 0.207567 0.921905 -0.424850
C120  C     C_3   0.251490 0.831528 0.922410 -0.292714
H1    H     H_    0.359094 0.606591 0.506737 0.155921
H2    H     H_    0.260208 0.363765 0.403922 0.147837
H3    H     H_    0.246541 0.113906 0.419135 0.093488
H4    H     H_    0.169747 0.080835 0.451460 0.125867
H5    H     H_    0.264238 0.607004 0.569875 0.078668
H6    H     H_    0.176611 0.625242 0.596790 0.141557
H7    H     H_    0.255449 0.668813 0.618952 0.144064
H8    H     H_    0.743005 0.407890 0.945735 0.064980
H9    H     H_    0.725907 0.445377 0.005916 0.161513
H10   H     H_    0.656085 0.401949 0.972957 0.132592
H11   H     H_    0.630170 0.716066 0.046819 0.148785
H12   H     H_    0.632925 0.780332 0.096479 0.142395
H13   H     H_    0.654722 0.377629 0.556933 0.172797
H14   H     H_    0.691981 0.704795 0.095849 0.147321
H15   H     H_    0.278639 0.567527 0.027298 0.131264
H16   H     H_    0.266617 0.645771 0.065951 0.155433
H17   H     H_    0.349455 0.631007 0.034750 0.144622
H18   H     H_    0.304925 0.121580 0.089722 0.126031
H19   H     H_    0.216260 0.126331 0.061559 0.076327
H20   H     H_    0.237459 0.180477 0.113040 0.144844
H21   H     H_    0.257247 0.454796 0.984303 0.145267
H22   H     H_    0.256897 0.399757 0.930000 0.079603
H23   H     H_    0.338601 0.415830 0.962360 0.138153
H24   H     H_    0.619512 0.402232 0.497898 0.136915
H25   H     H_    0.254465 0.889109 0.078540 0.077800
H26   H     H_    0.338581 0.855006 0.103379 0.155621
H27   H     H_    0.254596 0.818224 0.122445 0.129484
H28   H     H_    0.757137 0.549451 0.968174 0.120352
H29   H     H_    0.743691 0.613596 0.919880 0.093210
H30   H     H_    0.668536 0.579968 0.953663 0.129600
H31   H     H_    0.764309 0.107723 0.070516 0.078149
H32   H     H_    0.676234 0.125474 0.096899 0.141908
H33   H     H_    0.754471 0.169754 0.119378 0.143930
H34   H     H_    0.559219 0.381485 0.546710 0.138150
H35   H     H_    0.568763 0.280173 0.487905 0.155669
H36   H     H_    0.596217 0.256823 0.548455 0.144083
H37   H     H_    0.721018 0.778447 0.380006 0.152356
H38   H     H_    0.814012 0.797925 0.393984 0.159449
H39   H     H_    0.791622 0.741619 0.343369 0.139545
H40   H     H_    0.836298 0.669923 0.409867 0.163839
H41   H     H_    0.356090 0.607039 0.441109 0.147194
H42   H     H_    0.744401 0.647681 0.399179 0.144595
H43   H     H_    0.587611 0.763412 0.406711 0.185185
H44   H     H_    0.623939 0.675229 0.396372 0.136317
H45   H     H_    0.536403 0.684835 0.422451 0.134440
H46   H     H_    0.632105 0.650341 0.483142 0.125156
H47   H     H_    0.583857 0.728553 0.498642 0.151334
H48   H     H_    0.834122 0.324777 0.403721 0.165779
H49   H     H_    0.762212 0.264546 0.387814 0.176698
H50   H     H_    0.767109 0.352415 0.360558 0.138096
H51   H     H_    0.672590 0.346483 0.422765 0.132809
H52   H     H_    0.440877 0.608081 0.472027 0.135163
H53   H     H_    0.737976 0.410336 0.439321 0.166394
H54   H     H_    0.422014 0.248018 0.413044 0.186384
H55   H     H_    0.382182 0.335400 0.404821 0.139922
H56   H     H_    0.467240 0.326962 0.434763 0.132802
H57   H     H_    0.365488 0.349583 0.492581 0.144161
H58   H     H_    0.413737 0.270063 0.505593 0.147817
H59   H     H_    0.115496 0.709036 0.416948 0.156540
H60   H     H_    0.173154 0.784709 0.404057 0.156163
H61   H     H_    0.158858 0.716442 0.359043 0.135789
H62   H     H_    0.277237 0.701291 0.394689 0.134381
H63   H     H_    0.407933 0.729298 0.439004 0.161466
H64   H     H_    0.224032 0.626471 0.410789 0.172362
H65   H     H_    0.859790 0.106850 0.008283 0.155460
H66   H     H_    0.857018 0.106250 0.942655 0.147526
H67   H     H_    0.941687 0.108020 0.973702 0.134978
H68   H     H_    0.908570 0.228642 0.939773 0.161728
H69   H     H_    0.920444 0.226909 0.004702 0.155882
H70   H     H_    0.786240 0.732590 0.878247 0.154138
H71   H     H_    0.691016 0.713514 0.884068 0.154946
H72   H     H_    0.722287 0.776726 0.839595 0.143017
H73   H     H_    0.666418 0.835126 0.908794 0.164546
H74   H     H_    0.420095 0.726531 0.503902 0.156341
H75   H     H_    0.758257 0.861925 0.902707 0.147909
H76   H     H_    0.129590 0.847264 0.060397 0.160038
H77   H     H_    0.150155 0.903430 0.008397 0.145780
H78   H     H_    0.058330 0.886067 0.024788 0.134389
H79   H     H_    0.093857 0.811960 0.954068 0.138060
H80   H     H_    0.070169 0.760041 0.006415 0.161027
H81   H     H_    0.221107 0.276948 0.878731 0.152480
H82   H     H_    0.314646 0.296417 0.891122 0.160141
H83   H     H_    0.290466 0.238305 0.841860 0.140591
H84   H     H_    0.336983 0.169536 0.909427 0.164602
H85   H     H_    0.290160 0.235153 0.378895 0.154665
H86   H     H_    0.244956 0.146588 0.899640 0.145176
H87   H     H_    0.086864 0.262752 0.907160 0.185504
H88   H     H_    0.124305 0.175093 0.896664 0.136876
H89   H     H_    0.037214 0.183495 0.923637 0.134536
H90   H     H_    0.134615 0.150796 0.983430 0.125108
H91   H     H_    0.085832 0.228550 0.999200 0.150262
H92   H     H_    0.365112 0.807455 0.909763 0.159891
H93   H     H_    0.304018 0.735424 0.895374 0.176632
H94   H     H_    0.310696 0.812648 0.856138 0.137940
H95   H     H_    0.200530 0.818949 0.903339 0.132619
H96   H     H_    0.195061 0.214898 0.383616 0.154076
H97   H     H_    0.256717 0.890667 0.920472 0.169718
H98   H     H_    0.919924 0.745047 0.911001 0.186613
H99   H     H_    0.879673 0.831960 0.901598 0.139683
H100  H     H_    0.965341 0.824970 0.930828 0.132777
H101  H     H_    0.865019 0.849692 0.989221 0.143060
H102  H     H_    0.913591 0.770760 0.003230 0.147765
H103  H     H_    0.616766 0.208128 0.916432 0.156912
H104  H     H_    0.674673 0.283629 0.903582 0.157299
H105  H     H_    0.660922 0.214955 0.858768 0.138629
H106  H     H_    0.778784 0.200017 0.895189 0.135563
H107  H     H_    0.226579 0.279085 0.339864 0.142027
H108  H     H_    0.725329 0.125399 0.911299 0.172548
H109  H     H_    0.242386 0.907687 0.445669 0.063859
H110  H     H_    0.226057 0.945686 0.505787 0.161163
H111  H     H_    0.155788 0.902042 0.473390 0.130762
H112  H     H_    0.129258 0.215206 0.545159 0.141767
H113  H     H_    0.130933 0.277673 0.595843 0.140062
H114  H     H_    0.190206 0.202324 0.594512 0.148034
H115  H     H_    0.737186 0.066635 0.449849 0.113804
H116  H     H_    0.778796 0.076132 0.510029 0.138036
H117  H     H_    0.830544 0.086662 0.456035 0.119345
H118  H     H_    0.168487 0.335921 0.408786 0.164316
H119  H     H_    0.803943 0.617583 0.589171 0.129210
H120  H     H_    0.715332 0.622615 0.560936 0.079823
H121  H     H_    0.735956 0.675191 0.613265 0.145734
H122  H     H_    0.763027 0.951782 0.492643 0.138296
H123  H     H_    0.758161 0.902946 0.435691 0.072472
H124  H     H_    0.841468 0.911228 0.467629 0.132065
H125  H     H_    0.899531 0.242820 0.578765 0.143879
H126  H     H_    0.880817 0.210592 0.518047 0.130012
H127  H     H_    0.836775 0.171772 0.569529 0.134906
H128  H     H_    0.257437 0.049588 0.467662 0.121133
O1    O     O_3   0.000000 0.500000 0.500010 -0.432690
O2    O     O_R   0.939960 0.500000 0.106300 -0.531211
O3    O     O_R   0.500000 0.939960 0.106300 -0.548560
O4    O     O_R   0.060040 0.500000 0.106300 -0.536799
O5    O     O_R   0.060080 0.500000 0.393720 -0.541941
O6    O     O_R   0.500000 0.060080 0.393720 -0.538914
O7    O     O_R   0.939920 0.500000 0.393720 -0.540271
O8    O     O_R   0.500000 0.939920 0.393720 -0.542929
O9    O     O_R   0.560080 0.000000 0.893720 -0.541312
O10   O     O_R   0.000000 0.560080 0.893720 -0.538197
O11   O     O_R   0.439920 0.000000 0.893720 -0.539430
O12   O     O_3   0.500000 0.000000 0.500010 -0.433184
O13   O     O_R   0.000000 0.439920 0.893720 -0.542065
O14   O     O_R   0.084530 0.355360 0.527880 -0.554639
O15   O     O_R   0.644640 0.084530 0.527880 -0.555840
O16   O     O_R   0.915470 0.644640 0.527880 -0.508663
O17   O     O_R   0.355360 0.915470 0.527880 -0.526655
O18   O     O_R   0.915470 0.355360 0.527880 -0.541798
O19   O     O_R   0.355360 0.084530 0.527880 -0.526429
O20   O     O_R   0.084530 0.644640 0.527880 -0.517847
O21   O     O_R   0.644640 0.915470 0.527880 -0.525365
O22   O     O_R   0.584530 0.855360 0.027880 -0.548619
O23   O     O_3   0.500000 0.000000 0.000010 -0.433541
O24   O     O_R   0.144640 0.584530 0.027880 -0.558223
O25   O     O_R   0.415470 0.144640 0.027880 -0.508874
O26   O     O_R   0.855360 0.415470 0.027880 -0.527079
O27   O     O_R   0.415470 0.855360 0.027880 -0.530324
O28   O     O_R   0.855360 0.584530 0.027880 -0.525755
O29   O     O_R   0.584530 0.144640 0.027880 -0.516507
O30   O     O_R   0.144640 0.415470 0.027880 -0.523924
O31   O     O_R   0.855360 0.584500 0.472150 -0.589437
O32   O     O_R   0.415500 0.855360 0.472150 -0.584215
O33   O     O_R   0.144640 0.415500 0.472150 -0.571750
O34   O     O_3   0.000000 0.500000 0.000010 -0.432827
O35   O     O_R   0.584500 0.144640 0.472150 -0.565422
O36   O     O_R   0.144640 0.584500 0.472150 -0.582772
O37   O     O_R   0.584500 0.855360 0.472150 -0.580505
O38   O     O_R   0.855360 0.415500 0.472150 -0.572612
O39   O     O_R   0.415500 0.144640 0.472150 -0.583370
O40   O     O_R   0.355360 0.084500 0.972150 -0.589773
O41   O     O_R   0.915500 0.355360 0.972150 -0.584107
O42   O     O_R   0.644640 0.915500 0.972150 -0.571855
O43   O     O_R   0.084500 0.644640 0.972150 -0.566718
O44   O     O_R   0.644640 0.084500 0.972150 -0.582655
O45   O     O_R   1.000000 0.560040 0.606300 -0.537599
O46   O     O_R   0.084500 0.355360 0.972150 -0.580475
O47   O     O_R   0.355360 0.915500 0.972150 -0.581442
O48   O     O_R   0.915500 0.644640 0.972150 -0.584700
O49   O     O_3   0.230455 0.835207 0.504237 -0.528203
O50   O     O_3   0.218340 0.285757 0.549718 -0.581805
O51   O     O_3   0.763234 0.170494 0.471163 -0.603021
O52   O     O_3   0.782357 0.711520 0.550418 -0.527380
O53   O     O_3   0.770362 0.841697 0.499639 -0.526518
O54   O     O_3   0.799621 0.272609 0.552597 -0.574655
O55   O     O_3   0.230739 0.153099 0.489524 -0.578244
O56   O     O_R   0.439960 1.000000 0.606300 -0.531730
O57   O     O_3   0.218507 0.707403 0.553867 -0.527287
O58   O     O_3   0.730439 0.334946 0.003969 -0.528504
O59   O     O_3   0.719442 0.786510 0.049461 -0.584162
O60   O     O_3   0.267559 0.663790 0.990180 -0.587174
O61   O     O_3   0.283906 0.214392 0.049599 -0.527700
O62   O     O_3   0.270530 0.345335 0.996474 -0.531890
O63   O     O_3   0.287665 0.786681 0.054909 -0.578240
O64   O     O_3   0.730527 0.652783 0.990502 -0.576295
O65   O     O_3   0.718067 0.207695 0.053989 -0.526689
O66   O     O_R   1.000000 0.439960 0.606300 -0.539905
O67   O     O_R   0.560040 1.000000 0.606300 -0.532133
O68   O     O_R   0.500000 0.060040 0.106300 -0.537068
Zn1   Zn    Zn3+2 0.085840 0.500000 0.460200 0.905291
Zn2   Zn    Zn3+2 0.585870 0.000000 0.539820 0.936607
Zn3   Zn    Zn3+2 0.000000 0.585870 0.539820 0.958681
Zn4   Zn    Zn3+2 0.414130 0.000000 0.539820 0.946059
Zn5   Zn    Zn3+2 0.500000 0.914130 0.039820 0.921606
Zn6   Zn    Zn3+2 0.085870 0.500000 0.039820 0.935621
Zn7   Zn    Zn3+2 0.500000 0.085870 0.039820 0.954879
Zn8   Zn    Zn3+2 0.914130 0.500000 0.039820 0.945505
Zn9   Zn    Zn3+2 0.500000 0.085840 0.460200 0.902314
Zn10  Zn    Zn3+2 0.914160 0.500000 0.460200 0.902588
Zn11  Zn    Zn3+2 0.500000 0.914160 0.460200 0.893739
Zn12  Zn    Zn3+2 0.585840 0.000000 0.960200 0.906813
Zn13  Zn    Zn3+2 0.000000 0.585840 0.960200 0.904724
Zn14  Zn    Zn3+2 0.414160 0.000000 0.960200 0.896649
Zn15  Zn    Zn3+2 0.000000 0.414160 0.960200 0.897076
Zn16  Zn    Zn3+2 0.000000 0.414130 0.539820 0.921496

loop_
_geom_bond_atom_site_label_1
_geom_bond_atom_site_label_2
_ccdc_geom_bond_type
C68   C85   D    
C43   O47   A    
C18   H12   S    
C114  C115  S    
C10   H115  S    
C25   H32   S    
C93   H1    S    
C92   H74   S    
O34   Zn13  S    
C56   C57   S    
C31   O15   A    
C32   O16   A    
C47   O46   A    
O30   Zn6   S    
C50   C90   T    
C102  H43   S    
C65   C118  S    
C47   C83   S    
C67   C120  S    
C39   O22   A    
C23   H29   S    
O29   Zn7   S    
C46   C86   S    
C98   H42   S    
C30   C71   S    
O46   Zn15  S    
C115  H78   S    
C9    H113  S    
O4    Zn6   S    
O20   Zn3   S    
C19   H16   S    
C30   O14   A    
C31   O35   A    
C112  H75   S    
C7    H103  S    
C93   H41   S    
C28   O11   A    
C48   C87   T    
C14   O54   S    
O33   Zn1   S    
C97   H34   S    
C37   O36   A    
C9    O50   S    
C60   C107  S    
C94   H2    S    
O6    Zn9   S    
C12   H122  S    
C21   O62   S    
O24   Zn6   S    
C53   C71   D    
C80   O59   S    
C29   C91   S    
C41   O25   A    
C23   H28   S    
C56   C73   D    
C105  H57   S    
C4    C5    S    
C106  H55   S    
C6    C7    S    
C3    H93   S    
C45   O28   A    
C37   C78   S    
C116  H84   S    
C62   C68   S    
C39   C80   S    
C5    H99   S    
C41   C82   S    
O27   Zn5   S    
C101  H46   S    
C38   O21   A    
C95   H107  S    
C42   O26   A    
C15   H128  S    
O5    Zn1   S    
C116  H86   S    
C6    C69   S    
C115  H76   S    
C93   H52   S    
C97   H13   S    
O15   Zn2   S    
C96   H36   S    
C113  H70   S    
C60   C78   D    
C20   H19   S    
C62   C80   D    
C21   H22   S    
C26   O7    A    
C109  C111  S    
O1    Zn1   S    
C4    H101  S    
C46   O29   A    
C74   O53   S    
O47   Zn14  S    
C52   C60   S    
C10   O51   S    
O18   Zn16  S    
C100  H37   S    
C22   H26   S    
C83   O62   S    
C26   C87   S    
C12   H124  S    
C17   O58   S    
C107  C108  S    
C22   O63   S    
C16   H5    S    
C42   C79   S    
C114  H80   S    
C103  H51   S    
C95   H96   S    
O12   Zn9   S    
O45   Zn3   S    
O34   Zn15  S    
C85   O64   S    
C40   O24   A    
C13   O3    A    
C15   H4    S    
O19   Zn4   S    
C4    C68   S    
C120  H97   S    
C7    H105  S    
C11   H120  S    
C108  H59   S    
C118  H91   S    
C37   O20   A    
C97   H24   S    
C49   C99   S    
C8    H109  S    
C15   O55   S    
C19   H17   S    
C23   O64   S    
C8    O49   S    
C32   O31   A    
C98   H40   S    
C11   H121  S    
C117  H82   S    
C72   O51   S    
C86   O65   S    
C104  H50   S    
C14   H127  S    
C38   C74   S    
C113  H72   S    
O43   Zn13  S    
C111  H66   S    
C53   C94   S    
O28   Zn8   S    
C26   O5    A    
O1    Zn3   S    
C78   O57   S    
C57   C101  S    
C10   H116  S    
C107  H64   S    
C25   H31   S    
C24   O2    A    
C100  H39   S    
C33   C77   T    
C16   H6    S    
C61   C79   D    
C70   O49   S    
C18   O59   S    
C27   C89   S    
C16   H7    S    
O1    Zn10  S    
O16   Zn3   S    
C16   O57   S    
C10   H117  S    
C102  H44   S    
C55   C99   T    
C106  H56   S    
C2    O67   A    
C33   C110  S    
C59   C76   D    
C84   O63   S    
O32   Zn11  S    
O37   Zn11  S    
C101  C102  S    
C64   C116  S    
O17   Zn4   S    
C34   O17   A    
C120  H95   S    
O23   Zn12  S    
C115  H77   S    
C59   C105  S    
C108  H61   S    
C9    H112  S    
O40   Zn14  S    
C8    H111  S    
C43   O27   A    
C19   H15   S    
C20   H18   S    
O11   Zn14  S    
C51   C91   T    
C12   O53   S    
O67   Zn2   S    
C6    H108  S    
C48   C88   S    
C34   C70   S    
C14   H125  S    
O36   Zn1   S    
C17   H10   S    
C42   O41   A    
O31   Zn10  S    
C18   H11   S    
C40   C81   S    
C110  O45   A    
O25   Zn7   S    
C119  H89   S    
C27   O6    A    
C107  H62   S    
C25   H33   S    
C24   O4    A    
C49   C89   T    
O3    Zn5   S    
C30   O33   A    
C51   C77   S    
C5    H98   S    
O23   Zn7   S    
C106  H54   S    
C13   O68   A    
C46   O44   A    
C23   H30   S    
C63   C81   D    
C98   C100  S    
C24   C44   S    
C45   O48   A    
C52   C92   S    
C9    H114  S    
C17   H8    S    
O14   Zn16  S    
C105  C106  S    
C111  H67   S    
C29   O10   A    
O34   Zn8   S    
C64   C65   S    
C20   H20   S    
C79   O58   S    
C21   H21   S    
C7    H104  S    
C25   O65   S    
C4    H102  S    
C6    H106  S    
C92   C93   S    
O22   Zn5   S    
C94   C95   S    
C65   C83   D    
C96   H35   S    
C100  H38   S    
O39   Zn9   S    
C62   C112  S    
C22   H27   S    
C103  C104  S    
C28   C90   S    
C36   O39   A    
O26   Zn8   S    
C76   O55   S    
C13   C55   S    
C95   H85   S    
C82   O61   S    
C56   C98   S    
C105  H58   S    
C61   C109  S    
C53   C59   S    
O66   Zn16  S    
C11   O52   S    
C116  C117  S    
C3    H94   S    
C35   C75   S    
C15   H3    S    
C40   O43   A    
O56   Zn4   S    
C5    H100  S    
C11   H119  S    
O23   Zn5   S    
O7    Zn10  S    
O12   Zn2   S    
C103  H53   S    
O48   Zn13  S    
C108  H60   S    
C1    C2    S    
C101  H47   S    
C118  C119  S    
C36   C76   S    
C63   C114  S    
C8    H110  S    
C94   H118  S    
O21   Zn2   S    
O68   Zn7   S    
C109  H69   S    
C29   O13   A    
C18   H14   S    
C41   O40   A    
C54   C96   S    
O35   Zn9   S    
C47   O30   A    
O8    Zn11  S    
C67   C84   D    
C39   O42   A    
C43   C84   S    
C117  H81   S    
C112  C113  S    
O38   Zn10  S    
O41   Zn15  S    
C58   C75   D    
C109  H68   S    
C113  H71   S    
C63   C67   S    
C111  H65   S    
O9    Zn12  S    
C17   H9    S    
O34   Zn6   S    
C21   H23   S    
C32   C73   S    
C20   O61   S    
C57   C74   D    
O13   Zn15  S    
C45   C85   S    
C104  H48   S    
C22   H25   S    
C12   H123  S    
C96   C97   S    
C1    C66   T    
C35   O38   A    
C75   O54   S    
C50   C66   S    
C64   C82   D    
O10   Zn13  S    
C31   C72   S    
C102  H45   S    
C114  H79   S    
C119  H87   S    
O42   Zn12  S    
C54   C58   S    
C61   C69   S    
C3    H92   S    
C34   O32   A    
C14   H126  S    
C19   O60   S    
O1    Zn16  S    
O2    Zn8   S    
C92   H63   S    
C119  H88   S    
O12   Zn4   S    
C118  H90   S    
C71   O50   S    
C44   C88   T    
C27   O8    A    
C36   O19   A    
O12   Zn11  S    
C35   O18   A    
C112  H73   S    
C52   C70   D    
C3    C120  S    
O23   Zn14  S    
C54   C72   D    
C38   O37   A    
C28   O9    A    
C110  O66   A    
C58   C103  S    
C2    O56   A    
C117  H83   S    
C69   C86   D    
O44   Zn12  S    
C81   O60   S    
C104  H49   S    
C73   O52   S    
