data_mof_unit_29945.cif
_audit_creation_date              2012-12-11T16:26:32-0500
_audit_creation_method            fapswitch 2.2
_symmetry_space_group_name_H-M    P1
_symmetry_Int_Tables_number       1
_space_group_crystal_system       triclinic
_cell_length_a                    6.936763
_cell_length_b                    17.693004
_cell_length_c                    19.326144
_cell_angle_alpha                 108.519551
_cell_angle_beta                  89.17036
_cell_angle_gamma                 90.72661
_cell_volume                      2248.79208089

loop_
_atom_site_label
_atom_site_type_symbol
_atom_type_description
_atom_site_fract_x
_atom_site_fract_y
_atom_site_fract_z
_atom_type_partial_charge
O1    O     O_R   0.494330 0.415720 0.413720 -0.535958
O2    O     O_R   0.819330 0.430070 0.560210 -0.547653
O3    O     O_R   0.994320 0.584280 0.586280 -0.537345
C1    C     C_R   0.649509 0.414450 0.581345 0.703549
O4    O     O_R   0.823730 0.406300 0.412670 -0.538365
O5    O     O_R   0.998760 0.560340 0.437690 -0.538479
C2    C     C_R   0.655183 0.383674 0.384859 0.696444
O6    O     O_R   0.489890 0.439660 0.562310 -0.540049
O7    O     O_3   0.662340 0.550560 0.508380 -0.368078
V1    V     V_3+5 0.935370 0.490620 0.498450 1.414492
O8    O     O_R   0.328750 0.569930 0.439790 -0.546188
C3    C     C_R   0.161169 0.585205 0.418277 0.702715
O9    O     O_R   0.324340 0.593700 0.587330 -0.537717
C4    C     C_R   0.154645 0.614979 0.615920 0.693416
V2    V     V_3+5 0.435940 0.509380 0.501550 1.416384
O10   O     O_3   0.159100 0.449440 0.491620 -0.368856
H1    H     H_    0.270643 0.852753 0.550062 0.125583
C5    C     C_R   0.014347 0.599236 0.752174 -0.161704
C6    C     C_R   0.946305 0.589073 0.817102 0.209026
C7    C     C_R   0.951849 0.653271 0.881483 -0.117262
C8    C     C_R   0.015782 0.727840 0.880515 -0.180018
C9    C     C_R   0.071930 0.741183 0.814411 0.065478
C10   C     C_R   0.076741 0.674868 0.749480 0.027584
C11   C     C_R   0.121036 0.819025 0.812645 -0.165560
C12   C     C_R   0.169109 0.830984 0.743753 0.048528
C13   C     C_R   0.177184 0.762484 0.679425 0.047352
C14   C     C_R   0.140103 0.685013 0.683123 -0.159848
C15   C     C_R   0.204981 0.907796 0.734273 0.134823
C16   C     C_R   0.238516 0.913669 0.664289 -0.093615
C17   C     C_R   0.243549 0.846832 0.603439 -0.170222
C18   C     C_R   0.215314 0.772345 0.610621 -0.135496
H2    H     H_    0.013164 0.547498 0.703692 0.113922
H3    H     H_    0.903836 0.646138 0.932663 0.118757
H4    H     H_    0.016875 0.774947 0.932366 0.114299
H5    H     H_    0.264862 0.970911 0.656401 0.115134
H6    H     H_    0.219519 0.722567 0.560652 0.107690
C19   C     C_R   0.307802 0.633368 0.320215 -0.209525
C20   C     C_R   0.154587 0.634748 0.369103 -0.080201
C21   C     C_R   0.993253 0.682382 0.369665 -0.223137
C22   C     C_R   0.985401 0.728801 0.322735 0.102294
C23   C     C_R   0.138480 0.726024 0.272957 0.047276
C24   C     C_R   0.299066 0.677473 0.271301 0.048577
C25   C     C_R   0.826736 0.777807 0.324595 -0.188527
C26   C     C_R   0.819624 0.823894 0.277825 -0.176684
C27   C     C_R   0.969952 0.821153 0.227688 0.110054
C28   C     C_R   0.130359 0.771639 0.224757 0.013196
C29   C     C_R   0.281331 0.767351 0.173494 0.074595
C30   C     C_R   0.438909 0.715808 0.170286 0.156941
C31   C     C_R   0.447114 0.672615 0.220016 -0.191209
C32   C     C_R   0.961460 0.866833 0.180259 -0.230067
C33   C     C_R   0.111289 0.864365 0.130037 -0.084820
C34   C     C_R   0.269876 0.814588 0.126879 -0.215320
H7    H     H_    0.431996 0.596415 0.319027 0.116156
H8    H     H_    0.874781 0.684129 0.407353 0.128000
H9    H     H_    0.707807 0.780489 0.362261 0.130457
H10   H     H_    0.695285 0.861206 0.280384 0.127398
H11   H     H_    0.838537 0.904865 0.182825 0.115166
H12   H     H_    0.383024 0.812756 0.087276 0.139494
C35   C     C_R   0.472864 0.189879 0.872692 -0.221351
C36   C     C_R   0.624448 0.137374 0.871430 -0.082822
C37   C     C_R   0.779222 0.132026 0.822736 -0.222787
C38   C     C_R   0.782098 0.176789 0.774506 0.105848
C39   C     C_R   0.628356 0.228732 0.775347 0.013651
C40   C     C_R   0.472578 0.236189 0.825206 0.072785
C41   C     C_R   0.936990 0.170536 0.725495 -0.169939
C42   C     C_R   0.941062 0.215753 0.677935 -0.183747
C43   C     C_R   0.789298 0.267364 0.677978 0.103020
C44   C     C_R   0.631642 0.273527 0.726434 0.049396
C45   C     C_R   0.477848 0.324618 0.726072 0.049938
C46   C     C_R   0.324406 0.331946 0.775504 -0.180710
C47   C     C_R   0.320973 0.289554 0.825911 0.153014
C48   C     C_R   0.793109 0.313195 0.630610 -0.227949
C49   C     C_R   0.639690 0.364217 0.629792 -0.081919
C50   C     C_R   0.481323 0.368824 0.677129 -0.214477
H13   H     H_    0.355345 0.194114 0.911110 0.142001
H14   H     H_    0.896250 0.092139 0.821510 0.126235
H15   H     H_    0.056201 0.131197 0.724441 0.123341
H16   H     H_    0.063226 0.210418 0.641144 0.129756
H17   H     H_    0.363379 0.408570 0.677386 0.124068
H18   H     H_    0.207659 0.371645 0.775250 0.126326
C51   C     C_R   0.538439 0.405113 0.249121 -0.142872
C52   C     C_R   0.480625 0.417533 0.184858 -0.123231
C53   C     C_R   0.468699 0.353815 0.120616 -0.114109
C54   C     C_R   0.514339 0.277193 0.120157 -0.136038
C55   C     C_R   0.571531 0.262523 0.184744 0.067065
C56   C     C_R   0.583994 0.327863 0.250621 0.072596
C57   C     C_R   0.619753 0.184653 0.184151 -0.172869
C58   C     C_R   0.680244 0.172222 0.249585 0.070557
C59   C     C_R   0.692456 0.237506 0.315439 0.031047
C60   C     C_R   0.644732 0.315416 0.315981 -0.172826
C61   C     C_R   0.725485 0.095041 0.251156 -0.189912
C62   C     C_R   0.782393 0.082442 0.315454 -0.120244
C63   C     C_R   0.794039 0.146157 0.380241 0.216385
C64   C     C_R   0.748645 0.222905 0.380158 -0.147529
H19   H     H_    0.548431 0.456851 0.297311 0.100192
H20   H     H_    0.446126 0.477025 0.184821 0.116682
H21   H     H_    0.424994 0.363835 0.070701 0.113460
H22   H     H_    0.505444 0.229945 0.068493 0.101551
H23   H     H_    0.715758 0.043349 0.202909 0.111413
H24   H     H_    0.816060 0.022537 0.314616 0.116333
H25   H     H_    0.756504 0.270672 0.431565 0.109750
O11   O     O_R   0.775200 0.060470 0.937800 -0.540065
O12   O     O_R   0.441110 0.093720 0.087350 -0.537670
O13   O     O_R   0.266330 0.939630 0.062280 -0.538477
C65   C     C_R   0.609585 0.116435 0.115200 0.700079
O14   O     O_R   0.445750 0.069950 0.939820 -0.549191
O15   O     O_R   0.271000 0.915700 0.913700 -0.536651
C66   C     C_R   0.615617 0.086352 0.919319 0.695019
O16   O     O_R   0.770530 0.084400 0.086380 -0.535109
O17   O     O_3   0.602830 0.949510 0.991680 -0.368172
V3    V     V_3+5 0.329710 0.009370 0.001550 1.407759
O18   O     O_R   0.940990 0.906170 0.912570 -0.539861
C67   C     C_R   0.110274 0.886021 0.882850 0.711341
O19   O     O_R   0.936350 0.929940 0.060100 -0.545671
C68   C     C_R   0.104012 0.914548 0.081477 0.707782
V4    V     V_3+5 0.829160 0.990450 0.998310 1.411874
O20   O     O_3   0.105910 0.050480 0.008320 -0.366671
C69   C     C_3   0.597047 0.704405 0.113559 -0.787320
H26   H     H_    0.667002 0.762330 0.117987 0.213383
H27   H     H_    0.710337 0.663439 0.120088 0.212735
H28   H     H_    0.535337 0.678800 0.058223 0.205217
H29   H     H_    0.568786 0.634105 0.218168 0.131239
H30   H     H_    0.915420 0.308746 0.593989 0.129299
C70   C     C_3   0.156900 0.303642 0.880524 -0.778143
H31   H     H_    0.080891 0.246776 0.875674 0.214173
H32   H     H_    0.214012 0.329037 0.936623 0.200807
H33   H     H_    0.049575 0.345850 0.872014 0.214636
C71   C     C_3   0.853225 0.133156 0.450025 -0.807611
H34   H     H_    0.884412 0.069442 0.441786 0.210871
H35   H     H_    0.984925 0.168861 0.471223 0.207619
H36   H     H_    0.735640 0.152302 0.491328 0.214484
C72   C     C_3   0.864307 0.509969 0.816581 -0.796280
H37   H     H_    0.822707 0.509958 0.872298 0.208070
H38   H     H_    0.734336 0.495916 0.781790 0.218826
H39   H     H_    0.972071 0.462747 0.793904 0.200918
C73   C     C_3   0.222588 0.984984 0.795298 -0.760815
H40   H     H_    0.354268 0.981407 0.825062 0.229615
H41   H     H_    0.242256 0.037330 0.775832 0.183108
H42   H     H_    0.092316 0.996863 0.830450 0.194896

loop_
_geom_bond_atom_site_label_1
_geom_bond_atom_site_label_2
_ccdc_geom_bond_type
C57   C58   A    
C63   C64   A    
C35   H13   S    
C49   C50   A    
C6    C7    A    
C1    O6    A    
C71   H34   S    
O19   C68   A    
C55   C56   A    
C11   C67   S    
C12   C15   A    
C35   C40   A    
C16   C17   A    
C15   C16   A    
C43   C48   A    
C18   H6    S    
O5    C3    A    
C17   C18   A    
C51   H19   S    
C21   H8    S    
V2    O10   S    
C59   C64   A    
V4    O20   S    
O12   V3    S    
C5    C6    A    
C23   C24   A    
C40   C47   A    
C19   C24   A    
O17   V3    S    
O15   C67   A    
O16   V4    S    
C69   H26   S    
O8    V2    S    
C22   C25   A    
C53   C54   A    
C64   H25   S    
C72   H37   S    
C23   C28   A    
O11   C66   A    
C46   C47   A    
O1    V2    S    
C10   C14   A    
C4    C14   S    
O7    V1    S    
C51   C56   A    
C36   C66   S    
C48   C49   A    
C19   H7    S    
C42   C43   A    
C35   C36   A    
O1    C2    A    
C8    C9    A    
H1    C17   S    
C45   C46   A    
C73   H42   S    
O4    V1    S    
O18   C67   A    
C51   C52   A    
O14   V3    S    
C55   C57   A    
C37   H14   S    
C42   H16   S    
C41   H15   S    
C46   H18   S    
C5    C10   A    
C47   C70   S    
C52   H20   S    
C11   C12   A    
C73   H41   S    
C56   C60   A    
C61   C62   A    
O4    C2    A    
C44   C45   A    
C30   C69   S    
C8    H4    S    
C12   C13   A    
C27   C28   A    
C2    C60   S    
C33   C68   S    
C43   C44   A    
C36   C37   A    
C69   H28   S    
O2    C1    A    
C25   C26   A    
C19   C20   A    
O13   C68   A    
C26   H10   S    
C29   C30   A    
C57   C65   S    
C58   C61   A    
C7    C8    A    
C38   C39   A    
C32   C33   A    
C13   C14   A    
C45   C50   A    
O12   C65   A    
C54   C55   A    
C1    C49   S    
O3    C4    A    
C34   H12   S    
C70   H33   S    
C7    H3    S    
C25   H9    S    
C30   C31   A    
C41   C42   A    
O6    V2    S    
C50   H17   S    
O9    V2    S    
C48   H30   S    
C9    C11   A    
C5    H2    S    
O2    V1    S    
C71   H36   S    
O17   V4    S    
O18   V4    S    
C26   C27   A    
C62   H24   S    
C70   H32   S    
C6    C72   S    
C65   O16   A    
C28   C29   A    
C22   C23   A    
C38   C41   A    
C15   C73   S    
C32   H11   S    
O15   V3    S    
C73   H40   S    
C71   H35   S    
O5    V1    S    
O13   V3    S    
O19   V4    S    
O8    C3    A    
C29   C34   A    
C16   H5    S    
C39   C44   A    
V3    O20   S    
C54   H22   S    
O7    V2    S    
C63   C71   S    
C33   C34   A    
O3    V1    S    
V1    O10   S    
C20   C21   A    
O14   C66   A    
C27   C32   A    
C72   H39   S    
C31   H29   S    
C62   C63   A    
C3    C20   S    
C37   C38   A    
C69   H27   S    
O11   V4    S    
C24   C31   A    
C39   C40   A    
C21   C22   A    
C13   C18   A    
C58   C59   A    
C72   H38   S    
C52   C53   A    
C53   H21   S    
C9    C10   A    
C61   H23   S    
C59   C60   A    
O9    C4    A    
C70   H31   S    
