data_mof_unit_64211.cif
_audit_creation_date              2012-12-11T15:44:42-0500
_audit_creation_method            fapswitch 2.2
_symmetry_space_group_name_H-M    P1
_symmetry_Int_Tables_number       1
_space_group_crystal_system       triclinic
_cell_length_a                    22.727615
_cell_length_b                    30.460987
_cell_length_c                    19.041775
_cell_angle_alpha                 89.999881
_cell_angle_beta                  124.103589
_cell_angle_gamma                 89.999738
_cell_volume                      10915.6305041

loop_
_atom_site_label
_atom_site_type_symbol
_atom_type_description
_atom_site_fract_x
_atom_site_fract_y
_atom_site_fract_z
_atom_type_partial_charge
C1    C     C_R   0.121249 0.385294 0.066265 -0.138226
C2    C     C_R   0.943027 0.389690 0.076129 -0.124714
C3    C     C_R   0.743623 0.999999 0.217589 0.096820
C4    C     C_R   0.017070 0.463230 0.224104 -0.129602
C5    C     C_R   0.017074 0.536770 0.224107 -0.129604
C6    C     C_R   0.517070 0.963230 0.224104 -0.129603
C7    C     C_R   0.517073 0.036770 0.224107 -0.129605
C8    C     C_R   0.808828 0.535859 0.768928 0.158536
C9    C     C_R   0.808828 0.464142 0.768926 0.158547
C10   C     C_R   0.308821 0.035859 0.768934 0.158544
C11   C     C_R   0.308821 0.964142 0.768933 0.158554
C12   C     C_R   0.443020 0.110306 0.076129 -0.124716
C13   C     C_R   0.443028 0.889689 0.076129 -0.124714
C14   C     C_R   0.012832 0.500000 0.264219 0.093997
C15   C     C_R   0.512831 1.000000 0.264218 0.093997
C16   C     C_R   0.771736 0.500002 0.721916 -0.042230
C17   C     C_R   0.271722 0.000002 0.721928 -0.042240
C18   C     C_R   0.882416 0.369643 0.007780 0.071334
C19   C     C_R   0.882400 0.630347 0.007780 0.071335
C20   C     C_R   0.382418 0.869641 0.007781 0.071335
C21   C     C_R   0.121249 0.614706 0.066264 -0.138226
C22   C     C_R   0.382403 0.130349 0.007781 0.071335
C23   C     C_3   0.493377 0.541314 0.362998 -0.402446
C24   C     C_3   0.493219 0.458462 0.363504 -0.402488
C25   C     C_3   0.993391 0.041316 0.362972 -0.402442
C26   C     C_3   0.993236 0.958464 0.363468 -0.402484
C27   C     C_3   0.572804 0.458468 0.437962 -0.376930
C28   C     C_3   0.572967 0.541313 0.437464 -0.376985
C29   C     C_3   0.072814 0.958470 0.437950 -0.376909
C30   C     C_3   0.072974 0.041315 0.437460 -0.376965
C31   C     C_1   0.715243 0.500003 0.635560 0.108331
C32   C     C_R   0.621244 0.885291 0.066264 -0.138241
C33   C     C_1   0.215227 0.000003 0.635572 0.108336
C34   C     C_3   0.456200 0.500001 0.368252 0.413801
C35   C     C_3   0.956204 0.000001 0.368202 0.413773
C36   C     C_3   0.589656 0.500004 0.493119 0.377557
C37   C     C_3   0.089651 0.000004 0.493108 0.377542
C38   C     C_R   0.056747 0.611043 0.926657 -0.107661
C39   C     C_R   0.056746 0.388956 0.926658 -0.107668
C40   C     C_R   0.556744 0.111044 0.926657 -0.107661
C41   C     C_R   0.556743 0.888955 0.926657 -0.107668
C42   C     C_3   0.541963 0.500230 0.527425 -0.396684
C43   C     C_R   0.621244 0.114709 0.066263 -0.138241
C44   C     C_3   0.041935 0.000226 0.527383 -0.396685
C45   C     C_3   0.463502 0.500229 0.454007 -0.391344
C46   C     C_3   0.963482 0.000226 0.453943 -0.391317
C47   C     C_1   0.661812 0.500004 0.566670 -0.100236
C48   C     C_1   0.161800 0.000004 0.566677 -0.100232
C49   C     C_1   0.381066 0.499999 0.303329 -0.133529
C50   C     C_1   0.881071 0.999999 0.303262 -0.133520
C51   C     C_1   0.317976 0.499999 0.260235 -0.027264
C52   C     C_1   0.817978 0.999999 0.260169 -0.027259
C53   C     C_1   0.151261 0.671004 0.994229 -0.041945
C54   C     C_R   0.869557 0.388157 0.933931 -0.100712
C55   C     C_1   0.151255 0.328992 0.994230 -0.041946
C56   C     C_1   0.651254 0.171008 0.994228 -0.041947
C57   C     C_1   0.651248 0.828988 0.994229 -0.041947
C58   C     C_1   0.185954 0.701849 0.996499 0.005058
C59   C     C_1   0.185943 0.298144 0.996499 0.005059
C60   C     C_1   0.685946 0.201853 0.996498 0.005058
C61   C     C_1   0.685935 0.798139 0.996498 0.005059
C62   C     C_1   0.228271 0.737580 0.001149 -0.003025
C63   C     C_1   0.228255 0.262410 0.001148 -0.003024
C64   C     C_1   0.728264 0.237584 0.001148 -0.003026
C65   C     C_R   0.869544 0.611834 0.933930 -0.100707
C66   C     C_1   0.728248 0.762405 0.001146 -0.003025
C67   C     C_1   0.764808 0.267810 0.005432 -0.002488
C68   C     C_1   0.764787 0.732177 0.005429 -0.002487
C69   C     C_1   0.264814 0.767806 0.005433 -0.002488
C70   C     C_1   0.264794 0.232181 0.005430 -0.002486
C71   C     C_1   0.807441 0.303189 0.009501 0.008616
C72   C     C_1   0.807419 0.696797 0.009498 0.008617
C73   C     C_1   0.307447 0.803186 0.009502 0.008617
C74   C     C_1   0.307425 0.196800 0.009498 0.008617
C75   C     C_R   0.979188 0.463131 0.774672 -0.101388
C76   C     C_R   0.369559 0.888156 0.933931 -0.100714
C77   C     C_R   0.979188 0.536869 0.774672 -0.101391
C78   C     C_R   0.479188 0.963131 0.774672 -0.101388
C79   C     C_R   0.479188 0.036869 0.774672 -0.101391
C80   C     C_1   0.842693 0.333398 0.010731 -0.036243
C81   C     C_1   0.842672 0.666588 0.010729 -0.036242
C82   C     C_1   0.342698 0.833396 0.010732 -0.036243
C83   C     C_1   0.342677 0.166591 0.010729 -0.036241
C84   C     C_1   0.009455 0.500000 0.337656 -0.048008
C85   C     C_1   0.509454 0.000000 0.337655 -0.048008
C86   C     C_1   0.005386 0.500001 0.398305 0.004731
C87   C     C_R   0.369547 0.111836 0.933930 -0.100709
C88   C     C_1   0.505385 0.000001 0.398304 0.004731
C89   C     C_1   0.999794 0.500001 0.468814 -0.002426
C90   C     C_1   0.499793 0.000001 0.468814 -0.002427
C91   C     C_1   0.994875 0.500001 0.528833 -0.002036
C92   C     C_1   0.494875 0.000001 0.528833 -0.002037
C93   C     C_1   0.989471 0.500000 0.599480 0.009973
C94   C     C_1   0.489471 0.000000 0.599480 0.009973
C95   C     C_1   0.985718 0.500000 0.660355 -0.027442
C96   C     C_1   0.485717 0.000000 0.660355 -0.027445
C97   C     C_R   0.200838 0.536010 0.195790 -0.129947
C98   C     C_R   0.943019 0.610305 0.076129 -0.124716
C99   C     C_R   0.200838 0.463989 0.195790 -0.129948
C100  C     C_R   0.700838 0.036009 0.195762 -0.129942
C101  C     C_R   0.700838 0.963990 0.195762 -0.129942
C102  C     C_R   0.112618 0.366485 0.995171 0.082807
C103  C     C_R   0.112619 0.633514 0.995170 0.082805
C104  C     C_R   0.612613 0.866482 0.995170 0.082812
C105  C     C_R   0.612614 0.133517 0.995169 0.082810
C106  C     C_R   0.982876 0.500000 0.734156 0.076260
C107  C     C_R   0.482876 0.000000 0.734156 0.076261
C108  C     C_R   0.243623 0.499999 0.217637 0.096843
H1    H     H_    0.154074 0.372840 0.130302 0.098680
H2    H     H_    0.467344 0.571565 0.365919 0.161407
H3    H     H_    0.967085 0.928369 0.366742 0.161409
H4    H     H_    0.967351 0.071565 0.365882 0.161405
H5    H     H_    0.584869 0.428386 0.477017 0.173024
H6    H     H_    0.585146 0.571552 0.476157 0.173038
H7    H     H_    0.084869 0.928386 0.476998 0.173020
H8    H     H_    0.085142 0.071553 0.476153 0.173034
H9    H     H_    0.437086 0.529786 0.458861 0.160561
H10   H     H_    0.436971 0.470844 0.459222 0.160569
H11   H     H_    0.937057 0.029781 0.458786 0.160556
H12   H     H_    0.154074 0.627159 0.130301 0.098681
H13   H     H_    0.936943 0.970839 0.459141 0.160564
H14   H     H_    0.553265 0.529781 0.567637 0.165833
H15   H     H_    0.553147 0.470850 0.567991 0.165727
H16   H     H_    0.053225 0.029776 0.567594 0.165829
H17   H     H_    0.053109 0.970845 0.567942 0.165724
H18   H     H_    0.030237 0.620081 0.860780 0.109776
H19   H     H_    0.030235 0.379918 0.860780 0.109777
H20   H     H_    0.530234 0.120082 0.860779 0.109773
H21   H     H_    0.530232 0.879916 0.860780 0.109774
H22   H     H_    0.973329 0.429521 0.753648 0.121720
H23   H     H_    0.654066 0.872836 0.130300 0.098683
H24   H     H_    0.973327 0.570479 0.753647 0.121721
H25   H     H_    0.473329 0.929521 0.753648 0.121715
H26   H     H_    0.473327 0.070479 0.753647 0.121716
H27   H     H_    0.217349 0.569870 0.206951 0.100468
H28   H     H_    0.217349 0.430129 0.206950 0.100470
H29   H     H_    0.717351 0.069869 0.206916 0.100475
H30   H     H_    0.717351 0.930130 0.206915 0.100476
H31   H     H_    0.022985 0.429692 0.245437 0.098179
H32   H     H_    0.022993 0.570308 0.245443 0.098179
H33   H     H_    0.522984 0.929692 0.245437 0.098179
H34   H     H_    0.654065 0.127164 0.130299 0.098683
H35   H     H_    0.522992 0.070308 0.245443 0.098179
H36   H     H_    0.829404 0.377897 0.870385 0.149150
H37   H     H_    0.829380 0.622088 0.870384 0.149146
H38   H     H_    0.329409 0.877894 0.870386 0.149153
H39   H     H_    0.329385 0.122091 0.870385 0.149149
H40   H     H_    0.970773 0.620552 0.141499 0.098974
H41   H     H_    0.970783 0.379443 0.141500 0.098971
H42   H     H_    0.470775 0.120553 0.141499 0.098974
H43   H     H_    0.470785 0.879442 0.141500 0.098971
H44   H     H_    0.606747 0.541720 0.412114 0.164744
H45   H     H_    0.488604 0.541737 0.301560 0.161503
H46   H     H_    0.606582 0.457738 0.412617 0.164812
H47   H     H_    0.106772 0.041724 0.412134 0.164744
H48   H     H_    0.106609 0.957742 0.412627 0.164810
H49   H     H_    0.488445 0.457711 0.302072 0.161508
H50   H     H_    0.988639 0.041741 0.301546 0.161501
H51   H     H_    0.988481 0.957716 0.302049 0.161506
H52   H     H_    0.467075 0.428368 0.366795 0.161410
I1    I     I_    0.805745 0.596920 0.713636 -0.486852
I2    I     I_    0.805743 0.403084 0.713630 -0.486870
I3    I     I_    0.305733 0.096918 0.713634 -0.486850
I4    I     I_    0.305731 0.903085 0.713628 -0.486867
N1    N     N_R   0.075400 0.419050 0.040930 -0.043115
N2    N     N_R   0.976800 0.523070 0.840160 -0.042917
N3    N     N_R   0.476800 0.976930 0.840160 -0.042918
N4    N     N_R   0.476800 0.023070 0.840160 -0.042917
N5    N     N_R   0.134210 0.520980 0.157560 -0.042718
N6    N     N_R   0.134210 0.479020 0.157560 -0.042718
N7    N     N_R   0.634210 0.020980 0.157560 -0.042718
N8    N     N_R   0.634210 0.979020 0.157560 -0.042718
N9    N     N_R   0.020160 0.476910 0.158980 -0.042931
N10   N     N_R   0.020160 0.523090 0.158980 -0.042930
N11   N     N_R   0.520160 0.976910 0.158980 -0.042931
N12   N     N_R   0.075400 0.580950 0.040930 -0.043116
N13   N     N_R   0.520160 0.023090 0.158980 -0.042931
N14   N     N_R   0.864590 0.520950 0.843300 -0.073522
N15   N     N_R   0.864590 0.479050 0.843300 -0.073520
N16   N     N_R   0.364590 0.020950 0.843300 -0.073521
N17   N     N_R   0.364590 0.979050 0.843300 -0.073520
N18   N     N_R   0.919150 0.419020 0.955970 -0.040387
N19   N     N_R   0.919150 0.580980 0.955970 -0.040385
N20   N     N_R   0.419150 0.919020 0.955970 -0.040388
N21   N     N_R   0.419150 0.080980 0.955970 -0.040386
N22   N     N_R   0.965610 0.578840 0.046310 -0.044187
N23   N     N_R   0.575400 0.919050 0.040930 -0.043114
N24   N     N_R   0.965610 0.421160 0.046310 -0.044187
N25   N     N_R   0.465610 0.078840 0.046310 -0.044186
N26   N     N_R   0.465610 0.921160 0.046310 -0.044186
N27   N     N_R   0.575400 0.080950 0.040930 -0.043114
N28   N     N_R   0.035610 0.578860 0.956800 -0.040627
N29   N     N_R   0.035610 0.421140 0.956800 -0.040627
N30   N     N_R   0.535610 0.078860 0.956800 -0.040627
N31   N     N_R   0.535610 0.921140 0.956800 -0.040627
N32   N     N_R   0.976800 0.476930 0.840160 -0.042918
Ni1   Ni    Ni4+2 0.047340 0.448440 0.099050 0.211505
Ni2   Ni    Ni4+2 0.047340 0.551560 0.099050 0.211506
Ni3   Ni    Ni4+2 0.547340 0.948440 0.099050 0.211505
Ni4   Ni    Ni4+2 0.547340 0.051560 0.099050 0.211506
Ni5   Ni    Ni4+2 0.950540 0.549450 0.900950 0.245621
Ni6   Ni    Ni4+2 0.950540 0.450550 0.900950 0.245616
Ni7   Ni    Ni4+2 0.450540 0.049450 0.900950 0.245620
Ni8   Ni    Ni4+2 0.450540 0.950550 0.900950 0.245616

loop_
_geom_bond_atom_site_label_1
_geom_bond_atom_site_label_2
_ccdc_geom_bond_type
C45   H10   S    
C58   C62   S    
C66   C68   T    
N7    N8    A    
C10   I3    S    
N20   Ni8   S    
C55   C59   T    
C2    C18   A    
C5    N10   A    
C36   C42   S    
C11   N17   A    
C24   C27   S    
C14   C84   S    
C74   C83   T    
N16   Ni7   S    
C7    H35   S    
N14   N15   A    
C87   N21   A    
C99   N6    A    
C30   H8    S    
N9    N10   A    
C16   C31   S    
C12   N25   A    
C39   N29   A    
C55   C102  S    
C20   C76   A    
C78   N3    A    
N7    Ni4   S    
C87   H39   S    
N8    Ni3   S    
C77   C106  A    
C9    C16   A    
C84   C86   T    
C21   H12   S    
C20   C82   S    
C8    I1    S    
C32   N23   A    
C3    C52   S    
N12   N28   A    
C6    N11   A    
C10   C17   A    
C40   H20   S    
C12   C22   A    
C97   N5    A    
C7    N13   A    
C101  N8    A    
C43   C105  A    
C57   C104  S    
C25   H4    S    
C1    H1    S    
C6    C15   A    
C97   C108  A    
N1    N29   A    
C3    C100  A    
C75   C106  A    
C51   C108  S    
C49   C51   T    
N13   Ni4   S    
C70   C74   S    
C50   C52   T    
N28   Ni5   S    
C54   N18   A    
C46   H13   S    
C69   C73   S    
C79   N4    A    
C89   C91   T    
C72   C81   T    
C9    N15   A    
C75   H22   S    
C15   C85   S    
C42   H15   S    
C21   N12   A    
C27   H46   S    
C7    C15   A    
C32   C104  A    
C29   H7    S    
C43   N27   A    
C8    C16   A    
C31   C47   T    
C53   C103  S    
C100  N7    A    
C17   C33   S    
C61   C66   S    
C71   C80   T    
C38   H18   S    
C19   C98   A    
C44   C46   S    
N26   Ni3   S    
C46   H11   S    
C44   H17   S    
N10   Ni2   S    
C39   H19   S    
C63   C70   T    
N9    Ni1   S    
N19   Ni5   S    
N5    N6    A    
C12   H42   S    
C28   C36   S    
N27   Ni4   S    
C13   H43   S    
N11   N13   A    
N19   N22   A    
N12   Ni2   S    
N3    N4    A    
C18   C54   A    
C24   H49   S    
C40   N30   A    
N31   Ni8   S    
C77   N2    A    
C23   C28   S    
C44   H16   S    
C24   C34   S    
C13   N26   A    
C56   C60   T    
C30   C37   S    
N23   Ni3   S    
C78   C107  A    
C6    H33   S    
C77   H24   S    
C64   C67   T    
C38   C103  A    
C99   C108  A    
C95   C106  S    
N1    Ni1   S    
C91   C93   S    
C90   C92   T    
N15   Ni6   S    
C1    N1    A    
C68   C72   S    
C23   C34   S    
C35   C50   S    
C92   C94   S    
C79   C107  A    
C26   H51   S    
C34   C45   S    
N18   N24   A    
N3    Ni8   S    
C37   C48   S    
C94   C96   T    
N11   Ni3   S    
C5    C14   A    
C28   H6    S    
N21   N25   A    
C25   C35   S    
C29   H48   S    
C27   H5    S    
N25   Ni4   S    
C30   H47   S    
C96   C107  S    
C88   C90   S    
C28   H44   S    
C38   N28   A    
C4    N9    A    
C23   H45   S    
N20   N26   A    
C36   C47   S    
C40   C105  A    
N17   Ni8   S    
C97   H27   S    
C65   H37   S    
C73   C82   T    
N16   N17   A    
C42   H14   S    
C5    H32   S    
C65   N19   A    
C85   C88   T    
C45   H9    S    
C25   C30   S    
C23   H2    S    
C11   C17   A    
C34   C49   S    
C13   C20   A    
N23   N31   A    
N18   Ni6   S    
N2    N32   A    
C86   C89   S    
C22   C87   A    
C53   C58   T    
C24   H52   S    
C42   C45   S    
C57   C61   T    
C27   C36   S    
C54   H36   S    
C59   C63   S    
C41   C104  A    
C60   C64   S    
C10   N16   A    
C22   C83   S    
N21   Ni7   S    
C37   C44   S    
N27   N30   A    
C39   C102  A    
C98   N22   A    
C76   N20   A    
C101  H30   S    
C75   N32   A    
C4    H31   S    
C41   H21   S    
C3    C101  A    
C93   C95   T    
C98   H40   S    
N24   Ni1   S    
C2    H41   S    
N30   Ni7   S    
C26   H3    S    
C11   I4    S    
C99   H28   S    
C19   C65   A    
C67   C71   S    
N6    Ni1   S    
C4    C14   A    
C9    I2    S    
C78   H25   S    
C2    N24   A    
C56   C105  S    
C100  H29   S    
N29   Ni6   S    
C76   H38   S    
C21   C103  A    
N4    Ni7   S    
C8    N14   A    
C26   C35   S    
C62   C69   T    
C26   C29   S    
C18   C80   S    
C79   H26   S    
N14   Ni5   S    
C29   C37   S    
C25   H50   S    
C33   C48   T    
N22   Ni2   S    
C43   H34   S    
C41   N31   A    
C19   C81   S    
C35   C46   S    
N32   Ni6   S    
C1    C102  A    
N2    Ni5   S    
C32   H23   S    
N5    Ni2   S    
