data_mof_unit_36770.cif
_audit_creation_date              2012-12-10T17:18:55-0500
_audit_creation_method            fapswitch 2.2
_symmetry_space_group_name_H-M    P1
_symmetry_Int_Tables_number       1
_space_group_crystal_system       triclinic
_cell_length_a                    9.638591
_cell_length_b                    10.867649
_cell_length_c                    13.375283
_cell_angle_alpha                 96.01028
_cell_angle_beta                  71.798434
_cell_angle_gamma                 88.359266
_cell_volume                      1320.8329926

loop_
_atom_site_label
_atom_site_type_symbol
_atom_type_description
_atom_site_fract_x
_atom_site_fract_y
_atom_site_fract_z
_atom_type_partial_charge
C1    C     C_R   0.497613 0.738240 0.498881 0.782707
C2    C     C_R   0.430480 0.516729 0.982862 0.072885
C3    C     C_R   0.455824 0.551546 0.879565 0.083216
C4    C     C_R   0.529463 0.552209 0.039125 0.074729
C5    C     C_R   0.637698 0.635104 0.998501 0.124947
C6    C     C_R   0.649901 0.679377 0.902195 -0.214950
C7    C     C_R   0.561684 0.637386 0.842932 -0.186960
C8    C     C_R   0.524722 0.506773 0.134199 -0.256450
C9    C     C_R   0.719149 0.635262 0.154075 -0.006572
C10   C     C_R   0.372467 0.501410 0.816240 -0.084559
C11   C     C_R   0.221708 0.900630 0.519883 -0.069392
C12   C     C_R   0.420561 0.504150 0.700746 0.787443
C13   C     C_R   0.089673 0.972279 0.563165 -0.076980
C14   C     C_R   0.087986 0.092162 0.610888 -0.139603
C15   C     C_R   0.219591 0.144928 0.605083 -0.160683
C16   C     C_R   0.354955 0.076747 0.552909 0.133716
C17   C     C_R   0.355533 0.947838 0.524565 0.108741
C18   C     C_R   0.489850 0.874283 0.501697 -0.110752
C19   C     C_R   0.619669 0.933487 0.494106 -0.174535
C20   C     C_R   0.619959 0.061240 0.503760 -0.241273
C21   C     C_R   0.489729 0.133631 0.526981 -0.121611
C22   C     C_R   0.910930 0.303151 0.383033 -0.108591
C23   C     C_R   0.496594 0.264793 0.510606 0.813163
C24   C     C_R   0.980057 0.187783 0.376936 -0.488653
C25   C     C_R   0.127441 0.181502 0.370250 0.422811
C26   C     C_R   0.194753 0.294616 0.380898 0.456238
C27   C     C_R   0.102974 0.402886 0.439714 0.023021
C28   C     C_R   0.953695 0.405193 0.439562 0.133025
C29   C     C_R   0.894996 0.587744 0.558961 -0.062819
C30   C     C_R   0.040294 0.587662 0.563180 0.029769
C31   C     C_R   0.577830 0.511694 0.301532 0.856891
C32   C     C_R   0.729962 0.676331 0.056130 -0.214419
C33   C     C_R   0.617236 0.545803 0.192451 -0.113391
C34   C     C_R   0.250814 0.434792 0.861602 -0.198784
C35   C     C_R   0.216399 0.411514 0.966363 -0.108740
C36   C     C_R   0.306167 0.449333 0.026010 -0.167440
Cu1   Cu    Cu3+1 0.359340 0.500010 0.500010 1.009804
Cu2   Cu    Cu3+1 0.640660 0.499990 0.499990 0.991843
H1    H     H_    0.215622 0.812060 0.477984 0.147481
H2    H     H_    0.988469 0.934748 0.559114 0.145729
H3    H     H_    0.985226 0.146373 0.647722 0.137254
H4    H     H_    0.214241 0.239036 0.642152 0.137495
H5    H     H_    0.722662 0.103506 0.492410 0.171388
H6    H     H_    0.811849 0.657376 0.606846 0.178266
H7    H     H_    0.931610 0.106057 0.352979 0.174236
H8    H     H_    0.728694 0.746441 0.872260 0.182844
H9    H     H_    0.808607 0.743751 0.025809 0.163305
H10   H     H_    0.445232 0.442824 0.166638 0.170237
H11   H     H_    0.184559 0.397261 0.814971 0.147503
H12   H     H_    0.272477 0.427501 0.106541 0.154916
H13   H     H_    0.121779 0.360391 0.000729 0.180829
H14   H     H_    0.574172 0.676374 0.769722 0.162896
H15   H     H_    0.723132 0.880999 0.478046 0.166590
N1    N     N_R   0.852480 0.498790 0.499000 -0.183825
N2    N     N_R   0.148360 0.498710 0.498970 -0.204949
O1    O     O_R   0.381190 0.680360 0.500010 -0.572388
O2    O     O_R   0.618760 0.680340 0.500000 -0.588634
O3    O     O_R   0.323240 0.499990 0.650990 -0.544806
O4    O     O_R   0.560820 0.499960 0.650980 -0.593194
O5    O     O_R   0.381240 0.319660 0.500000 -0.538198
O6    O     O_R   0.618810 0.319640 0.499990 -0.596145
O7    O     O_R   0.439180 0.500040 0.349020 -0.530001
O8    O     O_R   0.676760 0.500010 0.349010 -0.531570
C37   C     C_2   0.803392 0.700098 0.217000 0.826305
O9    O     O_2   0.877393 0.642061 0.257618 -0.538852
O10   O     O_R   0.803124 0.829463 0.225268 -0.778979
H16   H     H_    0.865361 0.864057 0.268888 0.313603
C38   C     C_2   0.874798 0.316919 0.285046 0.956053
O11   O     O_2   0.940078 0.389094 0.225575 -0.555494
O12   O     O_R   0.775656 0.242354 0.254339 -0.757898
H17   H     H_    0.727949 0.184517 0.307854 0.296960
O13   O     O_3   0.209840 0.069559 0.354807 -0.573901
C39   C     C_3   0.175037 0.977783 0.285181 -0.337248
H18   H     H_    0.158829 0.015939 0.215226 0.167167
H19   H     H_    0.077905 0.930062 0.328519 0.168949
H20   H     H_    0.268057 0.906836 0.254829 0.196970
O14   O     O_3   0.343854 0.302610 0.331565 -0.541116
C40   C     C_3   0.407829 0.218149 0.239125 -0.254898
H21   H     H_    0.336318 0.206735 0.188024 0.132744
H22   H     H_    0.442110 0.128508 0.259762 0.226222
H23   H     H_    0.511382 0.253717 0.191763 0.182139
C41   C     C_2   0.060723 0.684104 0.645381 0.791659
O15   O     O_2   0.173006 0.687885 0.668033 -0.551868
O16   O     O_R   0.945966 0.771911 0.700674 -0.837181
H24   H     H_    0.971326 0.831711 0.754884 0.333611

loop_
_geom_bond_atom_site_label_1
_geom_bond_atom_site_label_2
_ccdc_geom_bond_type
C16   C21   A    
C9    C37   S    
C39   H18   S    
C35   C36   A    
C4    C8    A    
Cu1   O7    S    
O14   C40   S    
C26   C27   A    
Cu1   Cu2   S    
C24   H7    S    
C1    O1    A    
C7    H14   S    
C18   C19   A    
C3    C7    A    
C5    C6    A    
C27   N2    A    
C29   N1    A    
C15   C16   A    
C34   C35   A    
C13   H2    S    
C9    C32   A    
C38   O11   D    
Cu1   O1    S    
C19   C20   A    
C16   C17   A    
C31   C33   S    
O12   H17   S    
Cu1   O3    S    
Cu2   O6    S    
C12   O3    A    
C19   H15   S    
O10   H16   S    
C22   C28   A    
C13   C14   A    
C9    C33   A    
C39   H19   S    
C31   O7    A    
C23   O5    A    
C26   O14   S    
C31   O8    A    
O16   H24   S    
C28   N1    A    
C40   H21   S    
O13   C39   S    
C25   C26   A    
C37   O10   S    
C30   C41   S    
C2    C4    A    
C8    H10   S    
C29   C30   A    
C1    O2    A    
Cu2   O2    S    
Cu2   N1    S    
C17   C18   A    
C1    C18   S    
C10   C34   A    
C25   O13   S    
C24   C25   A    
C11   H1    S    
C22   C38   S    
C10   C12   S    
C14   H3    S    
C41   O16   S    
C21   C23   S    
C29   H6    S    
C35   H13   S    
C39   H20   S    
C22   C24   A    
C20   H5    S    
C36   H12   S    
Cu2   O8    S    
C2    C36   A    
C11   C17   A    
C34   H11   S    
C6    H8    S    
C15   H4    S    
C4    C5    A    
C6    C7    A    
C30   N2    A    
C37   O9    D    
C5    C32   A    
C2    C3    A    
C3    C10   A    
C11   C13   A    
C40   H23   S    
C32   H9    S    
C40   H22   S    
C8    C33   A    
C12   O4    A    
Cu1   O5    S    
Cu2   O4    S    
Cu1   N2    S    
C23   O6    A    
C20   C21   A    
C38   O12   S    
C41   O15   D    
C27   C28   A    
C14   C15   A    
