data_mof_unit_11700.cif
_audit_creation_date              2012-12-10T20:34:51-0500
_audit_creation_method            fapswitch 2.2
_symmetry_space_group_name_H-M    P1
_symmetry_Int_Tables_number       1
_space_group_crystal_system       triclinic
_cell_length_a                    10.668716
_cell_length_b                    10.66359
_cell_length_c                    9.84929
_cell_angle_alpha                 90.035303
_cell_angle_beta                  89.786127
_cell_angle_gamma                 89.694835
_cell_volume                      1120.49840975

loop_
_atom_site_label
_atom_site_type_symbol
_atom_type_description
_atom_site_fract_x
_atom_site_fract_y
_atom_site_fract_z
_atom_type_partial_charge
C1    C     C_R   0.495674 0.259970 0.499978 0.905580
C2    C     C_3   0.878949 0.499006 0.498066 -0.116244
C3    C     C_3   0.927112 0.622976 0.432424 0.377436
C4    C     C_3   0.929786 0.378597 0.423942 0.305216
C5    C     C_R   0.468408 0.064290 0.622634 0.137846
C6    C     C_R   0.474584 0.128865 0.500019 -0.078199
C7    C     C_R   0.456699 0.065016 0.377169 -0.235436
C8    C     C_R   0.457432 0.935556 0.377110 -0.280214
C9    C     C_R   0.475490 0.871621 0.499983 -0.103173
C10   C     C_R   0.468813 0.936345 0.622613 0.139605
C11   C     C_3   0.551570 0.929170 0.744607 -0.498820
C12   C     C_R   0.257739 0.500529 0.500228 0.949328
C13   C     C_3   0.551130 0.071319 0.744614 -0.485105
C14   C     C_R   0.447959 0.402702 0.071450 0.233809
C15   C     C_R   0.561033 0.590124 0.071824 -0.112253
C16   C     C_R   0.561430 0.589922 0.927765 -0.151403
C17   C     C_R   0.447699 0.402913 0.928748 0.219150
C18   C     C_3   0.314067 0.363472 0.923760 -0.512313
C19   C     C_3   0.314524 0.362480 0.077751 -0.548134
C20   C     C_R   0.496158 0.740153 0.499978 0.841568
C21   C     C_R   0.742385 0.499309 0.499727 0.935119
C22   C     C_3   0.070369 0.496314 0.647451 -0.494833
C23   C     C_3   0.928056 0.495509 0.646977 -0.608534
C24   C     C_3   0.072308 0.620610 0.427926 0.256312
C25   C     C_3   0.076562 0.379116 0.422372 0.283927
C26   C     C_3   0.121375 0.498847 0.499237 -0.091638
H1    H     H_    0.103317 0.579927 0.704756 0.188990
H2    H     H_    0.451592 0.113870 0.280918 0.167919
H3    H     H_    0.453168 0.886776 0.280730 0.166718
H4    H     H_    0.502438 0.888349 0.833831 0.199624
H5    H     H_    0.645132 0.887559 0.721712 0.196376
H6    H     H_    0.501821 0.112543 0.833845 0.201140
H7    H     H_    0.644443 0.112442 0.721688 0.201620
H8    H     H_    0.607731 0.664383 0.126086 0.149118
H9    H     H_    0.104752 0.411442 0.701723 0.251832
H10   H     H_    0.609276 0.663622 0.873242 0.145038
H11   H     H_    0.252082 0.437448 0.881099 0.217226
H12   H     H_    0.302990 0.268780 0.878254 0.204475
H13   H     H_    0.251953 0.435018 0.123083 0.241282
H14   H     H_    0.304715 0.266928 0.121105 0.183714
H15   H     H_    0.894343 0.409938 0.700425 0.223046
H16   H     H_    0.892842 0.577967 0.705611 0.214981
H17   H     H_    0.105741 0.702075 0.489734 0.017228
H18   H     H_    0.898183 0.700521 0.503040 -0.005278
H19   H     H_    0.117432 0.385297 0.319009 0.116194
H20   H     H_    0.902908 0.299601 0.491888 0.130873
N1    N     N_R   0.499150 0.499140 0.142800 -0.103826
N2    N     N_R   0.499150 0.499180 0.857150 -0.106460
O1    O     O_R   0.500020 0.316790 0.614690 -0.620139
O2    O     O_R   0.500000 0.316760 0.385350 -0.620069
O3    O     O_R   0.314800 0.500000 0.614670 -0.631840
O4    O     O_R   0.314790 0.499960 0.385330 -0.605343
O5    O     O_R   0.500000 0.683240 0.614650 -0.621851
O6    O     O_R   0.499980 0.683210 0.385310 -0.646328
O7    O     O_R   0.685210 0.500040 0.614670 -0.652356
O8    O     O_R   0.685200 0.500000 0.385330 -0.520337
Zn1   Zn    Zn3+2 0.500010 0.500020 0.653130 0.932899
Zn2   Zn    Zn3+2 0.499990 0.499980 0.346870 0.978702
O9    O     O_3   0.864306 0.351063 0.300772 -0.600328
C27   C     C_3   0.929295 0.373282 0.178311 -0.228254
H21   H     H_    0.975045 0.466006 0.175622 0.235238
H22   H     H_    0.860469 0.372276 0.094196 0.184410
H23   H     H_    0.997605 0.296568 0.157895 0.121929
O10   O     O_3   0.115214 0.624984 0.290875 -0.590633
C28   C     C_3   0.177773 0.738397 0.263205 -0.262194
H24   H     H_    0.261891 0.748149 0.328141 0.165909
H25   H     H_    0.114599 0.820454 0.277578 0.141056
H26   H     H_    0.209499 0.737425 0.155838 0.177891
O11   O     O_3   0.876803 0.639677 0.300023 -0.546938
C29   C     C_3   0.828115 0.762060 0.283430 -0.274062
H27   H     H_    0.897745 0.834833 0.311056 0.136049
H28   H     H_    0.741456 0.774582 0.344962 0.157072
H29   H     H_    0.803779 0.775906 0.175114 0.171819
O12   O     O_3   0.123973 0.271119 0.490133 -0.622772
C30   C     C_3   0.130706 0.167790 0.400794 -0.371245
H30   H     H_    0.200635 0.184387 0.319082 0.164037
H31   H     H_    0.037596 0.145823 0.356698 0.175871
H32   H     H_    0.162295 0.084349 0.458819 0.201378

loop_
_geom_bond_atom_site_label_1
_geom_bond_atom_site_label_2
_ccdc_geom_bond_type
C13   H6    S    
C17   N2    A    
C15   N1    A    
C16   N2    A    
C4    C25   S    
N2    Zn1   S    
C4    H20   S    
C22   H9    S    
C23   H16   S    
C27   H23   S    
C8    H3    S    
C19   H13   S    
C3    O11   S    
C18   H11   S    
C24   C26   S    
C25   O12   S    
O6    Zn2   S    
C5    C6    A    
C15   C16   A    
O1    Zn1   S    
C27   H22   S    
C18   C19   S    
C11   H4    S    
C8    C9    A    
C28   H25   S    
C29   H27   S    
O3    Zn1   S    
C1    O2    A    
C15   H8    S    
C5    C13   S    
C11   H5    S    
O9    C27   S    
C24   O10   S    
C14   C17   A    
C3    C24   S    
C2    C21   S    
C12   O4    A    
C3    H18   S    
O12   C30   S    
C1    C6    S    
O2    Zn2   S    
C7    C8    A    
C20   O6    A    
C19   H14   S    
C21   O7    A    
O5    Zn1   S    
C25   C26   S    
C7    H2    S    
C12   C26   S    
C27   H21   S    
C2    C4    S    
C30   H30   S    
C13   H7    S    
C9    C20   S    
C28   H26   S    
C29   H29   S    
C17   C18   S    
C30   H31   S    
C6    C7    A    
O4    Zn2   S    
C22   H1    S    
O7    Zn1   S    
C25   H19   S    
C12   O3    A    
C9    C10   A    
C14   C19   S    
C20   O5    A    
C21   O8    A    
C14   N1    A    
C23   H15   S    
O10   C28   S    
C2    C3    S    
C18   H12   S    
C5    C10   A    
C16   H10   S    
N1    Zn2   S    
C11   C13   S    
C4    O9    S    
O8    Zn2   S    
O11   C29   S    
C30   H32   S    
C10   C11   S    
C28   H24   S    
C22   C26   S    
C2    C23   S    
C24   H17   S    
C22   C23   S    
C29   H28   S    
C1    O1    A    
