data_mof_unit_25732.cif
_audit_creation_date              2012-12-11T14:52:38-0500
_audit_creation_method            fapswitch 2.2
_symmetry_space_group_name_H-M    P1
_symmetry_Int_Tables_number       1
_space_group_crystal_system       triclinic
_cell_length_a                    18.808682
_cell_length_b                    10.937584
_cell_length_c                    18.843437
_cell_angle_alpha                 90.064054
_cell_angle_beta                  90.666761
_cell_angle_gamma                 90.283925
_cell_volume                      3876.18811121

loop_
_atom_site_label
_atom_site_type_symbol
_atom_type_description
_atom_site_fract_x
_atom_site_fract_y
_atom_site_fract_z
_atom_type_partial_charge
C1    C     C_R   0.272154 0.043027 0.853481 0.542586
C2    C     C_R   0.688931 0.556096 0.033893 0.201899
C3    C     C_3   0.039077 0.326092 0.061685 0.047515
C4    C     C_3   0.400904 0.421708 0.439797 -0.115529
C5    C     C_3   0.599203 0.417860 0.559550 -0.116889
C6    C     C_3   0.900806 0.921874 0.439500 -0.115415
C7    C     C_3   0.099115 0.918015 0.559514 -0.116537
C8    C     C_3   0.409277 0.466230 0.943359 -0.087729
C9    C     C_3   0.600871 0.434528 0.076652 -0.102281
C10   C     C_3   0.902300 0.936137 0.947702 -0.105996
C11   C     C_3   0.104521 0.925352 0.060183 -0.104173
C12   C     C_R   0.820833 0.087974 0.972131 0.214633
C13   C     C_R   0.181767 0.080153 0.029537 0.215937
C14   C     C_R   0.312110 0.573008 0.046016 -0.157693
C15   C     C_R   0.696005 0.546562 0.960527 -0.154274
C16   C     C_R   0.810633 0.058577 0.044139 -0.151756
C17   C     C_R   0.191383 0.051996 0.957481 -0.163329
C18   C     C_R   0.245036 0.585714 0.075926 -0.062797
C19   C     C_R   0.761852 0.565285 0.929451 -0.056763
C20   C     C_R   0.747226 0.089607 0.077178 -0.058092
C21   C     C_R   0.727916 0.042981 0.146624 0.543042
C22   C     C_R   0.253026 0.089247 0.923065 -0.062780
C23   C     C_R   0.188803 0.632168 0.035503 -0.116753
C24   C     C_R   0.821417 0.593580 0.971691 -0.164525
C25   C     C_R   0.695364 0.154902 0.040072 -0.106696
C26   C     C_R   0.303144 0.161532 0.958774 -0.098078
C27   C     C_R   0.198271 0.670133 0.967469 0.156168
C28   C     C_R   0.815738 0.606567 0.044392 0.179316
C29   C     C_R   0.704754 0.189442 0.971262 0.158550
C30   C     C_R   0.293561 0.196136 0.027718 0.166208
C31   C     C_R   0.264631 0.651101 0.934279 0.039830
C32   C     C_R   0.773632 0.539427 0.854974 0.544538
C33   C     C_R   0.748882 0.590062 0.076056 0.065467
C34   C     C_R   0.767050 0.154024 0.935078 0.030852
C35   C     C_R   0.233754 0.152342 0.065320 0.027048
C36   C     C_R   0.499325 0.719397 0.536613 -0.102764
C37   C     C_R   0.503247 0.719039 0.464159 -0.100936
C38   C     C_R   0.999282 0.219393 0.536601 -0.102874
C39   C     C_R   0.003203 0.219043 0.464148 -0.101161
C40   C     C_R   0.506667 0.829303 0.426588 0.038375
C41   C     C_R   0.494109 0.829884 0.573748 0.038079
C42   C     C_R   0.006659 0.329312 0.426584 0.037655
C43   C     C_R   0.227755 0.542718 0.146543 0.532267
C44   C     C_R   0.994102 0.329880 0.573744 0.037811
C45   C     C_R   0.502755 0.940882 0.463135 -0.148508
C46   C     C_R   0.496621 0.941177 0.536826 -0.147563
C47   C     C_R   0.002781 0.440890 0.463138 -0.148668
C48   C     C_R   0.996644 0.441178 0.536830 -0.147628
C49   C     C_R   0.471607 0.822269 0.855062 0.556001
C50   C     C_R   0.561349 0.817795 0.137505 0.581711
C51   C     C_R   0.971274 0.322175 0.855091 0.549479
C52   C     C_R   0.060866 0.317548 0.137339 0.557042
C53   C     C_R   0.183857 0.589562 0.543516 -0.163166
C54   C     C_3   0.537636 0.723528 0.964673 -0.049299
C55   C     C_R   0.816051 0.591088 0.456524 -0.162139
C56   C     C_R   0.683866 0.089450 0.543524 -0.163366
C57   C     C_R   0.316039 0.091123 0.456536 -0.162404
C58   C     C_R   0.178449 0.585653 0.471157 -0.184795
C59   C     C_R   0.821403 0.587448 0.528891 -0.184423
C60   C     C_R   0.678442 0.085505 0.471165 -0.184583
C61   C     C_R   0.321390 0.087491 0.528902 -0.184317
C62   C     C_R   0.239110 0.566720 0.429782 0.053877
C63   C     C_R   0.760794 0.566793 0.570196 0.054156
C64   C     C_R   0.739108 0.066725 0.429776 0.054601
C65   C     C_3   0.487079 0.738821 0.027779 -0.037970
C66   C     C_R   0.260782 0.066832 0.570207 0.054556
C67   C     C_R   0.305756 0.546404 0.461678 0.261189
C68   C     C_R   0.694235 0.544718 0.538168 0.261102
C69   C     C_R   0.805777 0.046589 0.461656 0.261022
C70   C     C_R   0.194220 0.044770 0.538184 0.261353
C71   C     C_R   0.311302 0.557150 0.535129 -0.119823
C72   C     C_R   0.688723 0.555334 0.464689 -0.119701
C73   C     C_R   0.811333 0.057347 0.535099 -0.119622
C74   C     C_R   0.188707 0.055389 0.464703 -0.120263
C75   C     C_R   0.250653 0.582714 0.575282 -0.006644
C76   C     C_3   0.041196 0.226685 0.962633 -0.056374
C77   C     C_R   0.749312 0.582499 0.424634 -0.004960
C78   C     C_R   0.750674 0.082750 0.575271 -0.006615
C79   C     C_R   0.249299 0.082536 0.424646 -0.006347
C80   C     C_R   0.273174 0.683380 0.859311 0.578539
C81   C     C_R   0.739105 0.636512 0.147963 0.583545
C82   C     C_R   0.773743 0.184110 0.859300 0.569939
C83   C     C_R   0.226500 0.183697 0.140663 0.550091
C84   C     C_R   0.272771 0.042737 0.644336 0.583580
C85   C     C_R   0.727186 0.042614 0.355644 0.581766
C86   C     C_R   0.772776 0.542724 0.644331 0.584871
C87   C     C_3   0.990172 0.230887 0.026078 -0.035656
C88   C     C_R   0.227183 0.542605 0.355649 0.585520
C89   C     C_R   0.469658 0.823540 0.646557 0.550830
C90   C     C_R   0.530529 0.823290 0.353564 0.561254
C91   C     C_R   0.969657 0.323539 0.646556 0.551170
C92   C     C_R   0.030526 0.323292 0.353562 0.561556
C93   C     C_R   0.259770 0.634440 0.644643 0.557368
C94   C     C_R   0.740188 0.634202 0.355327 0.550910
C95   C     C_R   0.759775 0.134451 0.644638 0.557126
C96   C     C_R   0.240184 0.134214 0.355332 0.560260
C97   C     C_3   0.503911 0.937380 0.025233 -0.122786
C98   C     C_R   0.321764 0.600742 0.973917 0.211218
C99   C     C_3   0.554348 0.922320 0.961209 -0.150422
C100  C     C_3   0.997493 0.431112 0.027071 -0.128145
C101  C     C_3   0.048073 0.427040 0.962830 -0.155551
C102  C     C_3   0.450420 0.847240 0.990463 -0.093251
C103  C     C_3   0.591328 0.813773 0.999329 -0.125318
C104  C     C_3   0.948256 0.335617 0.990844 -0.098624
C105  C     C_3   0.090413 0.322725 0.998800 -0.132964
C106  C     C_3   0.501223 0.831438 0.927758 0.041775
C107  C     C_3   0.540216 0.828090 0.061835 0.043913
C108  C     C_3   0.999560 0.330788 0.927956 0.037908
Cr1   Cr    Cr6+3 0.229630 0.835900 0.747350 1.037823
Cr2   Cr    Cr6+3 0.614200 0.677120 0.250660 1.029057
Cr3   Cr    Cr6+3 0.885800 0.177120 0.749340 1.043342
Cr4   Cr    Cr6+3 0.114200 0.177120 0.250660 1.040468
Cr5   Cr    Cr6+3 0.770370 0.835900 0.252650 1.055569
Cr6   Cr    Cr6+3 0.729630 0.335900 0.747350 1.036624
Cr7   Cr    Cr6+3 0.270370 0.335900 0.252650 1.036518
Cr8   Cr    Cr6+3 0.387410 0.989850 0.750850 1.013757
Cr9   Cr    Cr6+3 0.612590 0.989850 0.249150 1.010854
Cr10  Cr    Cr6+3 0.887410 0.489850 0.750850 1.012158
Cr11  Cr    Cr6+3 0.112590 0.489850 0.249150 1.013564
Cr12  Cr    Cr6+3 0.385800 0.677120 0.749340 1.035504
H1    H     H_    0.392103 0.861311 0.985815 0.122555
H2    H     H_    0.873714 0.599560 0.552328 0.140181
H3    H     H_    0.626060 0.095988 0.447791 0.141086
H4    H     H_    0.373703 0.099607 0.552336 0.140126
H5    H     H_    0.363511 0.555246 0.559845 0.133294
H6    H     H_    0.636587 0.551978 0.439854 0.131420
H7    H     H_    0.863554 0.055591 0.559791 0.133369
H8    H     H_    0.136571 0.052045 0.439867 0.131105
H9    H     H_    0.490014 0.025222 0.051055 0.156108
H10   H     H_    0.581752 0.997352 0.932658 0.169093
H11   H     H_    0.982481 0.514550 0.056023 0.163071
H12   H     H_    0.649749 0.802003 0.004148 0.123257
H13   H     H_    0.071002 0.506933 0.934955 0.184352
H14   H     H_    0.549137 0.635541 0.938255 0.144213
H15   H     H_    0.460542 0.663418 0.056606 0.155894
H16   H     H_    0.056781 0.142842 0.933904 0.144791
H17   H     H_    0.966633 0.150008 0.052643 0.160318
H18   H     H_    0.356115 0.540454 0.078144 0.128767
H19   H     H_    0.649970 0.526324 0.927660 0.125332
H20   H     H_    0.851033 0.009859 0.073886 0.137558
H21   H     H_    0.150802 0.002763 0.928205 0.114107
H22   H     H_    0.135681 0.641067 0.056608 0.166583
H23   H     H_    0.889456 0.341601 0.986425 0.118036
H24   H     H_    0.873583 0.603958 0.948545 0.141262
H25   H     H_    0.644890 0.177592 0.063674 0.163415
H26   H     H_    0.351651 0.191365 0.933522 0.166516
H27   H     H_    0.496979 0.631598 0.563010 0.156173
H28   H     H_    0.506792 0.631031 0.438096 0.153157
H29   H     H_    0.996909 0.131589 0.562991 0.156130
H30   H     H_    0.006722 0.131034 0.438079 0.153289
H31   H     H_    0.505757 0.027031 0.435077 0.109141
H32   H     H_    0.492409 0.027484 0.564584 0.109409
H33   H     H_    0.005812 0.527043 0.435086 0.109627
H34   H     H_    0.149226 0.322764 0.002222 0.102376
H35   H     H_    0.992457 0.527486 0.564593 0.109631
H36   H     H_    0.363454 0.343590 0.446721 0.138384
H37   H     H_    0.433246 0.436062 0.488786 0.077610
H38   H     H_    0.437987 0.396634 0.396867 0.136037
H39   H     H_    0.636722 0.340632 0.552137 0.139174
H40   H     H_    0.566697 0.432064 0.510744 0.077231
H41   H     H_    0.562283 0.391536 0.602451 0.135957
H42   H     H_    0.863290 0.843696 0.445723 0.139354
H43   H     H_    0.932783 0.935423 0.488791 0.077527
H44   H     H_    0.938214 0.897463 0.396739 0.136612
H45   H     H_    0.136632 0.607900 0.574138 0.131063
H46   H     H_    0.136591 0.840749 0.551941 0.139072
H47   H     H_    0.066519 0.932436 0.510776 0.077575
H48   H     H_    0.062263 0.891590 0.602460 0.136272
H49   H     H_    0.366182 0.404640 0.923544 0.138060
H50   H     H_    0.428267 0.438383 0.996919 0.143442
H51   H     H_    0.454746 0.456488 0.906860 0.140831
H52   H     H_    0.642278 0.385054 0.107946 0.120604
H53   H     H_    0.587056 0.385422 0.026863 0.158269
H54   H     H_    0.552148 0.436838 0.109219 0.142912
H55   H     H_    0.855248 0.873942 0.943653 0.124704
H56   H     H_    0.863270 0.610627 0.425999 0.131433
H57   H     H_    0.930940 0.922854 0.998993 0.099636
H58   H     H_    0.939349 0.909864 0.904983 0.147996
H59   H     H_    0.153171 0.870421 0.070584 0.137749
H60   H     H_    0.079132 0.900551 0.008692 0.128372
H61   H     H_    0.065956 0.902385 0.102269 0.141442
H62   H     H_    0.155338 0.803102 0.918150 0.335470
H63   H     H_    0.910507 0.677861 0.053346 0.299577
H64   H     H_    0.669697 0.324084 0.917083 0.344645
H65   H     H_    0.320395 0.337306 0.081231 0.342026
H66   H     H_    0.636638 0.107683 0.574161 0.130868
H67   H     H_    0.363258 0.110660 0.426011 0.131134
H68   H     H_    0.126078 0.596269 0.447772 0.141020
O1    O     O_R   0.214270 0.709000 0.827470 -0.496104
O2    O     O_R   0.543270 0.717630 0.330160 -0.520367
O3    O     O_R   0.956730 0.217630 0.669840 -0.524791
O4    O     O_R   0.043270 0.217630 0.330160 -0.520136
O5    O     O_R   0.320620 0.625640 0.672920 -0.513062
O6    O     O_R   0.679380 0.625640 0.327080 -0.518571
O7    O     O_R   0.820620 0.125640 0.672920 -0.512460
O8    O     O_R   0.179380 0.125640 0.327080 -0.512443
O9    O     O_3   0.334280 0.834290 0.749180 -0.280765
O10   O     O_3   0.665720 0.834290 0.250820 -0.286239
O11   O     O_3   0.834280 0.334290 0.749180 -0.284011
O12   O     O_R   0.785730 0.709000 0.172530 -0.458493
O13   O     O_3   0.165720 0.334290 0.250820 -0.301961
O14   O     O_R   0.236160 0.958490 0.823130 -0.526129
O15   O     O_R   0.763840 0.958490 0.176870 -0.500199
O16   O     O_R   0.736160 0.458490 0.823130 -0.531563
O17   O     O_R   0.263840 0.458490 0.176870 -0.532822
O18   O     O_R   0.332080 0.075470 0.831280 -0.523778
O19   O     O_R   0.667920 0.075470 0.168720 -0.538880
O20   O     O_R   0.832080 0.575470 0.831280 -0.518506
O21   O     O_R   0.167920 0.575470 0.168720 -0.530958
O22   O     O_R   0.446300 0.918110 0.826620 -0.504416
O23   O     O_R   0.714270 0.209000 0.827470 -0.498333
O24   O     O_R   0.553700 0.918110 0.173380 -0.505377
O25   O     O_R   0.946300 0.418110 0.826620 -0.509466
O26   O     O_R   0.053700 0.418110 0.173380 -0.499444
O27   O     O_R   0.457110 0.716200 0.831760 -0.488465
O28   O     O_R   0.542890 0.716200 0.168240 -0.491604
O29   O     O_R   0.957110 0.216200 0.831760 -0.487876
O30   O     O_R   0.042890 0.216200 0.168240 -0.487774
O31   O     O_R   0.320980 0.624310 0.823030 -0.460716
O32   O     O_R   0.679020 0.624310 0.176970 -0.489216
O33   O     O_R   0.820980 0.124310 0.823030 -0.449488
O34   O     O_R   0.285730 0.209000 0.172530 -0.488407
O35   O     O_R   0.179020 0.124310 0.176970 -0.459862
O36   O     O_R   0.213890 0.710430 0.665540 -0.520587
O37   O     O_R   0.786110 0.710430 0.334460 -0.523118
O38   O     O_R   0.713890 0.210430 0.665540 -0.521096
O39   O     O_R   0.286110 0.210430 0.334460 -0.519888
O40   O     O_R   0.235810 0.959820 0.673020 -0.456905
O41   O     O_R   0.764190 0.959820 0.326980 -0.458213
O42   O     O_R   0.735810 0.459820 0.673020 -0.456118
O43   O     O_R   0.264190 0.459820 0.326980 -0.455259
O44   O     O_R   0.331700 0.076900 0.669350 -0.542366
O45   O     O_R   0.445950 0.919440 0.676520 -0.509492
O46   O     O_R   0.668300 0.076900 0.330650 -0.543554
O47   O     O_R   0.831700 0.576900 0.669350 -0.540913
O48   O     O_R   0.168300 0.576900 0.330650 -0.539952
O49   O     O_3   0.365305 0.529986 0.419949 -0.557574
O50   O     O_3   0.634716 0.526663 0.579836 -0.560106
O51   O     O_3   0.865344 0.030428 0.419932 -0.558208
O52   O     O_3   0.134705 0.026719 0.579862 -0.560102
O53   O     O_3   0.387882 0.589476 0.943139 -0.566712
O54   O     O_3   0.621312 0.555543 0.061867 -0.567543
O55   O     O_3   0.884081 0.060313 0.938369 -0.547771
O56   O     O_R   0.554050 0.919440 0.323480 -0.504642
O57   O     O_3   0.118470 0.051862 0.063109 -0.559812
O58   O     O_3   0.140012 0.721611 0.934684 -0.725586
O59   O     O_3   0.874417 0.640590 0.084761 -0.688081
O60   O     O_3   0.649189 0.251489 0.940179 -0.720604
O61   O     O_3   0.345253 0.270599 0.056812 -0.717807
O62   O     O_R   0.945950 0.419440 0.676520 -0.508823
O63   O     O_R   0.054050 0.419440 0.323480 -0.502393
O64   O     O_R   0.456730 0.717630 0.669840 -0.525419

loop_
_geom_bond_atom_site_label_1
_geom_bond_atom_site_label_2
_ccdc_geom_bond_type
C84   O44   A    
C58   C62   A    
C99   C103  S    
C7    H48   S    
Cr3   O3    S    
C76   C105  S    
Cr8   O9    S    
C89   O64   A    
C55   C59   A    
C43   O17   A    
C80   O1    A    
C14   C18   A    
Cr7   O34   S    
Cr1   O9    S    
Cr11  O13   S    
C104  C108  S    
Cr10  O25   S    
C80   O31   A    
C76   H16   S    
C100  H11   S    
C92   O4    A    
C31   C80   S    
C82   O33   A    
C16   H20   S    
C45   C46   A    
C51   O29   A    
Cr12  O27   S    
C15   C19   A    
C39   H30   S    
C62   C67   A    
C58   H68   S    
Cr4   O13   S    
Cr1   O14   S    
C87   H17   S    
C13   C35   A    
C37   C40   A    
C90   O56   A    
H62   O58   S    
C38   C39   A    
C55   C77   A    
C3    C52   S    
H65   O61   S    
Cr2   O10   S    
C20   C25   A    
C9    O54   S    
C54   H14   S    
C14   H18   S    
C77   C94   S    
C100  C104  S    
C56   C78   A    
C59   H2    S    
C17   H21   S    
C46   H32   S    
Cr3   O33   S    
C31   C98   A    
C89   O45   A    
C26   H26   S    
C57   C79   A    
Cr4   O8    S    
C98   O53   S    
Cr8   O22   S    
C94   O37   A    
Cr3   O11   S    
C83   O34   A    
C3    C100  S    
C4    H38   S    
C6    H42   S    
Cr1   O1    S    
C51   C108  S    
C5    H39   S    
C11   H61   S    
Cr8   O45   S    
C70   C74   A    
C47   C48   A    
C41   C46   A    
C23   H22   S    
C9    H53   S    
C23   C27   A    
C32   O20   A    
C102  H1    S    
Cr2   O32   S    
C103  H12   S    
C38   H29   S    
Cr7   O43   S    
C97   C102  S    
C8    H51   S    
C16   C20   A    
Cr10  O20   S    
C83   O35   A    
C5    H40   S    
C101  C108  S    
C105  H34   S    
C50   O24   A    
C1    C22   S    
C76   C108  S    
Cr2   O6    S    
Cr8   O44   S    
C25   C29   A    
H64   O60   S    
C36   C41   A    
C53   C75   A    
C70   O52   S    
C65   C102  S    
C81   O12   A    
Cr5   O41   S    
C1    O14   A    
C61   C66   A    
C97   C99   S    
Cr1   O40   S    
C8    H50   S    
C38   C44   A    
C14   C98   A    
C39   C42   A    
C15   H19   S    
C101  C105  S    
C40   C45   A    
C88   O48   A    
Cr10  O11   S    
Cr11  O21   S    
C5    O50   S    
C54   C106  S    
C3    C87   S    
C18   C23   A    
C10   H58   S    
C96   O39   A    
C12   C16   A    
C54   C103  S    
C74   C79   A    
C85   O41   A    
Cr10  O62   S    
C27   O58   S    
C54   C65   S    
C35   C83   S    
C47   H33   S    
C86   O47   A    
C73   H7    S    
C73   C78   A    
C62   C88   S    
C29   C34   A    
Cr2   O2    S    
C3    C105  S    
C85   O46   A    
C72   H6    S    
C68   C72   A    
C45   H31   S    
C28   O59   S    
C11   O57   S    
Cr6   O23   S    
C49   O22   A    
C60   H3    S    
Cr2   O28   S    
Cr7   O39   S    
C72   C77   A    
C2    C15   A    
Cr11  O63   S    
C32   O16   A    
Cr6   O38   S    
C2    O54   S    
C36   H27   S    
Cr5   O37   S    
C4    H37   S    
C50   O28   A    
C78   C95   S    
Cr5   O10   S    
C12   O55   S    
C19   C32   S    
C52   O26   A    
Cr12  O9    S    
C104  H23   S    
C9    H54   S    
H63   O59   S    
C64   C69   A    
C6    H43   S    
C69   C73   A    
C1    O18   A    
C69   O51   S    
C76   C87   S    
C65   H15   S    
Cr1   O36   S    
Cr4   O4    S    
C30   C35   A    
C2    C33   A    
C53   H45   S    
C4    H36   S    
C7    H46   S    
C56   H66   S    
C28   C33   A    
C26   C30   A    
Cr6   O11   S    
Cr7   O17   S    
C27   C31   A    
C4    O49   S    
C50   C107  S    
C29   O60   S    
Cr6   O16   S    
C11   H59   S    
C12   C34   A    
C21   O15   A    
C84   O40   A    
C64   C85   S    
C74   H8    S    
C8    H49   S    
C75   C93   S    
C24   C28   A    
C82   O23   A    
C90   O2    A    
C92   O63   A    
C10   H55   S    
C99   C106  S    
C7    H47   S    
C63   C68   A    
C36   C37   A    
C95   O7    A    
C99   H10   S    
C41   C89   S    
C94   O6    A    
C10   H57   S    
C52   O30   A    
C48   H35   S    
Cr9   O24   S    
C93   O5    A    
C10   O55   S    
Cr12  O64   S    
Cr12  O5    S    
C6    H44   S    
C42   C92   S    
Cr9   O19   S    
Cr6   O42   S    
C103  C107  S    
C53   C58   A    
C57   C61   A    
C49   C106  S    
C11   H60   S    
C101  H13   S    
Cr3   O29   S    
C6    O51   S    
C49   O27   A    
C59   C63   A    
C17   C22   A    
C30   O61   S    
C13   C17   A    
C60   C64   A    
C21   O19   A    
C8    O53   S    
C19   C24   A    
C95   O38   A    
C97   H9    S    
C79   C96   S    
C63   C86   S    
C68   O50   S    
C18   C43   S    
C71   C75   A    
C86   O42   A    
C81   O32   A    
C51   O25   A    
C66   C70   A    
C91   O3    A    
Cr9   O46   S    
C24   H24   S    
Cr12  O31   S    
Cr7   O13   S    
C100  C101  S    
Cr4   O35   S    
Cr5   O12   S    
C67   O49   S    
C13   O57   S    
C102  C106  S    
C93   O36   A    
C67   C71   A    
C42   C47   A    
Cr5   O15   S    
C37   H28   S    
C61   H4    S    
C43   O21   A    
C44   C91   S    
C55   H56   S    
C57   H67   S    
C66   C84   S    
C87   C104  S    
C97   C107  S    
Cr9   O56   S    
C56   C60   A    
Cr11  O48   S    
C96   O8    A    
C88   O43   A    
C20   C21   S    
Cr11  O26   S    
C22   C26   A    
Cr3   O7    S    
Cr4   O30   S    
C71   H5    S    
C9    H52   S    
C25   H25   S    
C7    O52   S    
C34   C82   S    
C40   C90   S    
Cr10  O47   S    
C33   C81   S    
C65   C107  S    
Cr8   O18   S    
Cr9   O10   S    
C44   C48   A    
C5    H41   S    
C91   O62   A    
