data_mof_unit_8328.cif
_audit_creation_date              2012-12-11T16:16:57-0500
_audit_creation_method            fapswitch 2.2
_symmetry_space_group_name_H-M    P1
_symmetry_Int_Tables_number       1
_space_group_crystal_system       triclinic
_cell_length_a                    13.256873
_cell_length_b                    13.256212
_cell_length_c                    28.492485
_cell_angle_alpha                 89.930438
_cell_angle_beta                  90.013741
_cell_angle_gamma                 119.964781
_cell_volume                      4337.85624108

loop_
_atom_site_label
_atom_site_type_symbol
_atom_type_description
_atom_site_fract_x
_atom_site_fract_y
_atom_site_fract_z
_atom_type_partial_charge
C1    C     C_R   0.438883 0.550242 0.316758 0.536774
C2    C     C_R   0.549719 0.440019 0.683774 0.538115
C3    C     C_3   0.314975 0.055054 0.551254 -0.254140
C4    C     C_3   0.376569 0.180276 0.569809 -0.293361
C5    C     C_3   0.291623 0.200162 0.599123 -0.417139
C6    C     C_3   0.832829 0.259318 0.955539 -0.245785
C7    C     C_3   0.899060 0.203939 0.933004 -0.291959
C8    C     C_3   0.816348 0.078912 0.917753 -0.447480
C9    C     C_3   0.732852 0.690686 0.552905 -0.250170
C10   C     C_3   0.796731 0.629437 0.571927 -0.291488
C11   C     C_3   0.885614 0.705620 0.608876 -0.434361
C12   C     C_R   0.560664 0.110290 0.816200 0.537959
C13   C     C_R   0.890263 0.450302 0.683751 0.537710
C14   C     C_1   0.068133 0.526884 0.363517 -0.020564
C15   C     C_1   0.465701 0.940801 0.138745 -0.029758
C16   C     C_1   0.472513 0.540118 0.363457 -0.038922
C17   C     C_1   0.062437 0.526536 0.138117 -0.012986
C18   C     C_1   0.460679 0.935085 0.362759 -0.034649
C19   C     C_1   0.473023 0.536023 0.137928 -0.029418
C20   C     C_1   0.524022 0.059623 0.861393 -0.025734
C21   C     C_R   0.110739 0.561009 0.183701 0.539919
C22   C     C_1   0.951712 0.466844 0.640436 -0.043679
C23   C     C_1   0.534978 0.477674 0.860811 -0.035235
C24   C     C_1   0.516186 0.050759 0.640015 -0.035276
C25   C     C_1   0.940675 0.463786 0.861143 -0.036726
C26   C     C_1   0.532875 0.485158 0.640580 -0.043497
C27   C     C_R   0.985862 0.380835 0.476935 0.010945
C28   C     C_R   0.466218 0.079094 0.029181 0.012180
C29   C     C_R   0.615154 0.604798 0.477122 0.021233
C30   C     C_R   0.926293 0.387265 0.028780 -0.015977
C31   C     C_R   0.399262 0.019993 0.475639 0.011392
C32   C     C_R   0.449884 0.889116 0.316546 0.536291
C33   C     C_R   0.611254 0.541463 0.028075 -0.003780
C34   C     C_R   0.462819 0.087094 0.979412 -0.019465
C35   C     C_R   0.983285 0.374785 0.526950 0.004495
C36   C     C_R   0.623707 0.546261 0.978341 -0.004261
C37   C     C_R   0.395366 0.022351 0.525663 -0.008589
C38   C     C_R   0.917475 0.374790 0.979068 -0.000030
C39   C     C_R   0.620470 0.609468 0.527080 -0.004710
C40   C     C_R   0.089500 0.587547 0.531188 0.094675
C41   C     C_R   0.499306 0.923609 0.971341 0.141706
C42   C     C_R   0.407310 0.494079 0.531238 0.143421
C43   C     C_R   0.438989 0.549789 0.183658 0.540871
C44   C     C_R   0.080289 0.575281 0.970376 0.119098
C45   C     C_R   0.508631 0.922862 0.530350 0.138021
C46   C     C_R   0.422515 0.506799 0.970006 0.139345
C47   C     C_R   0.499749 0.913385 0.020071 0.091311
C48   C     C_R   0.096612 0.593621 0.482215 0.136055
C49   C     C_R   0.411671 0.506274 0.018598 0.145903
C50   C     C_R   0.507464 0.914762 0.481447 0.092085
C51   C     C_R   0.091434 0.585807 0.019068 0.148773
C52   C     C_R   0.401981 0.492473 0.482210 0.125554
C53   C     C_R   0.039847 0.491811 0.455091 0.040927
C54   C     C_R   0.111435 0.561014 0.316781 0.534782
C55   C     C_R   0.483379 0.990571 0.048808 0.007072
C56   C     C_R   0.504792 0.543345 0.455128 0.010469
C57   C     C_R   0.014888 0.493086 0.047984 0.032754
C58   C     C_R   0.458398 0.967956 0.454018 0.009637
C59   C     C_R   0.504900 0.522487 0.047552 0.001958
C60   C     C_R   0.483380 0.010931 0.951252 0.039311
C61   C     C_R   0.026409 0.478810 0.553366 0.004483
C62   C     C_R   0.526461 0.523309 0.949998 0.000470
C63   C     C_R   0.457887 0.981088 0.552257 0.043249
C64   C     C_R   0.992268 0.471590 0.950567 0.023236
C65   C     C_R   0.450521 0.889918 0.183891 0.540337
C66   C     C_R   0.516733 0.545891 0.553561 0.003551
C67   C     C_1   0.992248 0.474326 0.601865 -0.073596
C68   C     C_1   0.501266 0.030952 0.901637 -0.029767
C69   C     C_1   0.523965 0.517587 0.602053 -0.070910
C70   C     C_1   0.970184 0.469155 0.901189 -0.079384
C71   C     C_1   0.484687 0.012658 0.601063 -0.031357
C72   C     C_1   0.528833 0.502656 0.900676 -0.083123
C73   C     C_1   0.475426 0.969966 0.098464 -0.072280
C74   C     C_1   0.048068 0.505643 0.404680 -0.030423
C75   C     C_1   0.491550 0.528049 0.097345 -0.079487
C76   C     C_R   0.549597 0.439440 0.816105 0.541088
C77   C     C_1   0.461649 0.957611 0.403696 -0.067207
C78   C     C_1   0.035195 0.507149 0.097656 -0.036194
C79   C     C_1   0.492555 0.539661 0.404654 -0.076441
C80   C     C_3   0.924102 0.270505 0.447344 -0.241512
C81   C     C_3   0.001432 0.217410 0.435628 -0.301158
C82   C     C_3   0.058914 0.254220 0.387427 -0.420240
C83   C     C_3   0.457249 0.166374 0.061499 -0.239577
C84   C     C_3   0.331993 0.142719 0.067861 -0.292971
C85   C     C_3   0.253690 0.027762 0.093067 -0.415716
C86   C     C_3   0.726237 0.655227 0.447795 -0.233374
C87   C     C_R   0.560088 0.109951 0.683733 0.536280
C88   C     C_3   0.777487 0.785294 0.435876 -0.301313
C89   C     C_3   0.740487 0.804917 0.387522 -0.416621
C90   C     C_3   0.843786 0.290072 0.061724 -0.253028
C91   C     C_3   0.884861 0.201847 0.069893 -0.292441
C92   C     C_3   0.808339 0.109766 0.105763 -0.449709
C93   C     C_3   0.351923 0.082922 0.445795 -0.235879
C94   C     C_3   0.222369 0.007328 0.432570 -0.304801
C95   C     C_3   0.203088 0.936442 0.387899 -0.407066
C96   C     C_3   0.708937 0.555553 0.060609 -0.248340
C97   C     C_3   0.797295 0.684599 0.069022 -0.297439
C98   C     C_R   0.889636 0.450205 0.816151 0.540674
C99   C     C_3   0.899293 0.699347 0.098873 -0.447267
C100  C     C_3   0.432970 0.171926 0.955398 -0.249115
C101  C     C_3   0.309728 0.105473 0.934318 -0.290980
C102  C     C_3   0.266947 0.187919 0.919256 -0.458009
C103  C     C_3   0.950048 0.261792 0.552790 -0.244590
C104  C     C_3   0.824377 0.198340 0.570993 -0.298161
C105  C     C_3   0.807623 0.102199 0.605128 -0.428466
C106  C     C_3   0.739494 0.578553 0.954594 -0.244381
C107  C     C_3   0.792832 0.699475 0.931499 -0.290387
C108  C     C_3   0.917355 0.742256 0.915290 -0.456382
Cr1   Cr    Cr6+3 0.505050 0.756260 0.250000 1.010318
Cr2   Cr    Cr6+3 0.251210 0.494950 0.250000 1.010526
Cr3   Cr    Cr6+3 0.243740 0.748790 0.250000 1.014839
Cr4   Cr    Cr6+3 0.756260 0.505050 0.750000 1.010382
Cr5   Cr    Cr6+3 0.494950 0.251210 0.750000 1.011726
Cr6   Cr    Cr6+3 0.748790 0.243740 0.750000 1.012510
H1    H     H_    0.992197 0.231559 0.359653 0.149570
H2    H     H_    0.165875 0.017221 0.098103 0.126912
H3    H     H_    0.245948 0.745395 0.471232 0.259325
H4    H     H_    0.269140 0.412695 0.059329 0.220401
H5    H     H_    0.319908 0.558170 0.059135 0.236733
H6    H     H_    0.626209 0.912144 0.437817 0.228525
H7    H     H_    0.496424 0.785673 0.439894 0.243016
H8    H     H_    0.167987 0.759968 0.028664 0.233647
H9    H     H_    0.261037 0.707707 0.026676 0.265069
H10   H     H_    0.284007 0.369574 0.438776 0.225763
H11   H     H_    0.282440 0.497087 0.439285 0.236273
H12   H     H_    0.335113 0.214616 0.089032 0.149677
H13   H     H_    0.292157 0.142593 0.033709 0.162435
H14   H     H_    0.493955 0.168613 0.096756 0.139407
H15   H     H_    0.514061 0.256260 0.048244 0.109011
H16   H     H_    0.764577 0.761648 0.359922 0.150967
H17   H     H_    0.645403 0.770997 0.386448 0.183915
H18   H     H_    0.785331 0.899730 0.379889 0.132310
H19   H     H_    0.753104 0.829902 0.462735 0.175551
H20   H     H_    0.874101 0.827856 0.436029 0.135749
H21   H     H_    0.121296 0.349019 0.386501 0.179960
H22   H     H_    0.792698 0.644134 0.467141 0.120273
H23   H     H_    0.712155 0.603509 0.415315 0.145592
H24   H     H_    0.811760 0.150920 0.140107 0.157528
H25   H     H_    0.717090 0.061923 0.093234 0.162001
H26   H     H_    0.839524 0.046733 0.110618 0.140894
H27   H     H_    0.882396 0.157572 0.036561 0.163865
H28   H     H_    0.976106 0.247827 0.082937 0.171778
H29   H     H_    0.838067 0.326103 0.096143 0.138055
H30   H     H_    0.752798 0.247139 0.048749 0.128331
H31   H     H_    0.253776 0.994098 0.358281 0.150453
H32   H     H_    0.107647 0.208038 0.379932 0.131962
H33   H     H_    0.228531 0.869447 0.393315 0.201522
H34   H     H_    0.109280 0.891253 0.378490 0.138329
H35   H     H_    0.171669 0.947622 0.461545 0.149754
H36   H     H_    0.186069 0.065892 0.426521 0.140175
H37   H     H_    0.363293 0.160539 0.465100 0.123691
H38   H     H_    0.405451 0.120277 0.413668 0.143177
H39   H     H_    0.959271 0.793282 0.105782 0.142078
H40   H     H_    0.867839 0.653369 0.132965 0.159025
H41   H     H_    0.948200 0.664245 0.079949 0.171610
H42   H     H_    0.832023 0.730446 0.035208 0.164310
H43   H     H_    0.069899 0.240508 0.462643 0.185527
H44   H     H_    0.753483 0.726400 0.087245 0.170731
H45   H     H_    0.673809 0.513344 0.095073 0.141135
H46   H     H_    0.751387 0.507522 0.047014 0.126081
H47   H     H_    0.260166 0.234647 0.950340 0.156188
H48   H     H_    0.327582 0.251564 0.893157 0.176448
H49   H     H_    0.179400 0.137439 0.903037 0.140148
H50   H     H_    0.308897 0.054568 0.903261 0.174776
H51   H     H_    0.247558 0.043173 0.960490 0.161896
H52   H     H_    0.438402 0.239946 0.979348 0.146103
H53   H     H_    0.497486 0.220839 0.927353 0.140886
H54   H     H_    0.946187 0.120906 0.435671 0.134668
H55   H     H_    0.831862 0.041840 0.588184 0.132042
H56   H     H_    0.862243 0.140602 0.636874 0.165008
H57   H     H_    0.715589 0.051557 0.616244 0.190641
H58   H     H_    0.803119 0.259141 0.589352 0.178156
H59   H     H_    0.762719 0.159053 0.541252 0.156981
H60   H     H_    0.963440 0.201047 0.530550 0.135887
H61   H     H_    0.011352 0.282138 0.582662 0.155944
H62   H     H_    0.973605 0.753073 0.945968 0.149615
H63   H     H_    0.919675 0.679405 0.890197 0.176954
H64   H     H_    0.952005 0.827879 0.897539 0.140580
H65   H     H_    0.845737 0.204540 0.466399 0.121186
H66   H     H_    0.740327 0.696588 0.900648 0.177606
H67   H     H_    0.793399 0.763538 0.956782 0.155195
H68   H     H_    0.804488 0.579423 0.979063 0.145677
H69   H     H_    0.725934 0.512044 0.927798 0.145133
H70   H     H_    0.217669 0.189370 0.577116 0.160473
H71   H     H_    0.257606 0.137772 0.628923 0.150694
H72   H     H_    0.336272 0.289107 0.613748 0.180056
H73   H     H_    0.452235 0.197527 0.592008 0.173790
H74   H     H_    0.408943 0.243146 0.540169 0.165918
H75   H     H_    0.241718 0.042504 0.528697 0.137322
H76   H     H_    0.887903 0.286340 0.414785 0.140803
H77   H     H_    0.273225 0.993267 0.580941 0.151464
H78   H     H_    0.771669 0.024458 0.948907 0.150351
H79   H     H_    0.750712 0.075831 0.892702 0.188857
H80   H     H_    0.866382 0.042832 0.900322 0.138735
H81   H     H_    0.948372 0.254929 0.901800 0.177239
H82   H     H_    0.962597 0.203748 0.958424 0.163220
H83   H     H_    0.767767 0.195475 0.980066 0.145664
H84   H     H_    0.780975 0.273713 0.928435 0.142174
H85   H     H_    0.951281 0.790051 0.593245 0.133177
H86   H     H_    0.841579 0.722047 0.638625 0.167583
H87   H     H_    0.244340 0.953292 0.071929 0.170454
H88   H     H_    0.930685 0.660963 0.622894 0.166551
H89   H     H_    0.735322 0.544258 0.588053 0.178786
H90   H     H_    0.842482 0.612839 0.542915 0.153770
H91   H     H_    0.793827 0.764610 0.530604 0.129885
H92   H     H_    0.711049 0.731885 0.582230 0.151262
H93   H     H_    0.205768 0.685752 0.581224 0.239096
H94   H     H_    0.088202 0.703688 0.577125 0.227456
H95   H     H_    0.445380 0.760036 0.949020 0.259663
H96   H     H_    0.591418 0.846858 0.950602 0.238809
H97   H     H_    0.254075 0.483482 0.547684 0.251633
H98   H     H_    0.290220 0.026914 0.128047 0.162418
H99   H     H_    0.314252 0.456626 0.593309 0.215937
H100  H     H_    0.203854 0.641049 0.919683 0.246268
H101  H     H_    0.114072 0.697453 0.920285 0.224429
H102  H     H_    0.647158 0.904378 0.546836 0.236080
H103  H     H_    0.516558 0.781569 0.551831 0.253831
H104  H     H_    0.356196 0.563864 0.919200 0.223126
H105  H     H_    0.299807 0.418276 0.920202 0.220914
H106  H     H_    0.593857 0.864204 0.060485 0.229607
H107  H     H_    0.448366 0.770971 0.061563 0.237679
H108  H     H_    0.123094 0.754758 0.469931 0.239360
N1    N     N_3   0.149069 0.693238 0.557828 -0.651910
N2    N     N_3   0.559584 0.854034 0.459998 -0.655699
N3    N     N_3   0.180742 0.691877 0.039658 -0.627216
N4    N     N_3   0.289660 0.436148 0.460215 -0.623162
N5    N     N_3   0.513502 0.843948 0.941766 -0.622925
N6    N     N_3   0.299683 0.441239 0.557369 -0.620167
N7    N     N_3   0.160638 0.670648 0.941472 -0.641828
N8    N     N_3   0.561325 0.871233 0.558172 -0.635148
N9    N     N_3   0.326786 0.491612 0.941311 -0.594564
N10   N     N_3   0.518641 0.824378 0.039884 -0.644767
N11   N     N_3   0.159793 0.704630 0.459486 -0.631734
N12   N     N_3   0.303533 0.487015 0.038130 -0.583027
O1    O     O_R   0.530190 0.870330 0.301660 -0.513567
O2    O     O_R   0.870330 0.530190 0.698340 -0.517595
O3    O     O_R   0.469810 0.340140 0.801660 -0.513562
O4    O     O_R   0.659860 0.129670 0.698340 -0.513439
O5    O     O_R   0.494300 0.651190 0.297490 -0.495962
O6    O     O_R   0.156890 0.505700 0.202510 -0.493761
O7    O     O_R   0.348810 0.843110 0.297490 -0.494915
O8    O     O_R   0.494300 0.651190 0.202510 -0.490821
O9    O     O_R   0.156890 0.505700 0.297490 -0.499779
O10   O     O_R   0.348810 0.843110 0.202510 -0.490372
O11   O     O_R   0.651190 0.494300 0.797490 -0.490931
O12   O     O_R   0.340140 0.469810 0.198340 -0.510170
O13   O     O_R   0.505700 0.156890 0.702510 -0.492650
O14   O     O_R   0.843110 0.348810 0.797490 -0.492072
O15   O     O_R   0.651190 0.494300 0.702510 -0.491273
O16   O     O_R   0.505700 0.156890 0.797490 -0.493115
O17   O     O_R   0.843110 0.348810 0.702510 -0.491894
O18   O     O_3   0.333333 0.666667 0.250000 -0.232896
O19   O     O_3   0.666667 0.333333 0.750000 -0.234669
O20   O     O_R   0.129670 0.659860 0.301660 -0.506445
O21   O     O_R   0.530190 0.870330 0.198340 -0.511623
O22   O     O_R   0.340140 0.469810 0.301660 -0.511822
O23   O     O_R   0.129670 0.659860 0.198340 -0.506710
O24   O     O_R   0.870330 0.530190 0.801660 -0.513178
O25   O     O_R   0.469810 0.340140 0.698340 -0.514926
O26   O     O_R   0.659860 0.129670 0.801660 -0.510230

loop_
_geom_bond_atom_site_label_1
_geom_bond_atom_site_label_2
_ccdc_geom_bond_type
C41   N5    S    
H108  N11   S    
H93   N1    S    
C93   C94   S    
C107  H66   S    
H96   N5    S    
Cr3   O23   S    
C53   C74   S    
C95   H31   S    
C5    H71   S    
C23   C76   S    
C30   C90   S    
C92   H24   S    
C81   C82   S    
Cr4   O19   S    
C7    C8    S    
Cr1   O18   S    
C44   C64   A    
C94   H35   S    
C46   C49   A    
C50   N2    S    
Cr3   O10   S    
C56   C79   S    
C105  H55   S    
C13   C22   S    
C107  H67   S    
C100  H53   S    
C14   C74   T    
C4    H73   S    
C46   C62   A    
C8    H78   S    
C82   H1    S    
C83   H15   S    
C35   C103  S    
C9    H92   S    
C3    H75   S    
C32   O7    A    
Cr2   O6    S    
C66   C69   S    
C106  C107  S    
C43   O12   A    
C15   C65   S    
C30   C57   A    
C65   O21   A    
C9    C39   S    
C33   C36   A    
C12   O16   A    
C30   C38   A    
C100  H52   S    
C46   N9    S    
C97   H42   S    
C82   H21   S    
C61   C67   S    
C11   H86   S    
C106  H68   S    
C86   H23   S    
Cr4   O24   S    
C52   C56   A    
Cr2   O9    S    
C81   H54   S    
Cr6   O14   S    
C76   O11   A    
Cr2   O22   S    
C102  H49   S    
C99   H41   S    
C51   N3    S    
C34   C100  S    
C107  C108  S    
C6    C38   S    
C8    H80   S    
C51   C57   A    
C64   C70   S    
C9    C10   S    
C83   H14   S    
C5    H70   S    
C90   H29   S    
C58   C77   S    
C1    O22   A    
C85   H87   S    
Cr6   O4    S    
C91   H28   S    
Cr2   O12   S    
C84   H13   S    
Cr5   O3    S    
C2    O25   A    
C81   H43   S    
C28   C34   A    
C33   C59   A    
C87   O4    A    
C28   C83   S    
C34   C60   A    
C54   O20   A    
C12   C20   S    
C48   C53   A    
C5    H72   S    
C36   C62   A    
C23   C72   T    
C31   C93   S    
C104  C105  S    
C37   C63   A    
C28   C55   A    
C19   C43   S    
C38   C64   A    
Cr1   O5    S    
C43   O8    A    
C84   H12   S    
Cr4   O11   S    
C13   O17   A    
C65   O10   A    
Cr5   O19   S    
C105  H56   S    
H106  N10   S    
C40   N1    S    
C36   C106  S    
C50   C58   A    
C101  C102  S    
Cr4   O15   S    
Cr3   O7    S    
C95   H33   S    
C84   C85   S    
C35   C61   A    
C27   C80   S    
C97   C99   S    
C2    O15   A    
C91   C92   S    
C6    H84   S    
C80   C81   S    
C99   H40   S    
Cr2   O18   S    
Cr3   O18   S    
Cr5   O13   S    
H8    N3    S    
C45   C63   A    
C103  H60   S    
C17   C21   S    
C89   H16   S    
C31   C37   A    
C76   O3    A    
H94   N1    S    
C11   H88   S    
C44   N7    S    
C80   H65   S    
C98   O14   A    
C49   N12   S    
C3    H77   S    
H103  N8    S    
C21   O6    A    
H4    N12   S    
H5    N12   S    
H102  N8    S    
C83   C84   S    
C9    H91   S    
H3    N11   S    
C25   C70   T    
C102  H48   S    
C96   C97   S    
C29   C39   A    
C103  H61   S    
C41   C47   A    
C108  H64   S    
C8    H79   S    
C2    C26   S    
C1    C16   S    
C101  H51   S    
C89   H18   S    
C3    C37   S    
C29   C86   S    
C6    C7    S    
C13   O2    A    
Cr1   O1    S    
C44   C51   A    
C52   N4    S    
C96   H46   S    
C63   C71   S    
H97   N6    S    
C22   C67   T    
C39   C66   A    
C93   H37   S    
C18   C32   S    
C45   N8    S    
C82   H32   S    
C7    H81   S    
C3    C4    S    
C92   H26   S    
C33   C96   S    
C59   C75   S    
Cr1   O8    S    
C24   C71   T    
C31   C58   A    
C47   C55   A    
C10   H89   S    
C86   H22   S    
C40   C48   A    
Cr6   O19   S    
C105  H57   S    
C21   O23   A    
C15   C73   T    
H101  N7    S    
C80   H76   S    
C57   C78   S    
C20   C68   T    
C85   H2    S    
C95   H34   S    
C48   N11   S    
C41   C60   A    
H105  N9    S    
C4    C5    S    
C89   H17   S    
C88   H19   S    
C6    H83   S    
H10   N4    S    
C27   C53   A    
C87   O13   A    
C104  H59   S    
H9    N3    S    
C29   C56   A    
C42   N6    S    
C101  H50   S    
Cr5   O25   S    
C49   C59   A    
C104  H58   S    
C62   C72   S    
C14   C54   S    
C27   C35   A    
C97   H44   S    
C4    H74   S    
C19   C75   T    
C88   H20   S    
H99   N6    S    
Cr4   O2    S    
C54   O9    A    
C92   H25   S    
C98   O24   A    
C90   C91   S    
Cr6   O26   S    
C45   C50   A    
Cr3   O20   S    
C18   C77   T    
Cr6   O17   S    
C99   H39   S    
H107  N10   S    
C17   C78   T    
H7    N2    S    
Cr1   O21   S    
C108  H63   S    
C86   C88   S    
C85   H98   S    
C47   N10   S    
C94   C95   S    
C24   C87   S    
C11   H85   S    
C106  H69   S    
C16   C79   T    
C10   C11   S    
C40   C61   A    
C55   C73   S    
C12   O26   A    
C94   H36   S    
C96   H45   S    
C88   C89   S    
C60   C68   S    
H6    N2    S    
C108  H62   S    
C25   C98   S    
C103  C104  S    
C42   C66   A    
C26   C69   T    
C102  H47   S    
C93   H38   S    
C100  C101  S    
H104  N9    S    
H95   N5    S    
C7    H82   S    
H100  N7    S    
C10   H90   S    
C1    O5    A    
C90   H30   S    
H11   N4    S    
Cr5   O16   S    
C42   C52   A    
C91   H27   S    
C32   O1    A    
