data_mof_unit_10941.cif
_audit_creation_date              2012-12-10T19:44:57-0500
_audit_creation_method            fapswitch 2.2
_symmetry_space_group_name_H-M    P1
_symmetry_Int_Tables_number       1
_space_group_crystal_system       triclinic
_cell_length_a                    15.058204
_cell_length_b                    10.788376
_cell_length_c                    13.748911
_cell_angle_alpha                 90.268272
_cell_angle_beta                  88.833544
_cell_angle_gamma                 88.768301
_cell_volume                      2232.55151854

loop_
_atom_site_label
_atom_site_type_symbol
_atom_type_description
_atom_site_fract_x
_atom_site_fract_y
_atom_site_fract_z
_atom_type_partial_charge
C1    C     C_R   0.499200 0.262349 0.499787 0.796939
C2    C     C_R   0.500800 0.737651 0.500213 0.796933
C3    C     C_R   0.049731 0.382110 0.648659 -0.277082
C4    C     C_R   0.950252 0.618129 0.351442 -0.277092
C5    C     C_R   0.262415 0.259842 0.331958 -0.178359
C6    C     C_R   0.737578 0.740160 0.668061 -0.178356
C7    C     C_R   0.314883 0.188826 0.393591 -0.226250
C8    C     C_R   0.685113 0.811170 0.606421 -0.226228
C9    C     C_R   0.392259 0.128069 0.358399 -0.062977
C10   C     C_R   0.607737 0.871931 0.641605 -0.062973
C11   C     C_R   0.415960 0.136665 0.258075 0.400626
C12   C     C_R   0.584030 0.863345 0.741927 0.400625
C13   C     C_R   0.363282 0.209471 0.196012 0.446321
C14   C     C_R   0.636706 0.790547 0.803998 0.446316
C15   C     C_R   0.286496 0.273228 0.233537 0.059441
C16   C     C_R   0.713493 0.726785 0.766482 0.059436
C17   C     C_R   0.452246 0.934709 0.430931 -0.246767
C18   C     C_R   0.547755 0.065291 0.569067 -0.246749
C19   C     C_R   0.501983 0.871519 0.500634 -0.074592
C20   C     C_R   0.498018 0.128481 0.499364 -0.074593
C21   C     C_R   0.550426 0.936663 0.570398 0.023396
C22   C     C_R   0.449576 0.063337 0.429600 0.023407
C23   C     C_R   0.328797 0.504965 0.500816 0.815718
C24   C     C_R   0.671202 0.495040 0.499184 0.815701
C25   C     C_R   0.556554 0.423599 0.791841 -0.008538
C26   C     C_R   0.443446 0.576402 0.208159 -0.008537
C27   C     C_R   0.441913 0.578477 0.793272 0.324556
C28   C     C_R   0.558087 0.421523 0.206728 0.324566
C29   C     C_R   0.440556 0.583980 0.898218 -0.047497
C30   C     C_R   0.559444 0.416020 0.101782 -0.047487
C31   C     C_R   0.499234 0.501609 0.948003 0.043875
C32   C     C_R   0.500766 0.498391 0.051996 0.043880
C33   C     C_R   0.556792 0.421966 0.893857 -0.067743
C34   C     C_R   0.443208 0.578034 0.106143 -0.067738
C35   C     C_R   0.384638 0.665679 0.956748 0.189453
C36   C     C_R   0.615363 0.334321 0.043251 0.189453
C37   C     C_R   0.386488 0.659784 0.058235 -0.132104
C38   C     C_R   0.613513 0.340217 0.941765 -0.132103
C39   C     C_R   0.813734 0.549949 0.424909 -0.297100
C40   C     C_R   0.186256 0.450165 0.575133 -0.297092
C41   C     C_R   0.767936 0.486682 0.497642 -0.195635
C42   C     C_R   0.232062 0.513359 0.502365 -0.195616
C43   C     C_R   0.814430 0.421362 0.570497 0.364755
C44   C     C_R   0.185571 0.578685 0.429508 0.364696
C45   C     C_R   0.907772 0.430217 0.574459 0.064593
C46   C     C_R   0.092221 0.569915 0.425586 0.064606
C47   C     C_R   0.953345 0.496229 0.500012 -0.041301
C48   C     C_R   0.046648 0.503904 0.500034 -0.041287
C49   C     C_R   0.905748 0.554370 0.425081 0.099545
C50   C     C_R   0.094242 0.445782 0.574975 0.099540
C51   C     C_R   0.957378 0.373907 0.649601 0.173407
C52   C     C_R   0.042605 0.626335 0.350499 0.173401
Cu1   Cu    Cu3+1 0.500010 0.499980 0.597420 0.964336
Cu2   Cu    Cu3+1 0.499990 0.500020 0.402580 0.964334
H1    H     H_    0.777207 0.598696 0.369024 0.171324
H2    H     H_    0.222777 0.401440 0.631035 0.171334
H3    H     H_    0.413989 0.883791 0.378633 0.159802
H4    H     H_    0.586011 0.116209 0.621367 0.159817
H5    H     H_    0.601022 0.362601 0.750123 0.157859
H6    H     H_    0.398980 0.637401 0.249876 0.157851
H7    H     H_    0.343250 0.722239 0.100500 0.171351
H8    H     H_    0.656751 0.277762 0.899499 0.171354
H9    H     H_    0.086830 0.338173 0.706379 0.146619
H10   H     H_    0.913148 0.662145 0.293761 0.146618
H11   H     H_    0.203564 0.306668 0.361724 0.159550
H12   H     H_    0.796431 0.693330 0.638302 0.159548
H13   H     H_    0.296022 0.183146 0.469902 0.155781
H14   H     H_    0.703979 0.816843 0.530110 0.155774
N1    N     N_R   0.499960 0.499900 0.743810 -0.184037
N2    N     N_R   0.500040 0.500100 0.256190 -0.184039
O1    O     O_R   0.500000 0.319630 0.582270 -0.595121
O2    O     O_R   0.500000 0.680370 0.417730 -0.595131
O3    O     O_R   0.499990 0.319660 0.417730 -0.558045
O4    O     O_R   0.500010 0.680340 0.582270 -0.558047
O5    O     O_R   0.370260 0.499960 0.582280 -0.559247
O6    O     O_R   0.629740 0.500040 0.417720 -0.559241
O7    O     O_R   0.370250 0.499990 0.417740 -0.569614
O8    O     O_R   0.629750 0.500010 0.582260 -0.569624
N3    N     N_3   0.381650 0.649365 0.735745 -0.535517
H15   H     H_    0.316292 0.624525 0.751027 0.194516
H16   H     H_    0.392458 0.743964 0.742200 0.224153
N4    N     N_3   0.618348 0.350633 0.264255 -0.535517
H17   H     H_    0.683707 0.375472 0.248974 0.194521
H18   H     H_    0.607540 0.256033 0.257800 0.224159
N5    N     N_3   0.326958 0.760186 0.918998 -0.593430
H19   H     H_    0.363361 0.825653 0.880544 0.273382
H20   H     H_    0.275705 0.722156 0.879662 0.206654
N6    N     N_3   0.673046 0.239817 0.081001 -0.593433
H21   H     H_    0.724298 0.277850 0.120338 0.206655
H22   H     H_    0.636644 0.174348 0.119456 0.273374
O9    O     O_3   0.770274 0.347354 0.636584 -0.707930
H23   H     H_    0.718594 0.310770 0.604490 0.310267
O10   O     O_3   0.229745 0.652598 0.363370 -0.707941
H24   H     H_    0.281425 0.689207 0.395445 0.310285
N7    N     N_3   0.915048 0.309537 0.728227 -0.505271
H25   H     H_    0.940535 0.218624 0.729075 0.221356
H26   H     H_    0.931834 0.352581 0.793430 0.211399
N8    N     N_3   0.084917 0.690897 0.271964 -0.505239
H27   H     H_    0.068084 0.648058 0.206692 0.211458
H28   H     H_    0.059457 0.781830 0.271291 0.221304
N9    N     N_3   0.233879 0.351691 0.171970 -0.598622
H29   H     H_    0.176558 0.383791 0.209171 0.236950
H30   H     H_    0.271193 0.429986 0.156218 0.230300
N10   N     N_3   0.766106 0.648328 0.828058 -0.598632
H31   H     H_    0.823425 0.616216 0.790859 0.236929
H32   H     H_    0.728789 0.570039 0.843818 0.230282
O11   O     O_3   0.490571 0.078158 0.217494 -0.708476
H33   H     H_    0.525115 0.035857 0.268378 0.320151
O12   O     O_3   0.509417 0.921854 0.782500 -0.708476
H34   H     H_    0.474866 0.964128 0.731608 0.320149
O13   O     O_3   0.390024 0.216551 0.099399 -0.683323
H35   H     H_    0.347101 0.267953 0.062859 0.336193
O14   O     O_3   0.609959 0.783478 0.900611 -0.683322
H36   H     H_    0.652880 0.732080 0.937156 0.336193

loop_
_geom_bond_atom_site_label_1
_geom_bond_atom_site_label_2
_ccdc_geom_bond_type
O10   H24   S    
C27   C29   A    
C18   C21   A    
C11   C13   A    
N6    H22   S    
Cu1   O4    S    
Cu1   N1    S    
N10   H32   S    
C39   C41   A    
Cu1   Cu2   S    
C36   N6    S    
C1    O1    A    
C23   C42   S    
C4    C52   A    
C35   C37   A    
C27   N3    S    
C9    C22   S    
C45   C51   A    
C34   C37   A    
C46   C52   A    
C52   N8    S    
C12   O12   S    
C44   O10   S    
C16   N10   S    
C39   H1    S    
N7    H25   S    
C44   C46   A    
C40   H2    S    
O11   H33   S    
C31   C33   A    
C27   N1    A    
Cu2   O7    S    
C48   C50   A    
N9    H30   S    
C26   C34   A    
C24   C41   S    
C41   C43   A    
Cu1   O5    S    
C42   C44   A    
C2    O2    A    
N10   H31   S    
C3    C50   A    
C18   H4    S    
C45   C47   A    
C10   C21   S    
C46   C48   A    
N5    H20   S    
C28   N4    S    
N9    H29   S    
C5    H11   S    
C23   O5    A    
O9    H23   S    
N3    H16   S    
C3    C51   A    
C24   O6    A    
C6    C8    A    
C15   N9    S    
N5    H19   S    
C7    H13   S    
N4    H17   S    
C43   O9    S    
C32   C34   A    
Cu2   O3    S    
C43   C45   A    
C47   C48   A    
Cu2   N2    S    
C29   C31   A    
C23   O7    A    
C9    C11   A    
C10   C12   A    
Cu2   O6    S    
C24   O8    A    
C39   C49   A    
C20   C22   A    
C8    H14   S    
N8    H28   S    
C13   C15   A    
C11   O11   S    
C26   N2    A    
C14   C16   A    
C25   N1    A    
Cu1   O1    S    
C5    C7    A    
O14   H36   S    
C7    C9    A    
C4    H10   S    
C1    C20   S    
O13   H35   S    
C19   C21   A    
C2    C19   S    
C31   C32   A    
C28   N2    A    
C33   C38   A    
C12   C14   A    
C2    O4    A    
C37   H7    S    
N7    H26   S    
C3    H9    S    
C47   C49   A    
C14   O14   S    
C29   C35   A    
N4    H18   S    
C17   C22   A    
C30   C36   A    
C4    C49   A    
C1    O3    A    
C36   C38   A    
Cu1   O8    S    
C28   C30   A    
C13   O13   S    
O12   H34   S    
C30   C32   A    
C35   N5    S    
C40   C50   A    
C40   C42   A    
C17   C19   A    
C18   C20   A    
C5    C15   A    
C6    C16   A    
N3    H15   S    
C6    H12   S    
Cu2   O2    S    
N6    H21   S    
C8    C10   A    
N8    H27   S    
C51   N7    S    
C25   H5    S    
C17   H3    S    
C26   H6    S    
C25   C33   A    
C38   H8    S    
