data_mof_unit_23382.cif
_audit_creation_date              2012-12-10T18:55:21-0500
_audit_creation_method            fapswitch 2.2
_symmetry_space_group_name_H-M    P1
_symmetry_Int_Tables_number       1
_space_group_crystal_system       triclinic
_cell_length_a                    10.712631
_cell_length_b                    9.818409
_cell_length_c                    27.684124
_cell_angle_alpha                 89.999811
_cell_angle_beta                  90.051758
_cell_angle_gamma                 90.0
_cell_volume                      2911.84245415

loop_
_atom_site_label
_atom_site_type_symbol
_atom_type_description
_atom_site_fract_x
_atom_site_fract_y
_atom_site_fract_z
_atom_type_partial_charge
C1    C     C_R   0.259801 0.500007 0.500020 0.866359
C2    C     C_R   0.396071 0.555703 0.872128 -0.004762
C3    C     C_R   0.479330 0.502224 0.353467 -0.130741
C4    C     C_R   0.520671 0.502223 0.646532 -0.130742
C5    C     C_R   0.386707 0.585289 0.973581 0.088052
C6    C     C_R   0.613299 0.585288 0.026418 0.088052
C7    C     C_R   0.616812 0.601170 0.975529 -0.000858
C8    C     C_R   0.383194 0.601172 0.024470 -0.000859
C9    C     C_R   0.503451 0.588470 0.949325 -0.011643
C10   C     C_R   0.496554 0.588471 0.050675 -0.011643
C11   C     C_R   0.278153 0.556882 0.946344 -0.131285
C12   C     C_R   0.740199 0.500007 0.499980 0.866359
C13   C     C_R   0.721853 0.556882 0.053655 -0.131286
C14   C     C_R   0.282426 0.545631 0.896464 -0.169427
C15   C     C_R   0.717579 0.545631 0.103536 -0.169428
C16   C     C_R   0.493503 0.500207 0.406091 0.924453
C17   C     C_R   0.506497 0.500206 0.593909 0.924453
C18   C     C_R   0.270886 0.626431 0.050392 0.418396
C19   C     C_R   0.729120 0.626427 0.949607 0.418396
C20   C     C_R   0.063867 0.375746 0.499992 -0.181323
C21   C     C_R   0.936140 0.624243 0.499806 -0.212160
C22   C     C_R   0.936133 0.375746 0.500011 -0.181324
C23   C     C_R   0.493022 0.575529 0.101523 -0.058502
C24   C     C_R   0.063860 0.624243 0.500191 -0.212160
C25   C     C_R   0.872605 0.500008 0.499920 0.001584
C26   C     C_R   0.127395 0.500008 0.500081 0.001584
C27   C     C_R   0.586037 0.072029 0.526395 -0.044983
C28   C     C_R   0.413876 0.927996 0.473646 -0.069958
C29   C     C_R   0.413963 0.072030 0.473605 -0.044983
C30   C     C_R   0.586124 0.927995 0.526354 -0.069958
C31   C     C_R   0.375978 0.557155 0.175927 0.538943
C32   C     C_R   0.624027 0.557151 0.824072 0.538943
C33   C     C_R   0.598272 0.543164 0.178153 0.520832
C34   C     C_R   0.506983 0.575527 0.898476 -0.058502
C35   C     C_R   0.401733 0.543162 0.821846 0.520832
C36   C     C_R   0.541886 0.416438 0.274964 -0.217811
C37   C     C_R   0.458116 0.416436 0.725036 -0.217810
C38   C     C_R   0.545126 0.406085 0.325411 0.395837
C39   C     C_R   0.454875 0.406084 0.674589 0.395836
C40   C     C_R   0.405093 0.603514 0.330532 0.003263
C41   C     C_R   0.594909 0.603511 0.669468 0.003263
C42   C     C_R   0.415241 0.619639 0.280641 -0.127845
C43   C     C_R   0.584763 0.619635 0.719358 -0.127846
C44   C     C_R   0.481079 0.525716 0.252680 0.224136
C45   C     C_R   0.378404 0.579708 0.126031 -0.064734
C46   C     C_R   0.518925 0.525713 0.747320 0.224136
C47   C     C_3   0.311530 0.693427 0.356976 -0.428196
C48   C     C_3   0.177935 0.670920 0.338260 -0.320563
C49   C     C_3   0.084411 0.759161 0.365637 -0.867262
C50   C     C_3   0.688473 0.693423 0.643023 -0.428198
C51   C     C_3   0.822069 0.670911 0.661738 -0.320565
C52   C     C_3   0.915593 0.759152 0.634361 -0.867259
C53   C     C_R   0.621602 0.579704 0.873969 -0.064734
C54   C     C_R   0.269083 0.609380 0.100633 -0.244625
C55   C     C_R   0.730922 0.609376 0.899366 -0.244625
C56   C     C_R   0.603934 0.555705 0.127872 -0.004762
H1    H     H_    0.654720 0.126745 0.547491 0.123108
H2    H     H_    0.590014 0.341922 0.252944 0.161769
H3    H     H_    0.196437 0.524863 0.877183 0.194477
H4    H     H_    0.803568 0.524863 0.122817 0.194477
H5    H     H_    0.189310 0.535139 0.962876 0.203613
H6    H     H_    0.810695 0.535138 0.037124 0.203614
H7    H     H_    0.112345 0.278879 0.499943 0.157222
H8    H     H_    0.887669 0.721115 0.499659 0.158704
H9    H     H_    0.887655 0.278879 0.500062 0.157221
H10   H     H_    0.112331 0.721115 0.500336 0.158703
H11   H     H_    0.085781 0.733809 0.404685 0.259684
H12   H     H_    0.344962 0.873387 0.452657 0.117924
H13   H     H_    0.107221 0.868723 0.360926 0.260452
H14   H     H_    0.988930 0.740475 0.351471 0.270547
H15   H     H_    0.171397 0.696663 0.299278 0.251832
H16   H     H_    0.151899 0.562050 0.342873 0.238550
H17   H     H_    0.308487 0.672377 0.396147 0.220787
H18   H     H_    0.338607 0.801876 0.352105 0.209650
H19   H     H_    0.914221 0.733802 0.595313 0.259685
H20   H     H_    0.892786 0.868714 0.639073 0.260452
H21   H     H_    0.011075 0.740462 0.648526 0.270547
H22   H     H_    0.828608 0.696652 0.700721 0.251834
H23   H     H_    0.345280 0.126746 0.452509 0.123109
H24   H     H_    0.848102 0.562041 0.657124 0.238549
H25   H     H_    0.691514 0.672376 0.603853 0.220788
H26   H     H_    0.661400 0.801873 0.647895 0.209649
H27   H     H_    0.345286 0.247733 0.676954 0.336493
H28   H     H_    0.654714 0.247733 0.323047 0.336492
H29   H     H_    0.097859 0.690095 0.050433 0.347036
H30   H     H_    0.902147 0.690090 0.949566 0.347036
H31   H     H_    0.655038 0.873386 0.547342 0.117924
H32   H     H_    0.368569 0.704064 0.263061 0.165614
H33   H     H_    0.631436 0.704060 0.736938 0.165615
H34   H     H_    0.182042 0.622854 0.119965 0.189600
H35   H     H_    0.817964 0.622849 0.880034 0.189600
H36   H     H_    0.409988 0.341919 0.747056 0.161770
N1    N     N_R   0.485165 0.541386 0.201159 -0.338361
N2    N     N_R   0.514839 0.541383 0.798841 -0.338361
N3    N     N_R   0.500000 0.857200 0.500000 -0.078655
N4    N     N_R   0.500000 0.142800 0.500000 -0.078900
O1    O     O_R   0.316770 0.614620 0.500000 -0.638863
O2    O     O_2   0.734865 0.549276 0.801058 -0.571004
O3    O     O_2   0.294926 0.534063 0.796125 -0.558334
O4    O     O_2   0.705078 0.534065 0.203875 -0.558334
O5    O     O_3   0.385847 0.305391 0.652090 -0.746561
O6    O     O_3   0.614152 0.305391 0.347910 -0.746560
O7    O     O_3   0.166866 0.677543 0.026988 -0.775230
O8    O     O_3   0.833141 0.677538 0.973011 -0.775231
O9    O     O_R   0.683230 0.385380 0.500000 -0.629244
O10   O     O_R   0.683230 0.614620 0.500000 -0.638864
O11   O     O_R   0.316770 0.385380 0.500000 -0.629244
O12   O     O_R   0.500030 0.614650 0.428760 -0.635800
O13   O     O_R   0.499970 0.385350 0.571240 -0.561324
O14   O     O_R   0.499970 0.614650 0.571240 -0.635798
O15   O     O_R   0.500030 0.385350 0.428760 -0.561323
O16   O     O_2   0.265139 0.549282 0.198941 -0.571005
Zn1   Zn    Zn3+2 0.500000 0.653120 0.500000 0.943708
Zn2   Zn    Zn3+2 0.500000 0.346880 0.500000 0.998816

loop_
_geom_bond_atom_site_label_1
_geom_bond_atom_site_label_2
_ccdc_geom_bond_type
C2    C35   A    
C40   C47   S    
C32   N2    A    
C23   C45   A    
H28   O6    S    
C15   H4    S    
C32   C53   A    
C52   H19   S    
H30   O8    S    
C17   O14   A    
C23   C56   A    
C22   H9    S    
C14   H3    S    
C43   H33   S    
C28   N3    A    
C28   C29   A    
C28   H12   S    
C24   C26   A    
C54   H34   S    
C36   H2    S    
C12   O9    A    
C11   C14   A    
C4    C41   A    
C51   H24   S    
C21   H8    S    
C55   H35   S    
C44   N1    S    
C13   H6    S    
C3    C38   A    
C22   C25   A    
C46   N2    S    
C31   O16   S    
C49   H11   S    
H29   O7    S    
C24   H10   S    
C2    C34   A    
C33   C56   A    
C40   C42   A    
C49   H13   S    
C27   C30   A    
C41   C43   A    
N4    Zn2   S    
C27   N4    A    
C42   C44   A    
C48   H16   S    
C35   O3    S    
C39   O5    S    
C53   C55   A    
C37   C39   A    
O10   Zn1   S    
C51   C52   S    
O9    Zn2   S    
C47   H17   S    
C27   H1    S    
C1    O1    A    
C18   C54   A    
C52   H20   S    
C31   N1    A    
C8    C18   A    
C33   N1    A    
O12   Zn1   S    
O11   Zn2   S    
C5    C9    A    
C30   N3    A    
C29   N4    A    
C19   O8    S    
C47   C48   S    
C29   H23   S    
C4    C39   A    
C50   C51   S    
O14   Zn1   S    
O13   Zn2   S    
C1    O11   A    
C4    C17   S    
C48   C49   S    
C20   C22   A    
C45   C54   A    
C7    C19   A    
C49   H14   S    
C13   C15   A    
C1    C26   S    
C36   C44   A    
C42   H32   S    
C48   H15   S    
O1    Zn1   S    
C52   H21   S    
C41   C50   S    
C50   H26   S    
C35   N2    A    
C19   C55   A    
C7    C9    A    
C21   C25   A    
H27   O5    S    
C37   H36   S    
C47   H18   S    
C11   H5    S    
C17   O13   A    
C3    C40   A    
C5    C8    A    
C5    C11   A    
C6    C7    A    
C10   C23   A    
C12   C25   S    
C33   O4    S    
C15   C56   A    
C20   H7    S    
C36   C38   A    
C37   C46   A    
C51   H22   S    
C38   O6    S    
C6    C13   A    
C12   O10   A    
C9    C34   A    
C20   C26   A    
N3    Zn1   S    
C32   O2    S    
O15   Zn2   S    
C18   O7    S    
C2    C14   A    
C43   C46   A    
C6    C10   A    
C16   O12   A    
C16   O15   A    
C34   C53   A    
C8    C10   A    
C31   C45   A    
C21   C24   A    
C30   H31   S    
C3    C16   S    
C50   H25   S    
