data_mof_unit_47208.cif
_audit_creation_date              2012-12-11T14:33:58-0500
_audit_creation_method            fapswitch 2.2
_symmetry_space_group_name_H-M    P1
_symmetry_Int_Tables_number       1
_space_group_crystal_system       triclinic
_cell_length_a                    13.835839
_cell_length_b                    13.979266
_cell_length_c                    27.343386
_cell_angle_alpha                 89.756189
_cell_angle_beta                  90.324685
_cell_angle_gamma                 119.693194
_cell_volume                      4594.09094603

loop_
_atom_site_label
_atom_site_type_symbol
_atom_type_description
_atom_site_fract_x
_atom_site_fract_y
_atom_site_fract_z
_atom_type_partial_charge
C1    C     C_R   0.234001 0.787067 0.568854 0.539905
C2    C     C_1   0.706739 0.862682 0.860129 -0.078930
C3    C     C_1   0.113546 0.881016 0.852487 -0.078378
C4    C     C_1   0.113869 0.230741 0.852220 -0.078847
C5    C     C_1   0.628852 0.814109 0.659069 -0.075912
C6    C     C_1   0.177464 0.818899 0.656442 -0.076183
C7    C     C_1   0.178848 0.358075 0.656385 -0.076305
C8    C     C_1   0.601205 0.795810 0.616784 -0.017648
C9    C     C_1   0.199407 0.805956 0.615314 -0.018204
C10   C     C_1   0.193241 0.393005 0.615242 -0.018106
C11   C     C_R   0.068090 0.154012 0.096733 0.577079
C12   C     C_R   0.212635 0.446422 0.568815 0.542103
C13   C     C_R   0.777380 0.884184 0.088463 0.543903
C14   C     C_R   0.117260 0.892486 0.087586 0.559121
C15   C     C_R   0.069052 0.160330 0.943253 0.542291
C16   C     C_R   0.779536 0.887144 0.950759 0.540022
C17   C     C_R   0.090622 0.929616 0.943261 0.537987
C18   C     C_R   0.612803 0.894303 0.361452 -0.132435
C19   C     C_R   0.098863 0.728073 0.362154 -0.133889
C20   C     C_R   0.263739 0.354480 0.366840 -0.134414
C21   C     C_R   0.640851 0.911623 0.312203 0.012097
C22   C     C_R   0.083321 0.737558 0.312247 0.014193
C23   C     C_R   0.552805 0.765166 0.569049 0.539166
C24   C     C_R   0.242986 0.304848 0.320900 0.013487
C25   C     C_R   0.675166 0.928206 0.210297 0.030229
C26   C     C_R   0.066327 0.748971 0.209704 0.033664
C27   C     C_R   0.212137 0.237354 0.222281 0.036969
C28   C     C_R   0.232317 0.788197 0.431753 0.547484
C29   C     C_R   0.211002 0.443512 0.431951 0.550679
C30   C     C_R   0.555607 0.767520 0.431999 0.548616
C31   C     C_R   0.638288 0.993377 0.234299 -0.139490
C32   C     C_R   0.986450 0.657166 0.236285 -0.133578
C33   C     C_R   0.311155 0.262304 0.247747 -0.121936
C34   C     C_3   0.658304 0.734048 0.790593 -0.212435
C35   C     C_R   0.621647 0.985229 0.284690 -0.139155
C36   C     C_R   0.995289 0.651497 0.286922 -0.137656
C37   C     C_R   0.326609 0.296742 0.296244 -0.136148
C38   C     C_R   0.691379 0.933586 0.158934 -0.025218
C39   C     C_R   0.059420 0.757276 0.158241 -0.014570
C40   C     C_R   0.200481 0.220172 0.170896 -0.009945
C41   C     C_R   0.731671 0.867751 0.137899 0.009925
C42   C     C_R   0.138067 0.856066 0.134877 0.006748
C43   C     C_R   0.093400 0.182837 0.148997 0.002986
C44   C     C_R   0.669496 0.755371 0.366097 -0.133120
C45   C     C_3   0.244382 0.953803 0.783197 -0.211964
C46   C     C_R   0.262350 0.910509 0.361825 -0.130144
C47   C     C_R   0.074496 0.322301 0.369473 -0.131771
C48   C     C_R   0.698598 0.772216 0.317041 0.015396
C49   C     C_R   0.250553 0.919358 0.311945 0.015948
C50   C     C_R   0.052589 0.272239 0.323639 0.013314
C51   C     C_R   0.680530 0.847901 0.289424 0.064775
C52   C     C_R   0.161981 0.831582 0.286656 0.063930
C53   C     C_R   0.138759 0.267874 0.298216 0.062903
C54   C     C_R   0.736923 0.708037 0.294379 -0.125756
C55   C     C_R   0.331214 0.011007 0.286535 -0.128230
C56   C     C_3   0.054103 0.310361 0.785282 -0.212150
C57   C     C_R   0.948240 0.233125 0.301510 -0.129242
C58   C     C_R   0.752308 0.714852 0.244190 -0.124880
C59   C     C_R   0.326206 0.014389 0.235956 -0.127003
C60   C     C_R   0.931324 0.195711 0.253412 -0.122719
C61   C     C_R   0.730866 0.786853 0.216444 0.003298
C62   C     C_R   0.238647 0.927804 0.210553 0.010150
C63   C     C_R   0.018658 0.197915 0.226774 0.009900
C64   C     C_3   0.565115 0.853883 0.737034 -0.212795
C65   C     C_3   0.142185 0.733462 0.739072 -0.214426
C66   C     C_3   0.271879 0.391367 0.737314 -0.215062
C67   C     C_3   0.638229 0.721148 0.734611 -0.213132
C68   C     C_R   0.696782 0.855471 0.238713 0.051362
C69   C     C_R   0.154920 0.836363 0.235615 0.050613
C70   C     C_R   0.122647 0.232482 0.249213 0.049168
C71   C     C_R   0.745045 0.791661 0.166667 -0.136814
C72   C     C_R   0.231653 0.934496 0.160519 -0.143775
C73   C     C_R   0.003964 0.169173 0.177664 -0.149377
C74   C     C_R   0.619635 0.810682 0.387327 -0.002813
C75   C     C_R   0.192510 0.811628 0.386146 -0.004466
C76   C     C_R   0.181859 0.369372 0.389842 -0.004316
C77   C     C_3   0.769111 0.923864 0.723153 -0.216286
C78   C     C_3   0.260851 0.938559 0.728421 -0.212676
C79   C     C_3   0.054540 0.846823 0.713937 -0.213708
C80   C     C_3   0.124786 0.200354 0.712987 -0.213695
C81   C     C_3   0.788726 0.936834 0.779233 -0.214235
C82   C     C_3   0.036930 0.862654 0.768629 -0.215958
C83   C     C_3   0.107101 0.166346 0.767591 -0.218094
C84   C     C_1   0.734145 0.873287 0.902497 -0.030167
C85   C     C_1   0.102635 0.901460 0.894192 -0.024441
C86   C     C_1   0.095432 0.199673 0.894020 -0.028831
C87   C     C_3   0.650475 0.828462 0.711988 0.072448
C88   C     C_3   0.158647 0.833864 0.708031 0.071912
C89   C     C_3   0.071736 0.344720 0.730651 -0.212641
C90   C     C_3   0.162279 0.324089 0.707905 0.072319
C91   C     C_3   0.585042 0.866583 0.793165 -0.215715
C92   C     C_3   0.124089 0.749713 0.793812 -0.212588
C93   C     C_3   0.254108 0.356854 0.792007 -0.212469
C94   C     C_3   0.684463 0.850349 0.807240 0.073783
C95   C     C_3   0.129081 0.861924 0.800951 0.072317
C96   C     C_3   0.132176 0.265560 0.800707 0.072155
C97   C     C_3   0.663125 0.005826 0.127417 -0.399029
C98   C     C_3   0.971546 0.661560 0.129008 -0.385113
C99   C     C_3   0.302136 0.252559 0.139169 -0.370105
Cr1   Cr    Cr6+3 0.164410 0.584450 0.499910 1.016733
Cr2   Cr    Cr6+3 0.415550 0.579960 0.499910 1.017387
Cr3   Cr    Cr6+3 0.420040 0.835590 0.499910 1.014362
Cr4   Cr    Cr6+3 0.155170 0.075460 0.019960 1.002247
Cr5   Cr    Cr6+3 0.924540 0.079710 0.019960 1.001346
Cr6   Cr    Cr6+3 0.920290 0.844830 0.019960 1.000992
H1    H     H_    0.601898 0.949743 0.804675 0.111493
H2    H     H_    0.728737 0.720293 0.800323 0.110841
H3    H     H_    0.252893 0.036186 0.788908 0.104267
H4    H     H_    0.965752 0.246213 0.791183 0.108186
H5    H     H_    0.575667 0.938653 0.378096 0.130722
H6    H     H_    0.043510 0.652213 0.381135 0.124770
H7    H     H_    0.345952 0.388158 0.382981 0.126611
H8    H     H_    0.621955 0.051192 0.214640 0.106813
H9    H     H_    0.916436 0.588956 0.218452 0.103407
H10   H     H_    0.378209 0.255940 0.231149 0.102709
H11   H     H_    0.591012 0.034638 0.301969 0.102203
H12   H     H_    0.041981 0.681576 0.806006 0.113757
H13   H     H_    0.933997 0.578916 0.306200 0.101224
H14   H     H_    0.405538 0.320327 0.313976 0.101381
H15   H     H_    0.773342 0.739033 0.150680 0.131568
H16   H     H_    0.295460 0.007002 0.142038 0.119046
H17   H     H_    0.922872 0.140078 0.160923 0.122498
H18   H     H_    0.779357 0.662586 0.226902 0.104508
H19   H     H_    0.390425 0.085061 0.216675 0.092773
H20   H     H_    0.851498 0.169882 0.236283 0.115860
H21   H     H_    0.751289 0.650000 0.315159 0.104154
H22   H     H_    0.399965 0.078378 0.305614 0.096059
H23   H     H_    0.312023 0.326637 0.802780 0.112266
H24   H     H_    0.880971 0.235033 0.320768 0.104493
H25   H     H_    0.572316 0.930997 0.721662 0.112598
H26   H     H_    0.069171 0.656865 0.725185 0.111896
H27   H     H_    0.338444 0.377845 0.721910 0.112327
H28   H     H_    0.676785 0.692491 0.386494 0.125172
H29   H     H_    0.333358 0.976521 0.380462 0.128772
H30   H     H_    0.009733 0.330584 0.387797 0.128059
H31   H     H_    0.832176 0.907289 0.706055 0.108319
H32   H     H_    0.064537 0.919013 0.692476 0.109530
H33   H     H_    0.045894 0.150011 0.692383 0.109888
H34   H     H_    0.478857 0.786412 0.729530 0.108157
H35   H     H_    0.780239 0.002154 0.707324 0.111102
H36   H     H_    0.979675 0.772654 0.699499 0.112205
H37   H     H_    0.188621 0.183224 0.697171 0.110950
H38   H     H_    0.809528 0.021468 0.790320 0.108826
H39   H     H_    0.953624 0.795984 0.780457 0.108611
H40   H     H_    0.162535 0.133319 0.777936 0.107630
H41   H     H_    0.860926 0.926284 0.788984 0.101440
H42   H     H_    0.037656 0.941553 0.773213 0.099590
H43   H     H_    0.019835 0.100239 0.773051 0.101615
H44   H     H_    0.553405 0.650998 0.727106 0.110694
H45   H     H_    0.216367 0.722670 0.735660 0.107074
H46   H     H_    0.337438 0.932205 0.724015 0.110624
H47   H     H_    0.096732 0.433434 0.727442 0.110200
H48   H     H_    0.698935 0.701109 0.717581 0.111738
H49   H     H_    0.273286 0.012296 0.707505 0.112158
H50   H     H_    0.991821 0.296992 0.710413 0.113410
H51   H     H_    0.583220 0.670061 0.809885 0.112557
H52   H     H_    0.311383 0.951637 0.805076 0.114725
H53   H     H_    0.070855 0.382575 0.808244 0.116056
H54   H     H_    0.576672 0.986991 0.134959 0.124205
H55   H     H_    0.721702 0.093894 0.135448 0.118300
H56   H     H_    0.300720 0.480973 0.734248 0.107445
H57   H     H_    0.665517 0.991620 0.087755 0.145689
H58   H     H_    0.971639 0.584683 0.139277 0.120698
H59   H     H_    0.888282 0.651742 0.136235 0.119614
H60   H     H_    0.987793 0.670926 0.089169 0.149184
H61   H     H_    0.382913 0.299240 0.158063 0.095318
H62   H     H_    0.298080 0.178383 0.122690 0.151163
H63   H     H_    0.306744 0.310506 0.110206 0.163381
H64   H     H_    0.508690 0.804907 0.812491 0.110493
H65   H     H_    0.189115 0.746026 0.816572 0.113719
H66   H     H_    0.274255 0.429804 0.815115 0.114659
O1    O     O_R   0.137150 0.468200 0.553200 -0.512150
O2    O     O_R   0.140110 0.470540 0.446010 -0.521933
O3    O     O_R   0.529460 0.669570 0.446010 -0.519648
O4    O     O_R   0.330430 0.859890 0.446010 -0.523628
O5    O     O_R   0.176710 0.690910 0.450560 -0.502639
O6    O     O_R   0.309090 0.485800 0.450560 -0.502265
O7    O     O_R   0.514200 0.823290 0.450560 -0.505530
O8    O     O_3   0.333333 0.666667 0.499990 -0.262268
O9    O     O_R   0.176750 0.985260 0.074180 -0.535400
O10   O     O_R   0.014740 0.191490 0.074180 -0.495161
O11   O     O_R   0.808510 0.823250 0.074180 -0.517829
O12   O     O_R   0.531800 0.668950 0.553200 -0.511864
O13   O     O_R   0.146100 0.172630 0.068980 -0.489353
O14   O     O_R   0.827370 0.973470 0.068980 -0.514523
O15   O     O_R   0.026530 0.853900 0.068980 -0.486629
O16   O     O_3   0.000000 0.000000 0.020040 -0.277222
O17   O     O_R   0.148270 0.170520 0.969620 -0.492229
O18   O     O_R   0.829480 0.977750 0.969620 -0.520859
O19   O     O_R   0.022250 0.851730 0.969620 -0.485023
O20   O     O_R   0.331050 0.862850 0.553200 -0.510161
O21   O     O_R   0.179100 0.982980 0.967000 -0.506547
O22   O     O_R   0.017020 0.196120 0.967000 -0.485074
O23   O     O_R   0.803880 0.820900 0.967000 -0.511912
O24   O     O_R   0.173970 0.688730 0.549930 -0.500795
O25   O     O_R   0.311270 0.485240 0.549930 -0.500326
O26   O     O_R   0.514760 0.826030 0.549930 -0.498755

loop_
_geom_bond_atom_site_label_1
_geom_bond_atom_site_label_2
_ccdc_geom_bond_type
C25   C31   A    
C65   C92   S    
C26   C32   A    
C55   C59   A    
C72   H16   S    
C67   H44   S    
C18   C21   A    
C2    C84   T    
C11   O10   A    
C77   H35   S    
C40   C99   S    
C13   C41   S    
C82   H42   S    
C12   O1    A    
C29   C76   S    
C20   H7    S    
C27   C33   A    
C48   C54   A    
Cr5   O14   S    
C54   H21   S    
C46   C49   A    
C58   H18   S    
C71   H15   S    
C60   C63   A    
C17   C85   S    
C34   H2    S    
C97   H54   S    
C57   H24   S    
C60   H20   S    
C1    O24   A    
C47   C76   A    
C80   C83   S    
C30   C74   S    
C80   H33   S    
C26   C39   A    
C89   H50   S    
C13   O14   A    
Cr1   O1    S    
C83   C96   S    
C16   C84   S    
C8    C23   S    
C6    C88   S    
C20   C76   A    
Cr4   O9    S    
C7    C10   T    
C65   H45   S    
C46   C75   A    
C56   H53   S    
C52   C69   A    
C83   H40   S    
C43   C73   A    
C89   H47   S    
C1    C9    S    
C20   C24   A    
C92   H65   S    
Cr1   O5    S    
Cr5   O22   S    
C45   H52   S    
C11   C43   S    
C45   C78   S    
C77   H31   S    
Cr6   O11   S    
C39   C42   A    
C36   H13   S    
C64   C87   S    
C66   H27   S    
Cr2   O12   S    
Cr2   O25   S    
C14   C42   S    
C99   H61   S    
C61   C71   A    
C58   C61   A    
Cr5   O10   S    
C18   C74   A    
C29   O6    A    
Cr3   O8    S    
C12   O25   A    
C91   H1    S    
Cr2   O3    S    
C11   O13   A    
C25   C68   A    
C6    C9    T    
C38   C97   S    
C53   C70   A    
C79   C88   S    
C65   H26   S    
C78   H46   S    
C98   H58   S    
C47   C50   A    
C99   H62   S    
C40   C43   A    
C17   O21   A    
C4    C96   S    
Cr6   O23   S    
C48   C51   A    
C50   C53   A    
C33   H10   S    
C91   H64   S    
Cr4   O13   S    
C97   H55   S    
C18   H5    S    
C2    C94   S    
C19   C22   A    
Cr4   O16   S    
C38   C41   A    
C82   H39   S    
Cr3   O26   S    
C29   O2    A    
C78   H49   S    
C39   C98   S    
C63   C73   A    
C34   H51   S    
C24   C53   A    
C49   C55   A    
C7    C90   S    
C92   C95   S    
C33   C37   A    
C62   C69   A    
C15   O22   A    
Cr6   O15   S    
C92   H12   S    
C13   O11   A    
C23   O12   A    
Cr2   O8    S    
C25   C38   A    
C46   H29   S    
C37   H14   S    
C63   C70   A    
C77   C81   S    
C27   C40   A    
C49   C52   A    
C42   C72   A    
Cr3   O20   S    
C30   O7    A    
C62   C72   A    
C35   H11   S    
C44   C74   A    
C77   C87   S    
C27   C70   A    
C10   C12   S    
C15   C86   S    
C1    O20   A    
C56   C89   S    
C79   H32   S    
C64   H25   S    
C81   H41   S    
C93   C96   S    
C80   H37   S    
C66   C93   S    
Cr3   O7    S    
C31   C35   A    
C3    C85   T    
C45   C95   S    
C32   C36   A    
C56   H4    S    
C21   C51   A    
C65   C88   S    
C22   C52   A    
C99   H63   S    
C54   C58   A    
Cr1   O24   S    
C78   C88   S    
C59   H19   S    
C56   C96   S    
Cr5   O16   S    
C93   H66   S    
C59   C62   A    
C82   C95   S    
C47   H30   S    
C79   C82   S    
C50   C57   A    
Cr6   O19   S    
C73   H17   S    
C28   O5    A    
Cr4   O17   S    
C34   C94   S    
C55   H22   S    
C57   C60   A    
C34   C67   S    
C5    C8    T    
C98   H59   S    
C45   H3    S    
C28   O4    A    
C21   C35   A    
C19   H6    S    
C17   O19   A    
C24   C37   A    
C22   C36   A    
C15   O17   A    
C23   O26   A    
C67   C87   S    
C41   C71   A    
C67   H48   S    
Cr6   O16   S    
C19   C75   A    
Cr3   O4    S    
C93   H23   S    
C91   C94   S    
C81   C94   S    
Cr1   O8    S    
C61   C68   A    
C79   H36   S    
C14   O15   A    
Cr5   O18   S    
C44   H28   S    
C66   C90   S    
C30   O3    A    
C51   C68   A    
C80   C90   S    
C98   H60   S    
C16   O23   A    
C16   O18   A    
C83   H43   S    
C5    C87   S    
C81   H38   S    
C4    C86   T    
C66   H56   S    
C97   H57   S    
Cr1   O2    S    
C26   C69   A    
C3    C95   S    
Cr4   O21   S    
C64   C91   S    
C32   H9    S    
C89   C90   S    
C28   C75   S    
C31   H8    S    
Cr2   O6    S    
C14   O9    A    
C44   C48   A    
C64   H34   S    
