data_mof_unit_19625.cif
_audit_creation_date              2012-12-11T14:43:33-0500
_audit_creation_method            fapswitch 2.2
_symmetry_space_group_name_H-M    P1
_symmetry_Int_Tables_number       1
_space_group_crystal_system       triclinic
_cell_length_a                    20.871402
_cell_length_b                    7.094263
_cell_length_c                    16.55112
_cell_angle_alpha                 90.000727
_cell_angle_beta                  93.158637
_cell_angle_gamma                 90.000313
_cell_volume                      2446.95517894

loop_
_atom_site_label
_atom_site_type_symbol
_atom_type_description
_atom_site_fract_x
_atom_site_fract_y
_atom_site_fract_z
_atom_type_partial_charge
O1    O     O_R   0.564840 0.505290 0.579830 -0.537510
O2    O     O_R   0.435160 0.005290 0.420170 -0.537511
O3    O     O_R   0.556720 0.179930 0.409350 -0.539791
O4    O     O_R   0.443280 0.679930 0.590650 -0.539791
C1    C     C_R   0.570462 0.345133 0.381910 0.697556
C2    C     C_R   0.429538 0.845134 0.618091 0.697559
O5    O     O_R   0.572280 0.175810 0.578530 -0.543761
O6    O     O_R   0.427720 0.675810 0.421470 -0.543766
O7    O     O_R   0.450830 0.001920 0.590540 -0.537513
O8    O     O_R   0.549170 0.501920 0.409460 -0.537512
C3    C     C_R   0.590159 0.342746 0.604966 0.692549
C4    C     C_R   0.409840 0.842743 0.395034 0.692551
O9    O     O_3   0.460130 0.338030 0.503750 -0.373096
O10   O     O_3   0.539870 0.838030 0.496250 -0.373094
V1    V     V_3+5 0.507400 0.064560 0.499310 1.412492
V2    V     V_3+5 0.492600 0.564560 0.500690 1.412488
C5    C     C_R   0.143379 0.926973 0.168528 -0.054364
C6    C     C_R   0.856624 0.426961 0.831468 -0.054369
C7    C     C_R   0.355178 0.839194 0.333158 -0.065501
C8    C     C_R   0.644820 0.339205 0.666845 -0.065495
C9    C     C_R   0.290001 0.655987 0.233799 -0.200959
C10   C     C_R   0.709980 0.156030 0.766228 -0.200935
C11   C     C_R   0.344580 0.675261 0.285908 -0.161660
C12   C     C_R   0.655403 0.175302 0.714116 -0.161659
C13   C     C_R   0.310233 0.986455 0.325453 -0.245170
C14   C     C_R   0.689776 0.486441 0.674532 -0.245168
C15   C     C_R   0.254645 0.966997 0.273463 0.159668
C16   C     C_R   0.745363 0.466983 0.726525 0.159655
C17   C     C_R   0.244215 0.799942 0.227570 0.160318
C18   C     C_R   0.755778 0.299956 0.772440 0.160307
C19   C     C_R   0.188550 0.780253 0.175769 -0.226543
C20   C     C_R   0.811441 0.280268 0.824245 -0.226523
C21   C     C_R   0.154065 0.091155 0.215523 -0.171248
C22   C     C_R   0.845952 0.591115 0.784453 -0.171261
C23   C     C_R   0.208843 0.110940 0.267234 -0.200015
C24   C     C_R   0.791177 0.610899 0.732737 -0.199997
H1    H     H_    0.181542 0.654138 0.139343 0.117647
H2    H     H_    0.818437 0.154178 0.860688 0.117647
H3    H     H_    0.120177 0.206890 0.211420 0.125696
H4    H     H_    0.879850 0.706828 0.788544 0.125691
H5    H     H_    0.283294 0.527268 0.199075 0.120269
H6    H     H_    0.716676 0.027333 0.800969 0.120269
H7    H     H_    0.215601 0.239827 0.301817 0.120949
H8    H     H_    0.784429 0.739764 0.698138 0.120953
H9    H     H_    0.378401 0.559362 0.290006 0.127211
H10   H     H_    0.621572 0.059425 0.710030 0.127199
H11   H     H_    0.317291 0.112679 0.361783 0.123451
H12   H     H_    0.682730 0.612640 0.638185 0.123448
C25   C     C_R   0.387669 0.917752 0.832396 -0.147700
C26   C     C_R   0.612331 0.417686 0.167601 -0.147700
H13   H     H_    0.474679 0.896993 0.770488 0.100846
H14   H     H_    0.525321 0.396925 0.229509 0.100848
H15   H     H_    0.313936 0.984328 0.951091 0.143730
H16   H     H_    0.686063 0.484240 0.048903 0.143731
H17   H     H_    0.413334 0.945133 0.889936 0.110790
H18   H     H_    0.586665 0.445037 0.110059 0.110790
C27   C     C_R   0.391269 0.856860 0.689605 -0.035683
C28   C     C_R   0.608731 0.356851 0.310396 -0.035680
C29   C     C_R   0.081836 0.867649 0.739921 -0.157801
C30   C     C_R   0.918165 0.367686 0.260081 -0.157802
C31   C     C_R   0.115059 0.836803 0.671093 -0.124138
C32   C     C_R   0.884942 0.336852 0.328910 -0.124137
C33   C     C_R   0.181598 0.840041 0.674647 -0.137124
C34   C     C_R   0.818403 0.340077 0.325355 -0.137125
C35   C     C_R   0.217572 0.877758 0.747803 0.041433
C36   C     C_R   0.782428 0.377764 0.252198 0.041433
C37   C     C_R   0.183426 0.914387 0.819800 -0.004832
C38   C     C_R   0.816574 0.414377 0.180199 -0.004829
C39   C     C_R   0.286584 0.879660 0.751030 0.072201
C40   C     C_R   0.713416 0.379652 0.248970 0.072202
C41   C     C_R   0.320359 0.915225 0.825997 0.077701
C42   C     C_R   0.679641 0.415180 0.174001 0.077701
C43   C     C_R   0.287340 0.953456 0.894406 -0.214639
C44   C     C_R   0.712659 0.453394 0.105590 -0.214644
C45   C     C_R   0.220696 0.958544 0.892485 0.234309
C46   C     C_R   0.779303 0.458502 0.107512 0.234313
C47   C     C_R   0.323847 0.850031 0.682505 -0.203693
C48   C     C_R   0.676153 0.350044 0.317497 -0.203693
C49   C     C_R   0.422756 0.889870 0.764649 -0.161685
C50   C     C_R   0.577244 0.389821 0.235349 -0.161687
C51   C     C_R   0.114124 0.905459 0.814447 -0.074004
C52   C     C_R   0.885876 0.405466 0.185552 -0.074002
H19   H     H_    0.302482 0.826621 0.622634 0.090228
H20   H     H_    0.697519 0.326665 0.377370 0.090224
H21   H     H_    0.029872 0.859588 0.735121 0.100363
H22   H     H_    0.970129 0.359638 0.264881 0.100365
H23   H     H_    0.203382 0.811171 0.618546 0.106218
H24   H     H_    0.796619 0.311217 0.381457 0.106217
H25   H     H_    0.088840 0.807165 0.614231 0.116632
H26   H     H_    0.911161 0.307236 0.385773 0.116632
O11   O     O_R   0.950790 0.256670 0.090520 -0.538247
O12   O     O_R   0.049210 0.756670 0.909480 -0.538248
O13   O     O_R   0.927720 0.590370 0.921470 -0.541868
O14   O     O_R   0.072280 0.090370 0.078530 -0.541874
C53   C     C_R   0.911391 0.423263 0.893100 0.682790
C54   C     C_R   0.088609 0.923265 0.106899 0.682784
O15   O     O_R   0.943270 0.586180 0.090640 -0.533876
O16   O     O_R   0.056730 0.086180 0.909360 -0.533874
O17   O     O_R   0.064850 0.759970 0.079840 -0.538991
O18   O     O_R   0.935150 0.259970 0.920160 -0.538991
C55   C     C_R   0.928057 0.417220 0.116463 0.694720
C56   C     C_R   0.071942 0.917219 0.883536 0.694718
O19   O     O_3   0.039850 0.428050 0.996240 -0.375334
O20   O     O_3   0.960150 0.928050 0.003760 -0.375330
V3    V     V_3+5 0.992610 0.701540 0.000700 1.386372
V4    V     V_3+5 0.007390 0.201540 0.999300 1.386368
N1    N     N_2   0.194252 0.014957 0.965531 -0.534105
H27   H     H_    0.159145 0.932364 0.987572 0.240982
C57   C     C_3   0.192896 0.216144 0.980139 -0.445226
H28   H     H_    0.178161 0.244245 0.042331 0.192553
H29   H     H_    0.158930 0.286259 0.935797 0.202263
H30   H     H_    0.241423 0.277811 0.974918 0.174149
N2    N     N_2   0.805745 0.514903 0.034464 -0.534108
H31   H     H_    0.840855 0.432314 0.012427 0.240979
C58   C     C_3   0.807097 0.716087 0.019849 -0.445253
H32   H     H_    0.821825 0.744175 0.957654 0.192557
H33   H     H_    0.841065 0.786218 0.064184 0.202268
H34   H     H_    0.758569 0.777747 0.025076 0.174154

loop_
_geom_bond_atom_site_label_1
_geom_bond_atom_site_label_2
_ccdc_geom_bond_type
C36   C38   A    
C33   C35   A    
C45   N1    S    
C11   H9    S    
C40   C48   A    
N1    C57   S    
C27   C49   A    
C39   C47   A    
O1    C3    A    
O2    C4    A    
C2    O7    A    
O20   V4    S    
C10   H6    S    
O5    C3    A    
C21   H3    S    
C44   C46   A    
C1    C28   S    
C22   H4    S    
C57   H29   S    
C15   C17   A    
C47   H19   S    
C58   H32   S    
C54   O17   A    
C30   C32   A    
C39   C41   A    
C26   C42   A    
C32   C34   A    
O13   V3    S    
H16   C44   S    
C30   C52   A    
C8    C12   A    
C58   H33   S    
N1    H27   S    
O16   V4    S    
C20   H2    S    
C23   H7    S    
C13   H11   S    
O12   C56   A    
O15   V3    S    
O5    V1    S    
O13   C53   A    
C6    C53   S    
C43   C45   A    
O11   V4    S    
C5    C21   A    
O11   C55   A    
O20   V3    S    
C31   H25   S    
C51   C56   S    
O17   V3    S    
C3    C8    S    
C29   C31   A    
C27   C47   A    
C42   C44   A    
C57   H30   S    
C5    C54   S    
C30   H22   S    
C53   O18   A    
C15   C23   A    
O16   C56   A    
C9    C17   A    
C26   H18   S    
C25   C49   A    
C34   C36   A    
O4    V2    S    
C7    C11   A    
C29   H21   S    
C48   H20   S    
O6    C4    A    
C58   H34   S    
C31   C33   A    
C46   N2    S    
O19   V3    S    
O1    V2    S    
C38   C46   A    
O14   C54   A    
O2    V1    S    
C6    C22   A    
C9    H5    S    
O4    C2    A    
C37   C51   A    
C9    C11   A    
C5    C19   A    
C10   C12   A    
C24   H8    S    
C6    C20   A    
O3    V1    S    
C41   C43   A    
N2    H31   S    
O14   V4    S    
C2    C27   S    
C10   C18   A    
C33   H23   S    
C14   C16   A    
H15   C43   S    
C29   C51   A    
O3    C1    A    
C26   C50   A    
C40   C42   A    
C14   H12   S    
C13   C15   A    
O18   V4    S    
C35   C37   A    
C38   C52   A    
C28   C50   A    
C16   C18   A    
O7    V1    S    
C12   H10   S    
C1    O8    A    
C17   C19   A    
C25   H17   S    
C57   H28   S    
C18   C20   A    
C36   C40   A    
C8    C14   A    
C35   C39   A    
C32   H26   S    
C4    C7    S    
C21   C23   A    
C52   C55   S    
O19   V4    S    
C22   C24   A    
C7    C13   A    
H13   C49   S    
C28   C48   A    
C19   H1    S    
O12   V3    S    
C37   C45   A    
C16   C24   A    
O6    V2    S    
C25   C41   A    
O9    V2    S    
O10   V1    S    
O8    V2    S    
H14   C50   S    
C34   H24   S    
O15   C55   A    
N2    C58   S    
