data_mof_unit_20314.cif
_audit_creation_date              2012-12-11T20:50:48-0500
_audit_creation_method            fapswitch 2.2
_symmetry_space_group_name_H-M    P1
_symmetry_Int_Tables_number       1
_space_group_crystal_system       triclinic
_cell_length_a                    30.660613
_cell_length_b                    33.579656
_cell_length_c                    8.466273
_cell_angle_alpha                 90.0
_cell_angle_beta                  89.621906
_cell_angle_gamma                 89.999987
_cell_volume                      8716.45492442

loop_
_atom_site_label
_atom_site_type_symbol
_atom_type_description
_atom_site_fract_x
_atom_site_fract_y
_atom_site_fract_z
_atom_type_partial_charge
Ba1   Ba    Ba6+2 0.999930 0.472870 0.844940 1.683470
Ba2   Ba    Ba6+2 0.999930 0.527130 0.344940 1.683450
Ba3   Ba    Ba6+2 0.499930 0.972870 0.844940 1.683484
Ba4   Ba    Ba6+2 0.499930 0.027130 0.344940 1.683503
C1    C     C_3   0.037548 0.291398 0.638336 -0.337592
C2    C     C_3   0.037563 0.708592 0.138376 -0.337543
C3    C     C_3   0.537548 0.791398 0.638331 -0.337600
C4    C     C_3   0.537534 0.208611 0.138301 -0.337636
C5    C     C_R   0.244374 0.695008 0.066761 -0.029734
C6    C     C_R   0.244374 0.304992 0.566762 -0.029733
C7    C     C_R   0.744374 0.195008 0.066768 -0.029734
C8    C     C_R   0.744374 0.804992 0.566769 -0.029734
C9    C     C_R   0.212015 0.667266 0.021736 0.602980
C10   C     C_R   0.212015 0.332734 0.521739 0.602979
C11   C     C_R   0.712015 0.167265 0.021745 0.602981
C12   C     C_R   0.712015 0.832735 0.521745 0.602983
C13   C     C_R   0.162123 0.720550 0.966427 0.572043
C14   C     C_R   0.162124 0.279450 0.466416 0.572043
C15   C     C_R   0.662126 0.220550 0.966404 0.572045
C16   C     C_R   0.662125 0.779450 0.466411 0.572044
C17   C     C_R   0.193517 0.748967 0.013273 -0.016621
C18   C     C_R   0.193519 0.251033 0.513264 -0.016619
C19   C     C_R   0.693520 0.248967 0.013252 -0.016616
C20   C     C_R   0.693520 0.751033 0.513257 -0.016616
C21   C     C_R   0.234848 0.736065 0.063802 -0.051040
C22   C     C_R   0.234849 0.263935 0.563799 -0.051041
C23   C     C_R   0.734850 0.236064 0.063797 -0.051041
C24   C     C_R   0.734849 0.763936 0.563800 -0.051040
C25   C     C_R   0.286056 0.682628 0.115222 -0.069271
C26   C     C_R   0.286056 0.317373 0.615229 -0.069270
C27   C     C_R   0.786055 0.182626 0.115243 -0.069270
C28   C     C_R   0.786055 0.817373 0.615243 -0.069272
C29   C     C_R   0.817572 0.210409 0.160282 -0.075172
C30   C     C_R   0.817572 0.789591 0.660283 -0.075159
C31   C     C_R   0.317573 0.710410 0.160262 -0.075171
C32   C     C_R   0.317573 0.289589 0.660268 -0.075186
C33   C     C_R   0.808370 0.251498 0.159453 -0.030201
C34   C     C_R   0.808369 0.748502 0.659455 -0.030186
C35   C     C_R   0.308370 0.751499 0.159446 -0.030202
C36   C     C_R   0.308370 0.248501 0.659447 -0.030217
C37   C     C_R   0.766808 0.264348 0.111373 -0.052237
C38   C     C_R   0.766808 0.735651 0.611375 -0.052240
C39   C     C_R   0.266807 0.764349 0.111377 -0.052237
C40   C     C_R   0.266807 0.235651 0.611375 -0.052234
C41   C     C_R   0.184342 0.790053 0.012202 -0.074960
C42   C     C_R   0.184344 0.209947 0.512188 -0.074962
C43   C     C_R   0.684347 0.290052 0.012168 -0.074961
C44   C     C_R   0.684346 0.709947 0.512175 -0.074959
C45   C     C_3   0.003536 0.316277 0.132729 0.292132
C46   C     C_3   0.003508 0.683705 0.632715 0.292151
C47   C     C_3   0.503537 0.816276 0.132730 0.292129
C48   C     C_3   0.503565 0.183742 0.632761 0.292087
C49   C     C_R   0.715462 0.317754 0.061330 -0.072575
C50   C     C_R   0.715462 0.682246 0.561334 -0.072573
C51   C     C_R   0.215459 0.817754 0.061360 -0.072573
C52   C     C_R   0.215460 0.182246 0.561348 -0.072575
C53   C     C_R   0.757001 0.305346 0.111298 -0.021054
C54   C     C_R   0.757001 0.694654 0.611301 -0.021058
C55   C     C_R   0.256999 0.805346 0.111314 -0.021056
C56   C     C_R   0.257000 0.194654 0.611308 -0.021052
C57   C     C_R   0.788822 0.333018 0.161612 0.582056
C58   C     C_R   0.788822 0.666982 0.661613 0.582069
C59   C     C_R   0.288820 0.833018 0.161625 0.582053
C60   C     C_R   0.288820 0.166982 0.661621 0.582039
C61   C     C_R   0.839903 0.279943 0.204850 0.631630
C62   C     C_R   0.839903 0.720058 0.704853 0.631661
C63   C     C_R   0.339903 0.779944 0.204844 0.631630
C64   C     C_R   0.339903 0.220056 0.704844 0.631597
C65   C     C_2   0.113321 0.652734 0.794996 -0.057802
C66   C     C_2   0.113320 0.347266 0.294996 -0.057826
C67   C     C_2   0.613321 0.152733 0.794994 -0.057850
C68   C     C_2   0.613321 0.847266 0.294995 -0.057827
C69   C     C_3   0.075633 0.627730 0.776976 -0.084200
C70   C     C_3   0.075632 0.372269 0.276979 -0.084267
C71   C     C_3   0.575631 0.127731 0.776979 -0.084333
C72   C     C_3   0.575632 0.872269 0.276978 -0.084270
C73   C     C_1   0.099714 0.586847 0.996174 0.000289
C74   C     C_1   0.099714 0.413153 0.496175 0.000288
C75   C     C_1   0.599713 0.086847 0.996176 0.000289
C76   C     C_1   0.599714 0.913153 0.496175 0.000289
C77   C     C_2   0.126883 0.617189 0.046863 -0.119624
C78   C     C_2   0.126883 0.382811 0.546863 -0.119617
C79   C     C_2   0.626882 0.117189 0.046864 -0.119612
C80   C     C_2   0.626883 0.882811 0.546864 -0.119617
C81   C     C_2   0.137289 0.650914 0.937024 0.226107
C82   C     C_2   0.137289 0.349086 0.437023 0.226114
C83   C     C_2   0.637289 0.150914 0.937022 0.226123
C84   C     C_2   0.637289 0.849086 0.437023 0.226111
C85   C     C_R   0.885224 0.345298 0.388196 -0.102873
C86   C     C_R   0.885224 0.654702 0.888199 -0.102898
C87   C     C_R   0.385224 0.845298 0.388197 -0.102869
C88   C     C_R   0.385224 0.154701 0.888195 -0.102846
C89   C     C_3   0.982020 0.276899 0.086973 -0.238419
C90   C     C_3   0.982007 0.723092 0.586993 -0.238459
C91   C     C_3   0.482021 0.776899 0.086972 -0.238417
C92   C     C_3   0.482033 0.223109 0.586954 -0.238379
C93   C     C_R   0.919259 0.374347 0.431746 -0.057769
C94   C     C_R   0.919259 0.625653 0.931750 -0.057755
C95   C     C_R   0.419259 0.874347 0.431746 -0.057771
C96   C     C_R   0.419259 0.125653 0.931742 -0.057780
C97   C     C_R   0.904197 0.411579 0.191760 0.034496
C98   C     C_R   0.904197 0.588421 0.691762 0.034478
C99   C     C_R   0.404197 0.911579 0.191761 0.034497
C100  C     C_R   0.404197 0.088421 0.691759 0.034516
C101  C     C_R   0.872356 0.382925 0.152567 -0.036495
C102  C     C_R   0.872356 0.617076 0.652567 -0.036545
C103  C     C_R   0.372354 0.882925 0.152569 -0.036497
C104  C     C_R   0.372354 0.117074 0.652568 -0.036432
C105  C     C_R   0.863317 0.349493 0.250684 0.243929
C106  C     C_R   0.863318 0.650507 0.750684 0.243891
C107  C     C_R   0.363317 0.849493 0.250686 0.243931
C108  C     C_R   0.363316 0.150506 0.750685 0.243977
C109  C     C_2   0.080798 0.589557 0.849074 -0.215087
C110  C     C_2   0.080796 0.410442 0.349077 -0.215062
C111  C     C_2   0.580795 0.089558 0.849078 -0.215040
C112  C     C_2   0.580796 0.910442 0.349077 -0.215062
C113  C     C_3   0.150404 0.497681 0.248652 0.260019
C114  C     C_3   0.150404 0.502319 0.748653 0.260020
C115  C     C_3   0.650404 0.997681 0.248652 0.260017
C116  C     C_3   0.650404 0.002320 0.748652 0.260017
C117  C     C_3   0.183692 0.529157 0.299447 -0.322286
C118  C     C_3   0.183692 0.470843 0.799452 -0.322282
C119  C     C_3   0.683692 0.029157 0.299449 -0.322281
C120  C     C_3   0.683692 0.970844 0.799449 -0.322279
C121  C     C_3   0.874532 0.526462 0.018192 0.297757
C122  C     C_3   0.874533 0.473538 0.518192 0.297762
C123  C     C_3   0.374533 0.026462 0.018192 0.297760
C124  C     C_3   0.374533 0.973538 0.518192 0.297756
C125  C     C_3   0.833925 0.552480 0.023049 -0.349307
C126  C     C_3   0.833926 0.447519 0.523049 -0.349305
C127  C     C_3   0.333926 0.052481 0.023050 -0.349301
C128  C     C_3   0.333926 0.947519 0.523050 -0.349302
C129  C     C_3   0.015821 0.331782 0.620745 0.352668
C130  C     C_3   0.015831 0.668210 0.120799 0.352596
C131  C     C_3   0.515821 0.831782 0.620741 0.352672
C132  C     C_3   0.515813 0.168225 0.120700 0.352736
C133  C     C_R   0.928546 0.406902 0.321332 -0.299808
C134  C     C_R   0.928545 0.593098 0.821337 -0.299848
C135  C     C_R   0.428546 0.906901 0.321332 -0.299807
C136  C     C_R   0.428547 0.093099 0.821328 -0.299765
H1    H     H_    0.033208 0.353241 0.698030 0.090874
H2    H     H_    0.033205 0.646753 0.198131 0.090940
H3    H     H_    0.533208 0.853241 0.698025 0.090871
H4    H     H_    0.533210 0.146764 0.197947 0.090820
H5    H     H_    0.167432 0.557886 0.325897 0.132825
H6    H     H_    0.167432 0.442115 0.825904 0.132828
H7    H     H_    0.667432 0.057885 0.325898 0.132828
H8    H     H_    0.667433 0.942115 0.825898 0.132827
H9    H     H_    0.200929 0.519409 0.407797 0.097434
H10   H     H_    0.200929 0.480592 0.907802 0.097433
H11   H     H_    0.700929 0.019408 0.407800 0.097433
H12   H     H_    0.700929 0.980592 0.907800 0.097433
H13   H     H_    0.208155 0.534099 0.203978 0.119645
H14   H     H_    0.208155 0.465901 0.703984 0.119645
H15   H     H_    0.708156 0.034098 0.203981 0.119646
H16   H     H_    0.708156 0.965902 0.703982 0.119645
H17   H     H_    0.884888 0.522650 0.893778 0.013599
H18   H     H_    0.884888 0.477350 0.393778 0.013591
H19   H     H_    0.384888 0.022651 0.893778 0.013581
H20   H     H_    0.384888 0.977349 0.393778 0.013589
H21   H     H_    0.900612 0.541338 0.086996 0.053479
H22   H     H_    0.900613 0.458661 0.586996 0.053477
H23   H     H_    0.400613 0.041338 0.086996 0.053476
H24   H     H_    0.400613 0.958662 0.586996 0.053478
H25   H     H_    0.807289 0.538140 0.955345 0.142674
H26   H     H_    0.807290 0.461859 0.455344 0.142674
H27   H     H_    0.307290 0.038141 0.955344 0.142673
H28   H     H_    0.307290 0.961859 0.455344 0.142674
H29   H     H_    0.840821 0.581978 0.970214 0.063328
H30   H     H_    0.840822 0.418021 0.470215 0.063314
H31   H     H_    0.340822 0.081979 0.970216 0.063298
H32   H     H_    0.340822 0.918021 0.470217 0.063314
H33   H     H_    0.823092 0.556819 0.147321 0.130445
H34   H     H_    0.823092 0.443181 0.647321 0.130447
H35   H     H_    0.323093 0.056819 0.147321 0.130448
H36   H     H_    0.323092 0.943181 0.647322 0.130446
H37   H     H_    0.018894 0.341274 0.495512 -0.092045
H38   H     H_    0.018916 0.658709 0.995580 -0.091965
H39   H     H_    0.518893 0.841274 0.495507 -0.092050
H40   H     H_    0.518875 0.158741 0.995453 -0.092126
H41   H     H_    0.073188 0.294756 0.621245 0.122139
H42   H     H_    0.073205 0.705227 0.121329 0.122112
H43   H     H_    0.573187 0.794755 0.621232 0.122139
H44   H     H_    0.573173 0.205259 0.121173 0.122161
H45   H     H_    0.031667 0.279228 0.758380 0.125680
H46   H     H_    0.031673 0.720769 0.258403 0.125672
H47   H     H_    0.531668 0.779229 0.758376 0.125681
H48   H     H_    0.531659 0.220774 0.258359 0.125687
H49   H     H_    0.964637 0.264541 0.191541 0.097278
H50   H     H_    0.964614 0.735442 0.691559 0.097349
H51   H     H_    0.464638 0.764540 0.191540 0.097275
H52   H     H_    0.464658 0.235477 0.691525 0.097209
H53   H     H_    0.706880 0.349041 0.059423 0.125803
H54   H     H_    0.706880 0.650958 0.559428 0.125803
H55   H     H_    0.206876 0.849041 0.059463 0.125803
H56   H     H_    0.206877 0.150959 0.559447 0.125804
H57   H     H_    0.152845 0.800967 0.974409 0.123593
H58   H     H_    0.152847 0.199033 0.474390 0.123593
H59   H     H_    0.652851 0.300967 0.974364 0.123592
H60   H     H_    0.652850 0.699033 0.474372 0.123592
H61   H     H_    0.849229 0.199525 0.196462 0.118592
H62   H     H_    0.849228 0.800475 0.696463 0.118595
H63   H     H_    0.349231 0.699526 0.196433 0.118592
H64   H     H_    0.349230 0.300474 0.696441 0.118589
H65   H     H_    0.877761 0.321063 0.468227 0.112249
H66   H     H_    0.877760 0.678937 0.968230 0.112271
H67   H     H_    0.377761 0.821063 0.468227 0.112244
H68   H     H_    0.377761 0.178937 0.968225 0.112221
H69   H     H_    0.294498 0.651316 0.118538 0.123888
H70   H     H_    0.294497 0.348684 0.618548 0.123888
H71   H     H_    0.794496 0.151315 0.118568 0.123888
H72   H     H_    0.794496 0.848685 0.618567 0.123889
H73   H     H_    0.141816 0.615844 0.162513 0.108280
H74   H     H_    0.141816 0.384156 0.662512 0.108281
H75   H     H_    0.641815 0.115845 0.162515 0.108283
H76   H     H_    0.641815 0.884155 0.662514 0.108284
H77   H     H_    0.121080 0.675064 0.706420 0.105759
H78   H     H_    0.121081 0.324937 0.206418 0.105757
H79   H     H_    0.621082 0.175061 0.706414 0.105754
H80   H     H_    0.621081 0.824938 0.206416 0.105759
H81   H     H_    0.854122 0.386904 0.044676 0.115845
H82   H     H_    0.854124 0.613097 0.544674 0.115859
H83   H     H_    0.354121 0.886905 0.044680 0.115838
H84   H     H_    0.354120 0.113095 0.544679 0.115826
H85   H     H_    0.952849 0.428793 0.353029 0.078012
H86   H     H_    0.952848 0.571206 0.853034 0.078026
H87   H     H_    0.452849 0.928793 0.353027 0.078010
H88   H     H_    0.452850 0.071208 0.853023 0.077996
H89   H     H_    0.024556 0.270287 0.549298 0.122431
H90   H     H_    0.024583 0.729699 0.049300 0.122463
H91   H     H_    0.524554 0.770287 0.549295 0.122430
H92   H     H_    0.524532 0.229724 0.049290 0.122401
H93   H     H_    0.073562 0.562630 0.783132 0.057769
H94   H     H_    0.073564 0.437369 0.283130 0.057764
H95   H     H_    0.573563 0.062631 0.783131 0.057759
H96   H     H_    0.573563 0.937369 0.283130 0.057762
H97   H     H_    0.977855 0.338405 0.164276 0.030398
H98   H     H_    0.977819 0.661572 0.664133 0.030466
H99   H     H_    0.477857 0.838404 0.164283 0.030394
H100  H     H_    0.477893 0.161617 0.664459 0.030309
H101  H     H_    0.023649 0.309970 0.238523 -0.014373
H102  H     H_    0.023600 0.689995 0.738588 -0.014472
H103  H     H_    0.523652 0.809968 0.238520 -0.014368
H104  H     H_    0.523706 0.190072 0.738473 -0.014254
H105  H     H_    0.007587 0.255185 0.051157 0.047059
H106  H     H_    0.007583 0.744807 0.551254 0.047102
H107  H     H_    0.507588 0.755184 0.051154 0.047056
H108  H     H_    0.507590 0.244825 0.551052 0.047018
H109  H     H_    0.123998 0.493839 0.334957 0.078135
H110  H     H_    0.123997 0.506162 0.834956 0.078132
H111  H     H_    0.623998 0.993839 0.334956 0.078132
H112  H     H_    0.623997 0.006161 0.834956 0.078132
N1    N     N_R   0.171103 0.680052 0.974247 -0.426577
N2    N     N_R   0.171104 0.319948 0.474244 -0.426575
N3    N     N_R   0.671104 0.180051 0.974242 -0.426573
N4    N     N_R   0.671104 0.819948 0.474244 -0.426575
N5    N     N_R   0.830177 0.320395 0.205297 -0.420180
N6    N     N_R   0.830177 0.679605 0.705298 -0.420176
N7    N     N_R   0.330176 0.820395 0.205299 -0.420183
N8    N     N_R   0.330176 0.179605 0.705298 -0.420185
O1    O     O_2   0.914200 0.445720 0.903420 -0.460715
O2    O     O_2   0.914200 0.554280 0.403420 -0.460722
O3    O     O_2   0.414200 0.945720 0.903420 -0.460714
O4    O     O_2   0.414200 0.054280 0.403420 -0.460705
O5    O     O_3   0.132772 0.492928 0.601665 -0.663012
O6    O     O_3   0.132772 0.507072 0.101665 -0.663010
O7    O     O_3   0.632772 0.992928 0.601665 -0.663012
O8    O     O_3   0.632772 0.007072 0.101665 -0.663013
O9    O     O_3   0.030074 0.330375 0.008267 -0.600171
O10   O     O_3   0.030073 0.669626 0.508285 -0.600203
O11   O     O_3   0.530074 0.830375 0.008266 -0.600169
O12   O     O_3   0.530075 0.169624 0.508251 -0.600132
O13   O     O_3   0.049930 0.518940 0.045960 -0.458652
O14   O     O_3   0.049930 0.481060 0.545960 -0.458653
O15   O     O_3   0.549930 0.018940 0.045960 -0.458658
O16   O     O_3   0.549930 0.981060 0.545960 -0.458657
O17   O     O_2   0.220473 0.631701 0.023267 -0.585360
O18   O     O_2   0.220472 0.368299 0.523275 -0.585362
O19   O     O_2   0.720471 0.131700 0.023288 -0.585365
O20   O     O_2   0.720471 0.868299 0.523285 -0.585364
O21   O     O_2   0.126586 0.731955 0.920283 -0.616012
O22   O     O_2   0.126588 0.268045 0.420262 -0.616025
O23   O     O_2   0.626591 0.231955 0.920240 -0.616037
O24   O     O_2   0.626590 0.768044 0.420253 -0.616025
O25   O     O_2   0.779453 0.368354 0.168448 -0.599977
O26   O     O_2   0.779453 0.631646 0.668447 -0.599972
O27   O     O_2   0.279450 0.868354 0.168467 -0.599975
O28   O     O_2   0.279451 0.131646 0.668461 -0.599981
O29   O     O_2   0.876222 0.268624 0.242778 -0.601246
O30   O     O_2   0.876222 0.731377 0.742784 -0.601256
O31   O     O_2   0.376223 0.768625 0.242765 -0.601244
O32   O     O_2   0.376223 0.231375 0.742765 -0.601238
O33   O     O_3   0.950020 0.480960 0.143730 -0.491410
O34   O     O_3   0.950020 0.519040 0.643730 -0.491407
O35   O     O_3   0.450020 0.980960 0.143730 -0.491414
O36   O     O_3   0.450020 0.019040 0.643730 -0.491417
O37   O     O_3   0.985090 0.412220 0.642040 -0.498498
O38   O     O_3   0.985090 0.587780 0.142040 -0.498513
O39   O     O_3   0.485090 0.912220 0.642040 -0.498498
O40   O     O_3   0.485090 0.087780 0.142040 -0.498485
O41   O     O_2   0.912611 0.379435 0.760591 -0.439354
O42   O     O_2   0.912615 0.620568 0.260600 -0.439355
O43   O     O_2   0.412611 0.879435 0.760591 -0.439353
O44   O     O_2   0.412608 0.120561 0.260582 -0.439347
O45   O     O_3   0.864130 0.489438 0.083478 -0.627730
O46   O     O_3   0.864130 0.510561 0.583478 -0.627726
O47   O     O_3   0.364130 0.989439 0.083477 -0.627730
O48   O     O_3   0.364130 0.010561 0.583478 -0.627737
O49   O     O_3   0.971818 0.328817 0.666192 -0.582534
O50   O     O_3   0.971822 0.671184 0.166178 -0.582547
O51   O     O_3   0.471818 0.828817 0.666191 -0.582532
O52   O     O_3   0.471813 0.171182 0.166202 -0.582530
O53   O     O_2   0.085560 0.445380 0.786390 -0.464978
O54   O     O_2   0.085560 0.554620 0.286390 -0.464984
O55   O     O_2   0.585560 0.945380 0.786390 -0.464979
O56   O     O_2   0.585560 0.054620 0.286390 -0.464976
O57   O     O_3   0.014550 0.412170 0.047860 -0.455836
O58   O     O_3   0.014550 0.587830 0.547860 -0.455871
O59   O     O_3   0.514550 0.912170 0.047860 -0.455836
O60   O     O_3   0.514550 0.087830 0.547860 -0.455800
O61   O     O_2   0.090926 0.382905 0.948896 -0.481537
O62   O     O_2   0.090924 0.617097 0.448890 -0.481550
O63   O     O_2   0.590926 0.882905 0.948896 -0.481537
O64   O     O_2   0.590926 0.117093 0.448900 -0.481528
P1    P     P_3+3 0.909970 0.458430 0.077330 1.000875
P2    P     P_3+3 0.909970 0.541570 0.577330 1.000871
P3    P     P_3+3 0.409970 0.958430 0.077330 1.000873
P4    P     P_3+3 0.409970 0.041570 0.577330 1.000877
P5    P     P_3+3 0.089830 0.458070 0.612460 0.980204
P6    P     P_3+3 0.089830 0.541930 0.112460 0.980200
P7    P     P_3+3 0.589830 0.958070 0.612460 0.980202
P8    P     P_3+3 0.589830 0.041930 0.112460 0.980205
P9    P     P_3+3 0.054040 0.374991 0.070372 0.975029
P10   P     P_3+3 0.054040 0.625009 0.570373 0.974982
P11   P     P_3+3 0.554040 0.874991 0.070372 0.975030
P12   P     P_3+3 0.554040 0.125008 0.570371 0.975075
P13   P     P_3+3 0.946303 0.625835 0.125394 0.989685
P14   P     P_3+3 0.946301 0.374166 0.625393 0.989703
P15   P     P_3+3 0.446300 0.125833 0.125391 0.989717
P16   P     P_3+3 0.446301 0.874166 0.625393 0.989703
C137  C     C_2   0.950070 0.281696 0.955106 0.622569
H113  H     H_    0.953123 0.263395 0.850019 -0.006213
O65   O     O_2   0.919934 0.305291 0.966125 -0.549895
C138  C     C_2   0.950071 0.718316 0.455069 0.622482
H114  H     H_    0.953150 0.736617 0.349988 -0.006197
O66   O     O_2   0.919917 0.694735 0.466029 -0.549879
C139  C     C_2   0.450072 0.781696 0.955106 0.622579
H115  H     H_    0.453124 0.763395 0.850019 -0.006217
O67   O     O_2   0.419936 0.805292 0.966125 -0.549890
C140  C     C_2   0.450068 0.218288 0.455145 0.622657
H116  H     H_    0.453093 0.236588 0.350042 -0.006231
O68   O     O_2   0.419949 0.194675 0.466232 -0.549903
C141  C     C_1   0.172463 0.459049 0.234584 0.229136
N9    N     N_1   0.189831 0.428574 0.223306 -0.263781
C142  C     C_1   0.172463 0.540951 0.734582 0.229136
N10   N     N_1   0.189831 0.571426 0.723303 -0.263780
C143  C     C_1   0.672463 0.959049 0.234583 0.229136
N11   N     N_1   0.689830 0.928573 0.223304 -0.263783
C144  C     C_1   0.672463 0.040952 0.734583 0.229136
N12   N     N_1   0.689830 0.071427 0.723305 -0.263783

loop_
_geom_bond_atom_site_label_1
_geom_bond_atom_site_label_2
_ccdc_geom_bond_type
Ba3   P3    S    
C143  N11   T    
C51   C55   A    
C118  H14   S    
C96   P15   S    
C113  C141  S    
C38   C54   A    
Ba3   O16   S    
C110  H94   S    
O59   P11   S    
C126  H34   S    
C127  H31   S    
C66   H78   S    
Ba1   O34   S    
C94   C134  S    
C116  C144  S    
O15   P8    S    
Ba3   O36   S    
O3    P3    D    
C104  H84   S    
C42   H58   S    
C70   C110  A    
C63   O31   D    
C134  H86   S    
C5    C9    A    
C7    C11   A    
C85   H65   S    
C8    C12   A    
Ba1   O57   S    
C66   C70   A    
Ba2   O54   S    
Ba3   O59   S    
C58   N6    Am   
C113  O6    S    
C59   O27   D    
C43   C49   A    
Ba1   P5    S    
C10   O18   D    
C116  O7    S    
C99   P3    S    
C125  H33   S    
C73   C109  A    
O9    P9    S    
O4    P4    D    
C76   P7    S    
C116  H112  S    
O61   P9    D    
C45   H97   S    
C114  H110  S    
C64   N8    Am   
C124  H20   S    
C97   C133  D    
C119  H15   S    
Ba2   P2    S    
C13   C17   A    
C100  C136  D    
C20   C44   A    
C15   C19   A    
C90   H50   S    
Ba2   O14   S    
O42   P13   D    
C6    C26   A    
C90   C138  S    
C142  N10   T    
C1    H41   S    
C7    C23   A    
C100  P4    S    
Ba3   O39   S    
C89   H105  S    
C130  O50   S    
C15   N3    Am   
C8    C24   A    
C117  H5    S    
C65   H77   S    
C71   C111  A    
C89   C137  S    
C25   C31   A    
C80   C84   S    
C45   H101  S    
C74   P5    S    
C53   C57   A    
C115  C119  S    
C15   O23   D    
C71   P12   S    
C2    H46   S    
C55   C59   A    
Ba2   P6    S    
C26   C32   A    
C56   C60   A    
C73   P6    S    
C12   O20   D    
Ba2   O2    S    
C46   O10   S    
C117  H9    S    
C3    H43   S    
C118  H6    S    
C140  H116  S    
C123  C127  S    
C121  C125  S    
C144  N12   T    
C99   C103  A    
C128  H32   S    
C45   C89   S    
C47   C91   S    
O64   P12   D    
C91   C139  S    
C50   H54   S    
O33   P1    S    
C114  C142  S    
O41   P14   D    
C21   C39   A    
C22   C40   A    
C11   N3    Am   
C14   N2    Am   
C1    C129  S    
C2    H42   S    
C3    H47   S    
C126  H30   S    
C106  N6    S    
C115  H111  S    
C95   P16   S    
C29   H61   S    
C41   H57   S    
C124  H24   S    
C75   P8    S    
C114  C118  S    
C133  H85   S    
C91   H107  S    
C77   H73   S    
C33   C61   A    
Ba4   O60   S    
C39   C55   A    
O10   P10   S    
C127  H27   S    
O45   P1    S    
O39   P16   S    
Ba2   O33   S    
C95   C135  S    
O5    P5    S    
C93   C133  S    
C17   C41   A    
C137  O65   D    
C68   H80   S    
C136  H88   S    
C19   C43   A    
C107  N7    S    
C76   C112  A    
C6    C10   A    
C46   C90   S    
Ba2   O58   S    
Ba3   O55   S    
C58   O26   D    
C59   N7    Am   
C114  O5    S    
C10   N2    Am   
C72   P11   S    
Ba4   O4    S    
Ba1   O14   S    
C2    H90   S    
C18   C22   A    
O13   P6    S    
C115  C143  S    
Ba3   Ba4   S    
O55   P7    D    
C65   C81   A    
O52   P15   S    
C17   C21   A    
C14   C18   A    
Ba4   O15   S    
C103  C107  A    
C47   H103  S    
C20   C24   A    
C138  O66   D    
C62   N6    Am   
C49   C53   A    
C87   H67   S    
C69   P10   S    
C25   H69   S    
C113  C117  S    
C82   N2    S    
Ba4   O40   S    
C92   H52   S    
C11   O19   D    
C108  N8    S    
O6    P6    S    
C132  O52   S    
C30   H62   S    
C101  H81   S    
O37   P14   S    
C92   C140  S    
C121  O45   S    
C48   O12   S    
C36   C40   A    
C138  H114  S    
C41   C51   A    
C42   C52   A    
C86   H66   S    
C87   C95   S    
C60   O28   D    
O50   P13   S    
C63   N7    Am   
C54   C58   A    
C79   C83   S    
C43   H59   S    
C4    C132  S    
C49   H53   S    
Ba4   O35   S    
C57   N5    Am   
C76   C80   A    
C111  H95   S    
C141  N9    T    
C5    C21   A    
C3    H91   S    
C4    H48   S    
C109  H93   S    
C120  H8    S    
C88   C96   S    
C117  H13   S    
Ba3   O15   S    
C44   H60   S    
C124  O48   S    
C118  H10   S    
Ba1   O37   S    
C75   C111  A    
C50   C54   A    
C121  H17   S    
C122  C126  S    
C69   C109  A    
C135  H87   S    
C128  H36   S    
O53   P5    D    
C101  C105  A    
C52   H56   S    
O11   P11   S    
C65   C69   A    
C13   O21   D    
C83   N3    S    
C74   C110  A    
O47   P3    S    
C129  O49   S    
C16   N4    Am   
C119  H11   S    
Ba4   P8    S    
O63   P11   D    
C139  H115  S    
C113  H109  S    
C88   C108  D    
C78   C82   S    
O56   P8    D    
C29   C33   A    
C52   C56   A    
O16   P7    S    
O49   P14   S    
O12   P12   S    
C31   C35   A    
O48   P4    S    
C130  H2    S    
C126  H26   S    
O8    P8    S    
C73   C77   A    
C123  O47   S    
C112  H96   S    
C130  H38   S    
C140  O68   D    
C90   H106  S    
C67   C83   A    
C18   C42   A    
C89   H49   S    
C64   O32   D    
C93   P14   S    
C100  C104  A    
C61   O29   D    
C123  H23   S    
Ba4   O56   S    
O36   P4    S    
O58   P10   S    
C121  H21   S    
C79   H75   S    
C34   C38   A    
Ba3   P7    S    
C129  H1    S    
O44   P15   D    
C125  H25   S    
O46   P2    S    
C37   C53   A    
C132  H4    S    
Ba2   O13   S    
C75   C79   A    
C12   N4    Am   
C129  H37   S    
C40   C56   A    
C127  H35   S    
C57   O25   D    
C104  C108  A    
C36   C64   A    
C47   H99   S    
C16   O24   D    
C92   H108  S    
C28   C30   A    
C51   H55   S    
O34   P2    S    
C47   O11   S    
C61   N5    Am   
Ba4   P4    S    
C68   C72   A    
O40   P15   S    
C31   H63   S    
C9    O17   D    
C84   N4    S    
C137  H113  S    
C44   C50   A    
C13   N1    Am   
C125  H29   S    
C122  O46   S    
C48   H104  S    
C28   H72   S    
C94   P13   S    
C115  O8    S    
C85   C105  D    
Ba1   Ba2   S    
C98   C134  D    
C87   C107  D    
C74   C78   A    
C32   C36   A    
O1    P1    D    
C96   C136  S    
C78   H74   S    
C116  C120  S    
C16   C20   A    
O57   P9    S    
C27   C29   A    
C98   C102  A    
C19   C23   A    
Ba1   O13   S    
C91   H51   S    
C6    C22   A    
C120  H12   S    
C7    C27   A    
C8    C28   A    
C33   C37   A    
O60   P12   S    
O38   P13   S    
Ba2   O38   S    
C124  C128  S    
C68   C84   A    
C103  H83   S    
C122  H18   S    
C97   C101  A    
O62   P10   D    
C97   P1    S    
Ba4   O16   S    
C34   C62   A    
C46   H98   S    
C48   H100  S    
C35   C39   A    
C85   C93   S    
C3    C131  S    
C88   H68   S    
C99   C135  D    
C139  O67   D    
C23   C37   A    
C14   O22   D    
C9    N1    Am   
O43   P16   D    
Ba1   O1    S    
C119  H7    S    
Ba1   O53   S    
O14   P5    S    
Ba3   O3    S    
C120  H16   S    
C1    H89   S    
C86   C106  D    
C66   C82   A    
C123  H19   S    
O54   P6    D    
C102  C106  A    
O2    P2    D    
O35   P3    S    
C30   C34   A    
C35   C63   A    
C128  H28   S    
C131  O51   S    
C46   H102  S    
C70   P9    S    
C26   H70   S    
C5    C25   A    
C132  H40   S    
C67   H79   S    
C81   N1    S    
C1    H45   S    
C131  H39   S    
C2    C130  S    
O7    P7    S    
C67   C71   A    
C4    H92   S    
C4    H44   S    
C102  H82   S    
C24   C38   A    
C131  H3    S    
C72   C112  A    
C48   C92   S    
C98   P2    S    
C105  N5    S    
C77   C81   S    
C60   N8    Am   
C27   H71   S    
C62   O30   D    
C32   H64   S    
O51   P16   S    
C122  H22   S    
C86   C94   S    
Ba1   P1    S    
C80   H76   S    
C45   O9    S    
