data_mof_unit_27056.cif
_audit_creation_date              2013-03-05T16:12:10-0500
_audit_creation_method            fapswitch 2.2
_symmetry_space_group_name_H-M    P1
_symmetry_Int_Tables_number       1
_space_group_crystal_system       triclinic
_cell_length_a                    10.941879
_cell_length_b                    9.482841
_cell_length_c                    27.771819
_cell_angle_alpha                 89.076875
_cell_angle_beta                  89.865169
_cell_angle_gamma                 90.472166
_cell_volume                      2881.12594367

loop_
_atom_site_label
_atom_site_type_symbol
_atom_site_description
_atom_site_fract_x
_atom_site_fract_y
_atom_site_fract_z
_atom_type_partial_charge
O1    O     O_R   0.317570 0.620260 0.500030 -0.593075
O2    O     O_R   0.317570 0.379740 0.500030 -0.614659
C1    C     C_R   0.260731 0.498694 0.500568 0.777590
O3    O     O_R   0.499900 0.620250 0.430280 -0.517751
O4    O     O_R   0.499900 0.379750 0.430280 -0.547139
C2    C     C_R   0.498554 0.501957 0.407676 0.802548
Cu1   Cu    Cu3+1 0.499860 0.642410 0.500020 0.966452
Cu2   Cu    Cu3+1 0.499860 0.357590 0.500020 0.972879
O5    O     O_R   0.682190 0.620260 0.500010 -0.591998
O6    O     O_R   0.682190 0.379740 0.500010 -0.581870
O7    O     O_R   0.499860 0.620280 0.569750 -0.600561
O8    O     O_R   0.499860 0.379720 0.569750 -0.542541
C3    C     C_R   0.740304 0.500442 0.498340 0.765465
C4    C     C_R   0.499369 0.498925 0.592526 0.858228
C5    C     C_R   0.416820 0.410805 0.177776 0.546698
O9    O     O_2   0.400433 0.287326 0.201868 -0.538615
N1    N     N_R   0.447898 0.530680 0.202052 -0.455309
C6    C     C_R   0.472907 0.653903 0.177100 0.558614
C7    C     C_R   0.560297 0.591124 0.276411 -0.142064
C8    C     C_R   0.570509 0.591356 0.326519 -0.065533
C9    C     C_R   0.387958 0.446528 0.332785 -0.300196
C10   C     C_R   0.371657 0.457615 0.283116 -0.082665
C11   C     C_R   0.459987 0.525888 0.254029 0.307328
C12   C     C_R   0.438878 0.536617 0.101374 -0.065924
C13   C     C_R   0.403624 0.414605 0.127572 0.011492
C14   C     C_R   0.361547 0.296492 0.103050 -0.164788
C15   C     C_R   0.482732 0.654850 0.126300 -0.135463
C16   C     C_R   0.488730 0.509665 0.354914 -0.082817
H1    H     H_    0.319607 0.392626 0.354254 0.179540
H2    H     H_    0.290125 0.412389 0.267425 0.177606
H3    H     H_    0.338060 0.199440 0.122152 0.194429
C17   C     C_R   0.492282 0.497849 0.645640 -0.122856
C18   C     C_R   0.364190 0.429730 0.975191 -0.016520
C19   C     C_R   0.474731 0.656332 0.972594 -0.113463
C20   C     C_R   0.423725 0.538731 0.948605 -0.052125
C21   C     C_R   0.288190 0.334266 0.949752 0.376611
C22   C     C_R   0.298279 0.323224 0.899565 -0.114154
C23   C     C_R   0.372428 0.420024 0.872909 -0.085681
C24   C     C_R   0.429150 0.532536 0.897540 -0.130405
C25   C     C_R   0.492232 0.639119 0.871178 -0.172823
C26   C     C_R   0.509679 0.622845 0.821429 0.604500
N2    N     N_R   0.456383 0.512755 0.798001 -0.456451
C27   C     C_R   0.387276 0.413645 0.822220 0.567938
C28   C     C_R   0.430746 0.620110 0.717692 -0.094072
C29   C     C_R   0.444224 0.616891 0.668092 -0.288951
C30   C     C_R   0.530926 0.380639 0.673860 0.481563
C31   C     C_R   0.517794 0.386878 0.724628 -0.211902
C32   C     C_R   0.468227 0.506115 0.746376 0.274577
O10   O     O_2   0.332707 0.310494 0.797012 -0.531733
C33   C     C_R   0.377999 0.423772 0.026090 0.082839
C34   C     C_R   0.432221 0.539128 0.050272 0.000612
C35   C     C_R   0.484291 0.653780 0.023844 -0.051666
C36   C     C_R   0.348605 0.301024 0.053400 -0.162179
H4    H     H_    0.414673 0.707557 0.647132 0.192585
H5    H     H_    0.391006 0.712113 0.733986 0.172529
H6    H     H_    0.321402 0.203560 0.037139 0.191091
O11   O     O_2   0.486106 0.775275 0.201278 -0.535866
C37   C     C_R   0.541922 0.764404 0.099891 -0.163516
H7    H     H_    0.629033 0.645737 0.254842 0.167795
C38   C     C_R   0.507022 0.776149 0.943941 0.419712
C39   C     C_R   0.530706 0.762202 0.894730 0.388112
O12   O     O_2   0.580638 0.715406 0.796441 -0.501437
C40   C     C_R   0.554941 0.754029 0.049786 0.484070
H8    H     H_    0.544712 0.300037 0.747839 0.157671
C41   C     C_3   0.071299 0.525642 0.552049 -0.249645
C42   C     C_3   0.074417 0.346355 0.485699 -0.222696
H9    H     H_    0.086148 0.427830 0.573987 0.136333
H10   H     H_    0.115490 0.266837 0.510768 0.134115
C43   C     C_3   0.929745 0.554910 0.549362 -0.090354
C44   C     C_3   0.930894 0.341060 0.490598 -0.087631
H11   H     H_    0.109073 0.711677 0.476149 0.180864
H12   H     H_    0.127171 0.591880 0.428428 0.150057
C45   C     C_3   0.078830 0.605941 0.463362 -0.427452
C46   C     C_3   0.123849 0.495091 0.500485 -0.014102
C47   C     C_3   0.880026 0.499508 0.498619 -0.115876
C48   C     C_3   0.937992 0.598430 0.456497 -0.058151
C49   C     C_3   0.624590 0.082529 0.506097 -0.163097
C50   C     C_3   0.624200 0.918704 0.497535 -0.204328
H13   H     H_    0.660996 0.104563 0.542549 0.181114
H14   H     H_    0.684488 0.867852 0.524355 0.191319
H15   H     H_    0.687681 0.132011 0.480086 0.213594
H16   H     H_    0.659689 0.898002 0.461018 0.230469
H17   H     H_    0.457960 0.126808 0.576699 0.242344
H18   H     H_    0.504402 0.888453 0.577562 0.191776
C51   C     C_3   0.428723 0.080247 0.542178 -0.352576
C52   C     C_3   0.445564 0.913928 0.545999 -0.322426
C53   C     C_3   0.447974 0.086574 0.455532 0.452616
C54   C     C_3   0.423649 0.921592 0.461035 0.496492
N3    N     N_3   0.500250 0.143650 0.501060 -0.191920
N4    N     N_3   0.500250 0.856350 0.501060 -0.182169
H19   H     H_    0.359294 0.140397 0.449076 0.041262
H20   H     H_    0.325002 0.907741 0.471450 -0.004224
H21   H     H_    0.330114 0.105356 0.537955 0.148694
H22   H     H_    0.355785 0.862895 0.553192 0.198565
C55   C     C_1   0.604437 0.879741 0.123323 0.420514
N5    N     N_1   0.654504 0.972093 0.141856 -0.233409
O13   O     O_3   0.507332 0.910766 0.962211 -0.526348
C56   C     C_3   0.386095 0.959036 0.963593 -0.215222
H23   H     H_    0.331756 0.900532 0.991429 0.144640
H24   H     H_    0.340999 0.952508 0.927766 0.164504
H25   H     H_    0.388588 0.071363 0.973426 0.195812
O14   O     O_3   0.574896 0.262781 0.649943 -0.583311
C57   C     C_3   0.651795 0.176721 0.678333 -0.266824
H26   H     H_    0.596849 0.109335 0.703467 0.176061
H27   H     H_    0.721590 0.239671 0.697887 0.176200
H28   H     H_    0.701700 0.105138 0.654100 0.206333
O15   O     O_3   0.573024 0.878315 0.868601 -0.519857
C58   C     C_3   0.698778 0.896752 0.878051 -0.172642
H29   H     H_    0.734385 0.983138 0.854401 0.183152
H30   H     H_    0.751370 0.799989 0.869759 0.143628
H31   H     H_    0.714992 0.927964 0.915939 0.179927
O16   O     O_3   0.645165 0.835388 0.027581 -0.531922
C59   C     C_3   0.749650 0.751472 0.021181 -0.323441
H32   H     H_    0.731347 0.663575 0.996073 0.149781
H33   H     H_    0.784065 0.709408 0.056230 0.157556
H34   H     H_    0.823088 0.818221 0.004948 0.189842
C60   C     C_1   0.140149 0.634772 0.578750 0.262746
N6    N     N_1   0.192472 0.719620 0.600137 -0.304052
C61   C     C_1   0.119684 0.304396 0.437531 0.259205
N7    N     N_1   0.152959 0.269506 0.400061 -0.323880
C62   C     C_1   0.867997 0.485326 0.590953 0.225939
N8    N     N_1   0.819790 0.432188 0.623726 -0.251188
C63   C     C_1   0.901870 0.243981 0.531465 0.218544
N9    N     N_1   0.881907 0.167244 0.563413 -0.265204
C64   C     C_1   0.903984 0.706357 0.556873 0.268390
N10   N     N_1   0.886386 0.824413 0.563962 -0.277535
C65   C     C_1   0.874360 0.271793 0.448234 0.260729
N11   N     N_1   0.831897 0.217856 0.415008 -0.210258
C66   C     C_1   0.897654 0.746293 0.454759 0.271508
N12   N     N_1   0.874034 0.864807 0.452499 -0.282427
C67   C     C_1   0.911385 0.546153 0.407747 0.240618
N13   N     N_1   0.892361 0.505838 0.369327 -0.256955
O17   O     O_3   0.532816 0.114136 0.417124 -0.552406
C68   C     C_3   0.478127 0.127795 0.371174 -0.141483
H35   H     H_    0.379359 0.153437 0.371785 0.120568
H36   H     H_    0.492979 0.030816 0.350300 0.203634
H37   H     H_    0.526858 0.212648 0.350907 0.193146
O18   O     O_3   0.446853 0.858971 0.416141 -0.541511
C69   C     C_3   0.337000 0.833471 0.390704 -0.326363
H38   H     H_    0.278913 0.929026 0.388208 0.138083
H39   H     H_    0.285000 0.745559 0.407977 0.174435
H40   H     H_    0.360108 0.801684 0.353537 0.203056
C70   C     C_1   0.226711 0.213595 0.876890 0.405404
N14   N     N_1   0.169304 0.125762 0.859046 -0.261788
O19   O     O_3   0.198590 0.254654 0.973078 -0.617383
C71   C     C_3   0.095826 0.340612 0.980430 -0.311994
H41   H     H_    0.059028 0.381857 0.945655 0.161308
H42   H     H_    0.117441 0.429257 0.004846 0.168102
H43   H     H_    0.022911 0.275759 0.997885 0.199407
C72   C     C_1   0.658391 0.686092 0.347487 0.319328
N15   N     N_1   0.727359 0.764945 0.363795 -0.239964

loop_
_geom_bond_atom_site_label_1
_geom_bond_atom_site_label_2
_geom_bond_distance
_ccdc_geom_bond_type
C44   C65   1.489950 S    
C42   H10   1.115987 S    
C53   C54   1.589683 S    
C53   H19   1.113650 S    
C26   N2    1.366351 A    
C53   O17   1.431869 S    
C20   C24   1.421469 A    
C55   N5    1.157563 T    
C12   C15   1.408620 A    
C47   C48   1.613059 S    
C68   H37   1.107014 S    
O13   C56   1.407516 S    
C63   N9    1.157620 T    
C42   C44   1.576293 S    
C49   C50   1.575377 S    
C50   N4    1.477469 S    
Cu1   O7    1.944502 S    
C67   N13   1.157948 T    
C30   O14   1.397514 S    
C49   N3    1.489220 S    
N1    C11   1.449855 S    
C21   O19   1.385572 S    
C21   C22   1.403553 A    
H18   C52   1.113372 S    
C66   N12   1.156011 T    
O4    C2    1.309255 A    
O7    C4    1.304181 A    
C50   H14   1.103826 S    
C5    C13   1.401974 A    
C5    O9    1.349672 S    
C42   C46   1.567683 S    
C18   C21   1.421677 A    
C58   H29   1.109241 S    
Cu1   O5    2.007780 S    
C19   C20   1.419295 A    
C45   C46   1.544851 S    
C40   O16   1.385407 S    
C1    C46   1.497866 S    
O5    C3    1.308028 A    
C52   H22   1.107821 S    
C18   C20   1.414197 A    
C59   H32   1.112522 S    
C51   H21   1.112898 S    
C44   C63   1.481985 S    
C2    C16   1.470189 S    
C54   H20   1.122922 S    
C8    C72   1.440863 S    
C41   H9    1.114757 S    
O15   C58   1.411379 S    
O6    C3    1.304900 A    
C49   H15   1.095442 S    
C22   C70   1.449328 S    
C59   H34   1.109187 S    
C12   C34   1.421067 A    
C64   N10   1.157417 T    
C43   C64   1.483753 S    
C14   H3    1.083603 S    
C9    C10   1.393697 A    
C19   C38   1.418435 A    
C26   O12   1.349614 S    
O3    Cu1   1.951535 S    
O16   C59   1.410850 S    
O19   C71   1.410626 S    
C71   H42   1.112749 S    
C49   H13   1.111078 S    
C33   C36   1.413455 A    
C34   C35   1.416838 A    
C3    C47   1.528954 S    
Cu1   Cu2   2.700902 S    
C12   C13   1.407487 A    
O3    C2    1.294242 A    
C38   O13   1.381245 S    
C52   N4    1.495848 S    
C31   H8    1.080832 S    
H11   C45   1.116938 S    
C51   N3    1.497961 S    
C27   O10   1.348261 S    
C68   H36   1.107872 S    
C8    C16   1.410035 A    
C7    H7    1.083580 S    
C18   C33   1.422210 A    
C51   C52   1.591287 S    
Cu1   N4    2.029399 S    
C9    H1    1.076041 S    
C15   C37   1.413768 A    
C41   C46   1.573988 S    
C38   C39   1.398986 A    
O1    C1    1.305190 A    
C7    C11   1.406473 A    
C37   C55   1.449233 S    
C22   C23   1.418408 A    
C71   H43   1.109161 S    
C48   C66   1.473542 S    
C50   H16   1.106181 S    
C6    O11   1.348722 S    
C31   C32   1.402852 A    
C43   C62   1.480042 S    
Cu2   O8    1.951225 S    
N1    C6    1.374138 A    
C57   H27   1.113262 S    
C17   C29   1.403761 A    
N2    C32   1.441705 S    
C61   N7    1.155928 T    
C54   O18   1.412942 S    
C62   N8    1.157192 T    
C25   C26   1.405441 A    
H17   C51   1.108684 S    
C9    C16   1.398607 A    
C54   N4    1.520405 S    
C29   H4    1.082566 S    
C56   H24   1.114045 S    
C42   C61   1.486762 S    
C53   N3    1.496384 S    
O17   C68   1.415232 S    
C45   C48   1.554422 S    
N2    C27   1.368578 A    
C65   N11   1.158572 T    
C14   C36   1.386458 A    
C24   C25   1.412873 A    
C28   C29   1.385847 A    
C71   H41   1.113557 S    
C36   H6    1.075321 S    
C37   C40   1.403577 A    
C5    N1    1.371792 A    
C30   C31   1.419120 A    
C10   H2    1.082245 S    
O1    Cu1   2.003902 S    
C17   C30   1.417611 A    
C10   C11   1.405349 A    
O2    Cu2   2.007346 S    
C6    C15   1.414511 A    
C4    C17   1.476791 S    
H12   C45   1.114319 S    
C35   C40   1.425812 A    
O4    Cu2   1.944803 S    
C69   H38   1.112435 S    
C68   H35   1.109822 S    
C56   H25   1.104012 S    
C33   C34   1.419329 A    
C19   C35   1.427235 A    
C58   H31   1.111895 S    
C7    C8    1.396366 A    
O2    C1    1.292866 A    
C13   C14   1.395641 A    
C23   C27   1.419015 A    
C60   N6    1.156429 T    
C69   H39   1.107636 S    
C28   H5    1.083075 S    
C23   C24   1.416351 A    
C69   H40   1.109187 S    
C41   C43   1.577510 S    
C48   C67   1.478038 S    
C58   H30   1.114023 S    
C43   C47   1.606437 S    
C57   H28   1.109489 S    
O14   C57   1.410444 S    
C39   O15   1.384785 S    
O18   C69   1.416697 S    
C25   C39   1.408952 A    
C28   C32   1.397285 A    
O8    C4    1.304252 A    
C44   C47   1.625117 S    
Cu2   O6    2.004336 S    
C56   H23   1.112417 S    
C57   H26   1.111013 S    
C41   C60   1.484205 S    
C72   N15   1.156259 T    
Cu2   N3    2.028539 S    
C70   N14   1.157580 T    
C59   H33   1.113582 S    
