data_mof_unit_52318.cif
_audit_creation_date              2012-12-10T16:37:26-0500
_audit_creation_method            fapswitch 2.2
_symmetry_space_group_name_H-M    P1
_symmetry_Int_Tables_number       1
_space_group_crystal_system       triclinic
_cell_length_a                    16.856326
_cell_length_b                    16.851221
_cell_length_c                    16.853626
_cell_angle_alpha                 65.833057
_cell_angle_beta                  65.807294
_cell_angle_gamma                 65.833653
_cell_volume                      3812.49077233

loop_
_atom_site_label
_atom_site_type_symbol
_atom_type_description
_atom_site_fract_x
_atom_site_fract_y
_atom_site_fract_z
_atom_type_partial_charge
C1    C     C_R   0.394772 0.080759 0.653064 -0.221467
C2    C     C_R   0.459253 0.701762 0.919068 -0.220099
C3    C     C_R   0.945197 0.600233 0.333946 -0.223693
C4    C     C_R   0.919045 0.459300 0.701811 -0.220766
C5    C     C_R   0.962300 0.179467 0.437838 0.887154
C6    C     C_R   0.035327 0.820610 0.562826 0.928851
C7    C     C_R   0.179483 0.437852 0.962220 0.929762
C8    C     C_R   0.820620 0.562900 0.035136 0.885877
C9    C     C_R   0.437238 0.964486 0.179386 0.929220
C10   C     C_R   0.562217 0.037622 0.820535 0.886531
C11   C     C_R   0.569982 0.824901 0.017352 0.922321
C12   C     C_R   0.590105 0.972987 0.333468 -0.222325
C13   C     C_R   0.437497 0.179132 0.963145 0.912217
C14   C     C_R   0.017287 0.570015 0.824940 0.920770
C15   C     C_R   0.963221 0.437453 0.179154 0.914591
C16   C     C_R   0.820875 0.036717 0.562567 0.911919
C17   C     C_R   0.175177 0.982401 0.430067 0.922812
C18   C     C_R   0.442452 0.083936 0.702121 -0.193455
C19   C     C_R   0.547865 0.949141 0.294227 -0.176568
C20   C     C_R   0.049740 0.705943 0.452468 -0.175313
C21   C     C_R   0.915169 0.298070 0.557858 -0.195148
C22   C     C_R   0.706507 0.452523 0.048502 -0.186684
C23   C     C_R   0.025584 0.666863 0.410346 -0.221624
C24   C     C_R   0.298176 0.557799 0.915085 -0.185812
C25   C     C_R   0.256706 0.063364 0.495933 -0.180745
C26   C     C_R   0.708625 0.071512 0.443768 -0.179605
C27   C     C_R   0.556642 0.291771 0.926546 -0.179174
C28   C     C_R   0.504300 0.743793 0.935669 -0.180955
C29   C     C_R   0.927534 0.556394 0.291689 -0.180501
C30   C     C_R   0.935572 0.504418 0.743846 -0.180725
C31   C     C_R   0.533248 0.055930 0.530442 0.020034
C32   C     C_R   0.445449 0.022351 0.440985 0.019930
C33   C     C_R   0.976144 0.559480 0.555086 0.019961
C34   C     C_R   0.917858 0.347329 0.605697 -0.222215
C35   C     C_R   0.942677 0.469945 0.467251 0.019974
C36   C     C_R   0.559868 0.555115 0.975366 0.021167
C37   C     C_R   0.470272 0.467293 0.941944 0.020092
C38   C     C_R   0.580732 0.039076 0.444920 0.050692
C39   C     C_R   0.393974 0.055103 0.518046 0.049232
C40   C     C_R   0.943343 0.482456 0.606606 0.049140
C41   C     C_R   0.959383 0.555514 0.419814 0.050539
C42   C     C_R   0.482669 0.606585 0.942927 0.049456
C43   C     C_R   0.556005 0.419936 0.958225 0.051309
C44   C     C_R   0.539535 0.012478 0.405334 0.048550
C45   C     C_R   0.667619 0.410472 0.024042 -0.230342
C46   C     C_R   0.439421 0.064057 0.567633 0.049920
C47   C     C_R   0.433058 0.561104 0.933986 0.048981
C48   C     C_R   0.595710 0.461110 0.984727 0.049283
C49   C     C_R   0.934429 0.432821 0.561121 0.050755
C50   C     C_R   0.985955 0.595122 0.461003 0.047747
C51   C     C_R   0.537345 0.069554 0.668850 0.071870
C52   C     C_R   0.452706 0.967529 0.322149 0.079976
C53   C     C_R   0.031456 0.678064 0.547619 0.079155
C54   C     C_R   0.929753 0.331288 0.462917 0.072545
C55   C     C_R   0.678402 0.547652 0.030683 0.077750
C56   C     C_R   0.347461 0.605629 0.917722 -0.217020
C57   C     C_R   0.331414 0.462886 0.929523 0.072155
C58   C     C_R   0.307662 0.015934 0.429939 0.060681
C59   C     C_R   0.671883 0.064920 0.537452 0.070145
C60   C     C_R   0.462863 0.328404 0.933776 0.070707
C61   C     C_R   0.570413 0.692718 0.982883 0.059535
C62   C     C_R   0.934371 0.462678 0.328372 0.069815
C63   C     C_R   0.983058 0.570365 0.692754 0.060074
C64   C     C_R   0.591062 0.061201 0.721099 -0.122606
C65   C     C_R   0.405196 0.954913 0.276341 -0.136840
C66   C     C_R   0.044466 0.723742 0.594990 -0.136450
C67   C     C_R   0.298802 0.079565 0.541179 -0.221462
C68   C     C_R   0.938580 0.278914 0.409049 -0.123092
C69   C     C_R   0.723856 0.595026 0.044033 -0.123411
C70   C     C_R   0.278969 0.409010 0.938498 -0.134582
C71   C     C_R   0.267814 0.984497 0.392430 -0.113543
C72   C     C_R   0.722145 0.059768 0.591164 -0.129692
C73   C     C_R   0.408931 0.277921 0.939782 -0.129350
C74   C     C_R   0.607718 0.732376 0.014782 -0.114245
C75   C     C_R   0.940027 0.408846 0.277946 -0.131371
C76   C     C_R   0.014850 0.607737 0.732424 -0.112295
C77   C     C_R   0.680028 0.062128 0.679722 -0.308073
C78   C     C_R   0.666553 0.053387 0.400118 -0.224551
C79   C     C_R   0.317115 0.953583 0.317653 -0.310149
C80   C     C_R   0.045862 0.682441 0.683037 -0.309972
C81   C     C_R   0.937923 0.320210 0.319991 -0.307511
C82   C     C_R   0.682439 0.683000 0.045682 -0.312830
C83   C     C_R   0.320245 0.319921 0.937895 -0.302964
C84   C     C_R   0.580590 0.064049 0.578834 0.074826
C85   C     C_R   0.402212 0.000986 0.398376 0.073759
C86   C     C_R   0.997780 0.601982 0.598226 0.073772
C87   C     C_R   0.934979 0.421392 0.419762 0.075280
C88   C     C_R   0.602265 0.598233 0.997180 0.072156
C89   C     C_R   0.600682 0.334114 0.943851 -0.226771
C90   C     C_R   0.421609 0.419780 0.934446 0.076457
H1    H     H_    0.323084 0.088478 0.685390 0.138826
H2    H     H_    0.408387 0.745584 0.884220 0.141190
H3    H     H_    0.943409 0.670803 0.300226 0.139404
H4    H     H_    0.883918 0.408606 0.745615 0.139978
H5    H     H_    0.719644 0.056792 0.719648 0.196034
H6    H     H_    0.284458 0.935198 0.286680 0.192026
H7    H     H_    0.064518 0.713310 0.715576 0.191620
H8    H     H_    0.943643 0.280183 0.280259 0.196465
H9    H     H_    0.713213 0.715503 0.064492 0.190340
H10   H     H_    0.280174 0.280142 0.943814 0.196966
H11   H     H_    0.402419 0.100786 0.765024 0.174581
H12   H     H_    0.663400 0.956381 0.309113 0.140995
H13   H     H_    0.591421 0.913694 0.243635 0.166388
H14   H     H_    0.085405 0.756327 0.408795 0.168061
H15   H     H_    0.898591 0.235020 0.597771 0.173102
H16   H     H_    0.756845 0.408739 0.084140 0.169305
H17   H     H_    0.235055 0.597703 0.898724 0.173529
H18   H     H_    0.183713 0.090909 0.512754 0.181765
H19   H     H_    0.769423 0.091693 0.401599 0.173178
H20   H     H_    0.598502 0.230787 0.906597 0.172529
H21   H     H_    0.487161 0.816848 0.908686 0.181781
H22   H     H_    0.907590 0.598404 0.230760 0.172897
H23   H     H_    0.042158 0.691172 0.337045 0.142840
H24   H     H_    0.908345 0.487499 0.816897 0.182090
H25   H     H_    0.909944 0.315103 0.677429 0.136738
H26   H     H_    0.692123 0.337199 0.040281 0.142218
H27   H     H_    0.315152 0.677318 0.910023 0.139078
H28   H     H_    0.255052 0.114699 0.591873 0.141354
H29   H     H_    0.700323 0.055042 0.329578 0.139071
H30   H     H_    0.671316 0.300460 0.941739 0.136199
O1    O     O_R   0.982940 0.138950 0.510160 -0.653065
O2    O     O_R   0.982940 0.510160 0.138950 -0.636381
O3    O     O_R   0.861050 0.017060 0.489840 -0.637307
O4    O     O_R   0.138950 0.982940 0.510160 -0.642696
O5    O     O_R   0.867700 0.025880 0.612340 -0.630966
O6    O     O_R   0.132300 0.974120 0.387660 -0.633068
O7    O     O_R   0.025880 0.612340 0.867700 -0.635531
O8    O     O_R   0.974120 0.387660 0.132300 -0.628834
O9    O     O_R   0.612340 0.867700 0.025880 -0.634669
O10   O     O_R   0.387660 0.132300 0.974120 -0.629705
O11   O     O_R   0.387660 0.974120 0.132300 -0.613953
O12   O     O_R   0.017060 0.861050 0.489840 -0.632726
O13   O     O_R   0.612340 0.025880 0.867700 -0.634897
O14   O     O_R   0.132300 0.387660 0.974120 -0.618132
O15   O     O_R   0.867700 0.612340 0.025880 -0.631009
O16   O     O_R   0.974120 0.132300 0.387660 -0.634377
O17   O     O_R   0.025880 0.867700 0.612340 -0.614518
O18   O     O_R   0.138950 0.510160 0.982940 -0.632532
O19   O     O_R   0.861050 0.489840 0.017060 -0.653306
O20   O     O_R   0.510160 0.982940 0.138950 -0.632689
O21   O     O_R   0.489840 0.017060 0.861050 -0.653267
O22   O     O_R   0.489840 0.861050 0.017060 -0.642111
O23   O     O_R   0.510160 0.138950 0.982940 -0.636918
O24   O     O_R   0.017060 0.489840 0.861050 -0.643076
Zn1   Zn    Zn3+2 0.004880 0.004880 0.583590 0.927084
Zn2   Zn    Zn3+2 0.995120 0.995120 0.416410 0.929975
Zn3   Zn    Zn3+2 0.004880 0.583590 0.004880 0.929854
Zn4   Zn    Zn3+2 0.995120 0.416410 0.995120 0.927432
Zn5   Zn    Zn3+2 0.583590 0.004880 0.004880 0.927483
Zn6   Zn    Zn3+2 0.416410 0.995120 0.995120 0.929911

loop_
_geom_bond_atom_site_label_1
_geom_bond_atom_site_label_2
_ccdc_geom_bond_type
C5    O16   A    
C15   C75   S    
C65   C79   A    
C15   O2    A    
C80   H7    S    
C64   C77   A    
C29   H22   S    
C36   C42   A    
C16   C72   S    
C10   O13   A    
O24   Zn4   S    
C7    C70   S    
C71   C79   A    
O6    Zn2   S    
C21   H15   S    
C36   C88   A    
C12   H12   S    
C1    C18   A    
C43   C89   A    
C37   C90   A    
C8    O19   A    
C68   C81   A    
O17   Zn1   S    
C52   C85   A    
C16   O3    A    
C27   C60   A    
C82   H9    S    
C30   H24   S    
C54   C87   A    
C9    O20   A    
C17   O6    A    
C54   C68   A    
C81   H8    S    
C40   C49   A    
C5    O1    A    
C60   C73   A    
O4    Zn1   S    
C56   H27   S    
C32   C39   A    
C55   C88   A    
C3    C29   A    
C69   C82   A    
C35   C87   A    
C19   C52   A    
O10   Zn6   S    
C4    C40   A    
C27   H20   S    
C24   C57   A    
C31   C46   A    
C25   C67   A    
C35   C49   A    
C13   O10   A    
C20   C23   A    
C36   C48   A    
C53   C86   A    
C57   C70   A    
C37   C47   A    
C43   C48   A    
C59   C72   A    
C28   C61   A    
C1    H1    S    
C30   C63   A    
C8    O15   A    
C19   H13   S    
C74   C82   A    
C5    C68   S    
C35   C41   A    
C11   O9    A    
C11   O22   A    
O21   Zn6   S    
C9    O11   A    
C28   H21   S    
C32   C44   A    
C14   O24   A    
O19   Zn4   S    
C33   C40   A    
C57   C90   A    
O13   Zn5   S    
C59   C84   A    
C7    O14   A    
C6    O12   A    
C89   H30   S    
O8    Zn4   S    
C23   C50   A    
C21   C34   A    
C38   C78   A    
C33   C50   A    
C22   H16   S    
C77   H5    S    
C4    C30   A    
C14   O7    A    
C18   H11   S    
C14   C76   S    
C37   C43   A    
C33   C86   A    
C38   C44   A    
C72   C77   A    
C70   C83   A    
C61   C88   A    
C23   H23   S    
C10   O21   A    
C17   O4    A    
O3    Zn2   S    
O23   Zn5   S    
O18   Zn3   S    
C8    C69   S    
C3    H3    S    
C24   H17   S    
C26   C78   A    
O2    Zn3   S    
C2    H2    S    
C53   C66   A    
C26   H19   S    
C55   C69   A    
C39   C46   A    
C4    H4    S    
C16   O5    A    
C13   C73   S    
C17   C71   S    
O15   Zn3   S    
C83   H10   S    
C63   C86   A    
C61   C74   A    
O1    Zn1   S    
C62   C75   A    
C25   C58   A    
C58   C85   A    
C41   C50   A    
C66   C80   A    
C26   C59   A    
C45   C48   A    
C29   C62   A    
C3    C41   A    
C34   C49   A    
C39   C67   A    
C75   C81   A    
C51   C64   A    
C76   C80   A    
C20   C53   A    
C11   C74   S    
C7    O18   A    
C22   C55   A    
C20   H14   S    
C60   C90   A    
C18   C51   A    
C24   C56   A    
O14   Zn4   S    
C62   C87   A    
C10   C64   S    
C31   C38   A    
C15   O8    A    
O12   Zn2   S    
O22   Zn6   S    
C6    O17   A    
C78   H29   S    
C34   H25   S    
C79   H6    S    
C12   C44   A    
O5    Zn1   S    
C45   H26   S    
C21   C54   A    
C2    C42   A    
C32   C85   A    
O20   Zn5   S    
C12   C19   A    
C27   C89   A    
C42   C47   A    
C13   O23   A    
C1    C46   A    
C67   H28   S    
C9    C65   S    
C58   C71   A    
C31   C84   A    
C6    C66   S    
C22   C45   A    
C63   C76   A    
O11   Zn6   S    
C2    C28   A    
O9    Zn5   S    
C51   C84   A    
C73   C83   A    
O16   Zn2   S    
C52   C65   A    
C25   H18   S    
O7    Zn3   S    
C47   C56   A    
