data_mof_unit_21595.cif
_audit_creation_date              2013-03-05T16:43:53-0500
_audit_creation_method            fapswitch 2.2
_symmetry_space_group_name_H-M    P1
_symmetry_Int_Tables_number       1
_space_group_crystal_system       triclinic
_cell_length_a                    9.908729
_cell_length_b                    10.700535
_cell_length_c                    16.751814
_cell_angle_alpha                 90.678981
_cell_angle_beta                  83.327691
_cell_angle_gamma                 89.652389
_cell_volume                      1763.96950453

loop_
_atom_site_label
_atom_site_type_symbol
_atom_site_description
_atom_site_fract_x
_atom_site_fract_y
_atom_site_fract_z
_atom_type_partial_charge
O1    O     O_R   0.385310 0.683210 0.499990 -0.625238
O2    O     O_R   0.614650 0.683240 0.500000 -0.609704
C1    C     C_R   0.499798 0.739676 0.498772 0.928207
O3    O     O_R   0.371780 0.500000 0.615800 -0.601771
O4    O     O_R   0.601120 0.500040 0.615800 -0.604800
C2    C     C_R   0.479013 0.495253 0.652884 0.961624
Zn1   Zn    Zn3+2 0.346870 0.499980 0.499990 0.996486
Zn2   Zn    Zn3+2 0.653130 0.500020 0.500010 1.054680
O5    O     O_R   0.385350 0.316760 0.500000 -0.617564
O6    O     O_R   0.614690 0.316790 0.500010 -0.594894
O7    O     O_R   0.398880 0.499960 0.384200 -0.632983
O8    O     O_R   0.628220 0.500000 0.384200 -0.571299
C3    C     C_R   0.500640 0.260429 0.498273 0.908720
C4    C     C_R   0.520704 0.501698 0.346881 0.870155
C5    C     C_R   0.461545 0.465473 0.737423 -0.072707
C6    C     C_R   0.554627 0.384391 0.767092 -0.131309
C7    C     C_R   0.540077 0.353029 0.848105 0.332396
C8    C     C_R   0.431975 0.407928 0.899352 0.043028
C9    C     C_R   0.332486 0.479604 0.868042 -0.108785
C10   C     C_R   0.347256 0.508449 0.787066 -0.086911
C11   C     C_R   0.448392 0.576736 0.138460 -0.009357
C12   C     C_R   0.440559 0.575383 0.222170 -0.226139
C13   C     C_R   0.643915 0.446283 0.214651 -0.118879
C14   C     C_R   0.652342 0.445366 0.131604 -0.109112
C15   C     C_R   0.552408 0.505567 0.093623 0.072556
C16   C     C_2   0.439845 0.420697 0.985029 -0.114862
C17   C     C_2   0.548722 0.476589 0.009121 -0.095716
C18   C     C_R   0.536246 0.508393 0.260015 -0.075108
H1    H     H_    0.637965 0.344935 0.726847 0.208150
H2    H     H_    0.360245 0.626892 0.258170 0.193598
H3    H     H_    0.716700 0.392444 0.243207 0.230290
H4    H     H_    0.637543 0.497027 0.966960 0.191562
H5    H     H_    0.249743 0.521934 0.907414 0.178070
H6    H     H_    0.273260 0.568922 0.764054 0.175907
H7    H     H_    0.350349 0.402528 0.027170 0.163294
H8    H     H_    0.731723 0.390686 0.097131 0.184886
C19   C     C_R   0.379101 0.938558 0.509652 -0.015317
C20   C     C_R   0.499524 0.871325 0.491472 -0.012146
C21   C     C_R   0.618580 0.933570 0.461209 -0.210191
H9    H     H_    0.711345 0.882974 0.440850 0.212549
C22   C     C_R   0.619789 0.063135 0.461490 -0.171280
H10   H     H_    0.713838 0.110907 0.442582 0.211030
C23   C     C_R   0.500868 0.128860 0.490172 -0.027324
C24   C     C_R   0.379517 0.065325 0.507536 -0.048215
C25   C     C_3   0.263886 0.079005 0.573309 0.087602
C26   C     C_3   0.262047 0.935792 0.575668 0.041405
H11   H     H_    0.171234 0.120146 0.552036 0.114175
H12   H     H_    0.169065 0.895984 0.554560 0.100887
C27   C     C_R   0.915848 0.521017 0.569489 0.064192
N1    N     N_R   0.857140 0.500860 0.500530 -0.172093
C28   C     C_R   0.942866 0.464437 0.433317 0.371935
C29   C     C_R   0.086184 0.467607 0.433212 -0.157674
H13   H     H_    0.151522 0.441133 0.379380 0.193602
N2    N     N_R   0.142780 0.500820 0.500530 -0.128440
C30   C     C_R   0.057728 0.516988 0.569891 0.185856
C31   C     C_3   0.057752 0.624556 0.626771 -0.502364
C32   C     C_3   0.903847 0.633812 0.624749 0.143186
H14   H     H_    0.088875 0.595793 0.685418 0.241435
H15   H     H_    0.117242 0.703281 0.599207 0.196558
N3    N     N_R   0.302404 0.141023 0.645924 0.256999
O9    O     O_R   0.222501 0.226145 0.682159 -0.340120
O10   O     O_R   0.418799 0.118232 0.672000 -0.329261
N4    N     N_R   0.292404 0.884214 0.652532 0.252593
O11   O     O_R   0.197200 0.883472 0.712909 -0.318424
O12   O     O_R   0.411825 0.839516 0.662101 -0.330085
N5    N     N_R   0.890213 0.417397 0.363368 0.207053
O13   O     O_R   0.819930 0.315047 0.368619 -0.421660
O14   O     O_R   0.943504 0.453817 0.292877 -0.400586
N6    N     N_R   0.826627 0.605715 0.703064 0.229030
O15   O     O_R   0.718692 0.669759 0.730441 -0.291579
O16   O     O_R   0.859524 0.509076 0.743418 -0.364526
C33   C     C_2   0.863909 0.754667 0.586061 0.921502
O17   O     O_2   0.901157 0.772617 0.514915 -0.673452
O18   O     O_R   0.792558 0.848812 0.632092 -0.675493
H16   H     H_    0.776119 0.925593 0.599592 0.355495
C34   C     C_2   0.348350 0.652795 0.099755 0.912055
O19   O     O_2   0.238350 0.680119 0.137028 -0.585134
O20   O     O_R   0.380692 0.695952 0.021419 -0.766348
H17   H     H_    0.304219 0.746410 0.001989 0.371291
N7    N     N_R   0.636672 0.269470 0.878018 0.216764
O21   O     O_R   0.602661 0.204196 0.942202 -0.334644
O22   O     O_R   0.755261 0.249914 0.837459 -0.297308

loop_
_geom_bond_atom_site_label_1
_geom_bond_atom_site_label_2
_geom_bond_distance
_ccdc_geom_bond_type
N5    O14   1.301390 A    
C30   C31   1.485548 S    
N4    O12   1.301430 A    
C25   N3    1.468879 S    
C22   H10   1.082181 S    
C9    C10   1.386035 A    
C8    C16   1.451269 S    
C21   C22   1.386493 A    
C25   C26   1.533595 S    
C24   C25   1.499655 S    
Zn1   O7    1.948253 S    
C11   C34   1.489131 S    
C16   C17   1.337068 D    
C14   H8    1.084151 S    
C34   O20   1.398727 S    
C20   C21   1.403875 A    
O7    C4    1.293642 A    
C5    C6    1.399105 A    
C27   C32   1.507994 S    
C31   C32   1.531946 S    
N3    O10   1.302550 A    
C8    C9    1.398459 A    
N6    O16   1.302408 A    
O5    C3    1.285592 A    
C2    C5    1.446190 S    
C1    C20   1.415467 S    
C6    C7    1.393229 A    
C13   C14   1.383902 A    
C10   H6    1.082015 S    
N5    O13   1.299805 A    
C12   C18   1.398890 A    
C11   C12   1.395668 A    
C22   C23   1.401553 A    
O3    Zn1   1.983908 S    
C29   N2    1.361017 A    
N1    C28   1.380047 A    
C25   H11   1.112866 S    
C5    C10   1.396880 A    
C26   H12   1.110066 S    
O18   H16   1.013686 S    
C28   C29   1.420506 A    
C14   C15   1.395957 A    
C33   O18   1.398411 S    
C9    H5    1.084036 S    
C21   H9    1.082168 S    
O20   H17   1.013980 S    
N7    O21   1.301522 A    
C6    H1    1.083662 S    
C27   C30   1.407047 A    
C7    N7    1.441645 S    
N3    O9    1.300539 A    
O1    C1    1.286725 A    
C28   N5    1.424742 S    
C13   H3    1.078206 S    
C23   C24   1.387804 A    
C19   C20   1.390720 A    
Zn2   O8    1.983908 S    
C7    C8    1.412863 A    
C13   C18   1.395854 A    
C34   O19   1.223527 D    
N7    O22   1.301667 A    
O8    C4    1.296504 A    
O3    C2    1.292664 A    
Zn2   N1    2.022585 S    
C3    C23   1.412744 S    
C29   H13   1.081049 S    
Zn1   O5    1.995018 S    
C11   C15   1.415423 A    
N2    C30   1.362405 A    
C12   H2    1.084469 S    
C17   H4    1.087559 S    
O1    Zn1   1.999581 S    
O2    Zn2   1.995017 S    
C33   O17   1.223782 D    
O6    C3    1.287312 A    
O4    Zn2   1.948253 S    
C15   C17   1.450179 S    
C31   H15   1.105582 S    
C26   N4    1.468962 S    
C32   N6    1.475079 S    
C19   C24   1.357383 A    
O2    C1    1.287492 A    
O4    C2    1.295882 A    
C31   H14   1.109714 S    
C32   C33   1.523892 S    
N6    O15   1.301341 A    
N4    O11   1.300582 A    
C16   H7    1.087389 S    
Zn2   O6    1.999582 S    
C27   N1    1.367903 A    
Zn1   N2    2.021206 S    
C4    C18   1.448063 S    
C19   C26   1.507402 S    
