data_mof_unit_10891.cif
_audit_creation_date              2012-12-10T17:46:31-0500
_audit_creation_method            fapswitch 2.2
_symmetry_space_group_name_H-M    P1
_symmetry_Int_Tables_number       1
_space_group_crystal_system       triclinic
_cell_length_a                    20.722867
_cell_length_b                    21.232283
_cell_length_c                    14.797372
_cell_angle_alpha                 89.739132
_cell_angle_beta                  128.350147
_cell_angle_gamma                 90.159486
_cell_volume                      5105.89736416

loop_
_atom_site_label
_atom_site_type_symbol
_atom_type_description
_atom_site_fract_x
_atom_site_fract_y
_atom_site_fract_z
_atom_type_partial_charge
C1    C     C_R   0.602784 0.913556 0.631239 0.791665
C2    C     C_R   0.395514 0.085010 0.366343 0.789270
C3    C     C_R   0.396595 0.914008 0.368017 0.792690
C4    C     C_R   0.603279 0.086034 0.631907 0.794102
C5    C     C_R   0.103592 0.414038 0.632778 0.786253
C6    C     C_R   0.896147 0.585501 0.367323 0.795685
C7    C     C_R   0.897536 0.413262 0.369172 0.794154
C8    C     C_R   0.103465 0.585943 0.632092 0.795312
C9    C     C_R   0.332731 0.772652 0.929739 -0.227280
C10   C     C_R   0.681950 0.215717 0.089751 -0.228605
C11   C     C_R   0.666117 0.770907 0.065713 -0.227968
C12   C     C_R   0.377034 0.307477 0.042209 -0.230811
C13   C     C_R   0.828865 0.275104 0.926264 -0.235642
C14   C     C_R   0.167594 0.727226 0.070734 -0.228722
C15   C     C_R   0.136164 0.244464 0.031822 -0.215757
C16   C     C_R   0.814037 0.712129 0.903759 -0.221280
C17   C     C_R   0.323195 0.986416 0.669497 -0.311370
C18   C     C_R   0.677231 0.012190 0.331031 -0.316911
C19   C     C_R   0.821385 0.502619 0.667571 -0.306110
C20   C     C_R   0.177158 0.510131 0.330167 -0.311130
C21   C     C_R   0.350405 0.992966 0.604440 0.399063
C22   C     C_R   0.649680 0.006847 0.395861 0.387671
C23   C     C_R   0.850054 0.496513 0.604011 0.375987
C24   C     C_R   0.149868 0.503657 0.395296 0.400063
C25   C     C_R   0.488655 0.002511 0.775714 -0.057149
C26   C     C_R   0.511682 0.996174 0.224411 -0.049146
C27   C     C_R   0.987928 0.508950 0.774965 -0.048125
C28   C     C_R   0.010904 0.502906 0.223905 -0.056512
C29   C     C_R   0.462679 0.997797 0.845648 -0.028787
C30   C     C_R   0.538053 0.999492 0.154832 -0.028153
C31   C     C_R   0.960928 0.513735 0.843805 -0.044655
C32   C     C_R   0.036684 0.510220 0.153753 -0.025464
C33   C     C_R   0.378088 0.988517 0.788580 0.124828
C34   C     C_R   0.622659 0.008746 0.212018 0.122232
C35   C     C_R   0.875688 0.510005 0.786149 0.117944
C36   C     C_R   0.121901 0.513960 0.211089 0.122237
C37   C     C_R   0.516629 0.001397 0.969054 0.087415
C38   C     C_R   0.484347 0.994939 0.031563 0.088803
C39   C     C_R   0.014811 0.517902 0.967502 0.080790
C40   C     C_R   0.982166 0.513488 0.029889 0.089758
C41   C     C_R   0.399666 0.983796 0.968841 -0.235973
C42   C     C_R   0.601495 0.011718 0.031931 -0.244955
C43   C     C_R   0.896324 0.511890 0.966201 -0.245284
C44   C     C_R   0.100279 0.524102 0.030932 -0.238267
C45   C     C_R   0.347757 0.981090 0.849828 -0.187780
C46   C     C_R   0.653286 0.014868 0.150931 -0.191016
C47   C     C_R   0.844362 0.511097 0.846852 -0.189356
C48   C     C_R   0.152531 0.522023 0.150186 -0.195042
C49   C     C_R   0.660853 0.136678 0.704858 -0.049280
C50   C     C_R   0.338523 0.863552 0.294977 -0.049627
C51   C     C_R   0.330549 0.129844 0.285290 -0.045004
C52   C     C_R   0.657946 0.860864 0.699893 -0.052338
C53   C     C_R   0.161601 0.636340 0.705340 -0.051071
C54   C     C_R   0.842660 0.360467 0.300059 -0.050433
C55   C     C_R   0.836536 0.634567 0.292072 -0.054436
C56   C     C_R   0.171158 0.372580 0.720886 -0.047215
C57   C     C_R   0.755515 0.219625 0.745187 -0.193127
C58   C     C_R   0.238650 0.784145 0.250339 -0.190307
C59   C     C_R   0.191606 0.167755 0.183282 -0.190040
C60   C     C_R   0.747371 0.775715 0.731230 -0.190977
C61   C     C_R   0.262139 0.715256 0.750687 -0.189254
C62   C     C_R   0.753489 0.274495 0.267521 -0.191864
C63   C     C_R   0.740891 0.716945 0.249174 -0.187120
C64   C     C_R   0.317481 0.354237 0.856847 -0.183773
C65   C     C_R   0.701625 0.171646 0.673463 -0.194294
C66   C     C_R   0.293639 0.831517 0.322755 -0.190419
C67   C     C_R   0.256274 0.130039 0.268509 -0.186410
C68   C     C_R   0.697459 0.826922 0.665649 -0.185996
C69   C     C_R   0.207221 0.667854 0.678327 -0.190354
C70   C     C_R   0.804907 0.324485 0.335286 -0.193989
C71   C     C_R   0.796373 0.670150 0.323339 -0.192288
C72   C     C_R   0.249867 0.379235 0.752603 -0.193167
C73   C     C_R   0.672551 0.151631 0.806011 -0.262843
C74   C     C_R   0.329955 0.845993 0.197167 -0.265144
C75   C     C_R   0.340798 0.170498 0.220188 -0.266097
C76   C     C_R   0.667376 0.842089 0.797810 -0.266092
C77   C     C_R   0.169568 0.654319 0.802576 -0.263865
C78   C     C_R   0.831797 0.343642 0.200231 -0.264989
C79   C     C_R   0.821711 0.647035 0.188088 -0.262404
C80   C     C_R   0.160419 0.336178 0.789852 -0.244649
C81   C     C_R   0.717111 0.205088 0.870325 0.084692
C82   C     C_R   0.284295 0.792809 0.133188 0.084731
C83   C     C_R   0.279717 0.214993 0.144155 0.082298
C84   C     C_R   0.707909 0.785963 0.855265 0.085654
C85   C     C_R   0.215622 0.707336 0.866867 0.084300
C86   C     C_R   0.789912 0.288419 0.140401 0.085653
C87   C     C_R   0.777214 0.700150 0.122247 0.084989
C88   C     C_R   0.228042 0.317854 0.902397 0.080526
C89   C     C_R   0.765341 0.235214 0.845247 0.131751
C90   C     C_R   0.231835 0.766083 0.153534 0.129255
C91   C     C_R   0.202302 0.208954 0.119212 0.123095
C92   C     C_R   0.754675 0.756216 0.827996 0.122554
C93   C     C_R   0.268539 0.733690 0.847013 0.127948
C94   C     C_R   0.743534 0.257743 0.167889 0.125161
C95   C     C_R   0.729709 0.731158 0.147462 0.129530
C96   C     C_R   0.307551 0.325461 0.933273 0.123805
C97   C     C_R   0.720627 0.226005 0.964626 -0.021112
C98   C     C_R   0.284019 0.769103 0.043239 -0.019483
C99   C     C_R   0.290838 0.260937 0.084295 -0.011167
C100  C     C_R   0.708690 0.761977 0.945485 -0.014776
C101  C     C_R   0.215877 0.731160 0.956735 -0.017541
C102  C     C_R   0.787203 0.266206 0.047759 -0.013839
C103  C     C_R   0.774040 0.720547 0.027721 -0.025681
C104  C     C_R   0.219583 0.289729 0.982991 -0.023670
C105  C     C_R   0.348411 0.781899 0.035358 0.137237
C106  C     C_R   0.661350 0.208283 0.980609 0.133585
C107  C     C_R   0.647686 0.778616 0.958093 0.137953
C108  C     C_R   0.370096 0.280087 0.121813 0.145436
C109  C     C_R   0.847910 0.282538 0.034291 0.140164
C110  C     C_R   0.151550 0.718460 0.964788 0.139397
C111  C     C_R   0.144317 0.288378 0.968675 0.142090
C112  C     C_R   0.833129 0.702013 0.011645 0.131872
Cu1   Cu    Cu3+1 0.526640 0.000000 0.436960 0.928095
Cu2   Cu    Cu3+1 0.473360 0.000000 0.563040 0.930202
Cu3   Cu    Cu3+1 0.026640 0.500000 0.436960 0.931726
Cu4   Cu    Cu3+1 0.973360 0.500000 0.563040 0.926348
H1    H     H_    0.376923 0.788827 0.918323 0.151174
H2    H     H_    0.642621 0.195804 0.107526 0.152414
H3    H     H_    0.624908 0.789908 0.080563 0.148895
H4    H     H_    0.437540 0.317453 0.067354 0.145724
H5    H     H_    0.870457 0.293498 0.911414 0.144104
H6    H     H_    0.123454 0.711016 0.082196 0.152998
H7    H     H_    0.077440 0.237842 0.013645 0.142261
H8    H     H_    0.852696 0.692223 0.885108 0.159440
H9    H     H_    0.371342 0.976783 0.009297 0.130773
H10   H     H_    0.630066 0.017765 0.991631 0.128449
H11   H     H_    0.867235 0.510992 0.006338 0.127003
H12   H     H_    0.128772 0.530482 0.990528 0.134701
H13   H     H_    0.358374 0.874736 0.170086 0.149287
H14   H     H_    0.647855 0.120324 0.835503 0.146505
H15   H     H_    0.643105 0.871896 0.829449 0.152208
H16   H     H_    0.396174 0.166418 0.228286 0.152587
H17   H     H_    0.855806 0.374247 0.168691 0.150073
H18   H     H_    0.140514 0.625952 0.829128 0.149154
H19   H     H_    0.098289 0.324067 0.753863 0.137114
H20   H     H_    0.844255 0.614125 0.158243 0.144043
H21   H     H_    0.299110 0.844281 0.398008 0.152698
H22   H     H_    0.693611 0.160873 0.595586 0.150885
H23   H     H_    0.691248 0.840677 0.590012 0.156245
H24   H     H_    0.246617 0.098793 0.317044 0.144755
H25   H     H_    0.813733 0.335531 0.413555 0.142613
H26   H     H_    0.202380 0.654635 0.603719 0.154533
H27   H     H_    0.259772 0.406415 0.700233 0.143827
H28   H     H_    0.806127 0.660743 0.403011 0.153707
H29   H     H_    0.301001 0.736323 0.733091 0.131198
H30   H     H_    0.720185 0.249912 0.291495 0.129824
H31   H     H_    0.706068 0.741405 0.270430 0.131502
H32   H     H_    0.378224 0.360654 0.880747 0.132440
H33   H     H_    0.790865 0.243519 0.723957 0.130511
H34   H     H_    0.200075 0.762796 0.268265 0.131723
H35   H     H_    0.133104 0.164671 0.167390 0.135902
H36   H     H_    0.781584 0.752335 0.707932 0.130292
H37   H     H_    0.282714 0.973006 0.804983 0.140879
H38   H     H_    0.718408 0.022568 0.195863 0.141108
H39   H     H_    0.778556 0.509006 0.801447 0.140945
H40   H     H_    0.218183 0.526132 0.195494 0.142966
H41   H     H_    0.447799 0.991696 0.186832 0.132473
H42   H     H_    0.552481 0.007093 0.813058 0.127766
H43   H     H_    0.946824 0.500365 0.186214 0.125656
H44   H     H_    0.052152 0.510860 0.813251 0.133354
H45   H     H_    0.258042 0.979667 0.626164 0.144566
H46   H     H_    0.742391 0.018970 0.374469 0.144658
H47   H     H_    0.755970 0.499092 0.624639 0.139539
H48   H     H_    0.242740 0.513122 0.373629 0.145136
N1    N     N_R   0.433280 0.000000 0.657760 -0.169117
N2    N     N_R   0.566720 0.000000 0.342240 -0.172058
N3    N     N_R   0.933280 0.500000 0.657760 -0.170182
N4    N     N_R   0.066720 0.500000 0.342240 -0.168411
O1    O     O_R   0.600040 0.935040 0.546740 -0.591094
O2    O     O_R   0.399960 0.064960 0.453260 -0.584379
O3    O     O_R   0.399960 0.935040 0.453260 -0.585593
O4    O     O_R   0.600040 0.064960 0.546740 -0.585153
O5    O     O_R   0.100040 0.435040 0.546740 -0.582721
O6    O     O_R   0.899960 0.564960 0.453260 -0.587597
O7    O     O_R   0.899960 0.435040 0.453260 -0.583623
O8    O     O_R   0.100040 0.564960 0.546740 -0.585988
O9    O     O_R   0.555010 0.935070 0.653220 -0.583195
O10   O     O_R   0.444990 0.064930 0.346780 -0.578902
O11   O     O_R   0.444990 0.935070 0.346780 -0.587744
O12   O     O_R   0.555010 0.064930 0.653220 -0.585067
O13   O     O_R   0.055010 0.435070 0.653220 -0.579893
O14   O     O_R   0.944990 0.564930 0.346780 -0.583912
O15   O     O_R   0.944990 0.435070 0.346780 -0.584946
O16   O     O_R   0.055010 0.564930 0.653220 -0.587025
C113  C     C_3   0.436928 0.797466 0.138783 -0.402774
C114  C     C_3   0.499099 0.750756 0.153731 -0.834136
H49   H     H_    0.480974 0.701672 0.155053 0.260938
H50   H     H_    0.503949 0.755901 0.083667 0.238290
H51   H     H_    0.560924 0.760000 0.236525 0.234083
H52   H     H_    0.452584 0.845835 0.128991 0.201927
H53   H     H_    0.446436 0.794424 0.220970 0.220894
C115  C     C_3   0.572712 0.189379 0.882701 -0.399971
C116  C     C_3   0.509443 0.229834 0.877771 -0.822483
H54   H     H_    0.509733 0.219552 0.951609 0.244275
H55   H     H_    0.522252 0.280669 0.877621 0.252879
H56   H     H_    0.446799 0.219252 0.797500 0.245262
H57   H     H_    0.557922 0.196206 0.797432 0.221014
H58   H     H_    0.563091 0.139117 0.892776 0.203335
C117  C     C_3   0.559642 0.797433 0.857646 -0.399095
C118  C     C_3   0.496066 0.752722 0.843873 -0.839110
H59   H     H_    0.509973 0.703266 0.837085 0.260272
H60   H     H_    0.494944 0.756771 0.917426 0.239296
H61   H     H_    0.433869 0.764993 0.764129 0.233480
H62   H     H_    0.547478 0.846202 0.870652 0.204202
H63   H     H_    0.548048 0.795179 0.773955 0.220808
C119  C     C_3   0.446640 0.280148 0.247967 -0.413058
C120  C     C_3   0.484170 0.345958 0.289845 -0.830573
H64   H     H_    0.511137 0.362337 0.248418 0.243903
H65   H     H_    0.436661 0.380072 0.271151 0.258182
H66   H     H_    0.534257 0.344705 0.384422 0.238840
H67   H     H_    0.432404 0.265221 0.305676 0.216696
H68   H     H_    0.493404 0.247629 0.260072 0.196656
C121  C     C_3   0.936998 0.298908 0.134170 -0.398994
C122  C     C_3   0.996831 0.249521 0.149589 -0.842057
H69   H     H_    0.983528 0.202815 0.168872 0.255411
H70   H     H_    0.992314 0.245437 0.071284 0.236777
H71   H     H_    0.060932 0.263070 0.222512 0.246436
H72   H     H_    0.952424 0.345907 0.118786 0.204063
H73   H     H_    0.949227 0.299702 0.218247 0.221785
C123  C     C_3   0.062630 0.704019 0.861513 -0.408361
C124  C     C_3   0.002317 0.752995 0.846066 -0.832573
H74   H     H_    0.000339 0.752158 0.919170 0.246877
H75   H     H_    0.020186 0.800910 0.838361 0.259515
H76   H     H_    0.939372 0.742670 0.766210 0.234120
H77   H     H_    0.052981 0.705490 0.779165 0.220852
H78   H     H_    0.045359 0.656539 0.872176 0.202921
C125  C     C_3   0.074924 0.336279 0.897959 -0.410732
C126  C     C_3   0.041926 0.361514 0.959137 -0.819616
H79   H     H_    0.011911 0.324665 0.974397 0.232850
H80   H     H_    0.091884 0.384158 0.041968 0.271687
H81   H     H_    0.992891 0.395974 0.902084 0.249923
H82   H     H_    0.096641 0.378588 0.879598 0.222159
H83   H     H_    0.022849 0.314167 0.815951 0.196186
C127  C     C_3   0.919928 0.678506 0.108892 -0.380821
C128  C     C_3   0.987554 0.708870 0.110014 -0.857857
H84   H     H_    0.987814 0.688492 0.041379 0.244427
H85   H     H_    0.979065 0.760728 0.098709 0.259976
H86   H     H_    0.048641 0.698896 0.193679 0.239750
H87   H     H_    0.936671 0.690108 0.194044 0.221018
H88   H     H_    0.922886 0.626749 0.101780 0.202328
C129  C     C_3   0.716645 0.010878 0.524365 -0.811386
H89   H     H_    0.699318 0.997949 0.577948 0.271639
H90   H     H_    0.767417 0.978209 0.550394 0.190347
H91   H     H_    0.741739 0.059517 0.547246 0.201335
C130  C     C_3   0.283125 0.990067 0.476018 -0.825100
H92   H     H_    0.301136 0.000990 0.422619 0.267531
H93   H     H_    0.255345 0.942282 0.452342 0.201198
H94   H     H_    0.234301 0.024614 0.450906 0.190229
C131  C     C_3   0.217628 0.503034 0.523695 -0.829732
H95   H     H_    0.198606 0.499181 0.577346 0.270204
H96   H     H_    0.259456 0.462784 0.546523 0.195143
H97   H     H_    0.253794 0.547280 0.549390 0.197320
C132  C     C_3   0.785822 0.482214 0.477710 -0.792531
H98   H     H_    0.790786 0.512426 0.421830 0.253845
H99   H     H_    0.788748 0.431788 0.462381 0.221875
H100  H     H_    0.722541 0.490178 0.448717 0.179408

loop_
_geom_bond_atom_site_label_1
_geom_bond_atom_site_label_2
_ccdc_geom_bond_type
C72   H27   S    
C44   C48   A    
C54   C70   A    
C88   C96   A    
C14   H6    S    
C29   C33   A    
C33   C45   A    
C5    C56   S    
C85   C93   A    
C106  C115  S    
C6    C55   S    
C23   C132  S    
C53   C69   A    
C76   C84   A    
C126  H80   S    
C1    C52   S    
C121  H73   S    
C113  H52   S    
C21   C130  S    
C121  C122  S    
C99   C108  A    
C62   C70   A    
C131  H95   S    
C124  H74   S    
C80   H19   S    
C49   C65   A    
C6    O14   A    
C57   C89   A    
C32   C36   A    
C24   C131  S    
C24   N4    A    
C37   C38   A    
C51   C75   A    
C124  H76   S    
C109  C121  S    
C55   C79   A    
C50   C74   A    
C42   C46   A    
C132  H98   S    
C68   H23   S    
C76   H15   S    
C122  H70   S    
C62   H30   S    
C10   C94   A    
C9    C105  A    
Cu3   Cu4   S    
C20   H48   S    
C63   C95   A    
C117  H63   S    
C80   C88   A    
C21   N1    A    
C30   C38   A    
C26   H41   S    
Cu2   O2    S    
C129  H89   S    
C60   H36   S    
C73   C81   A    
C37   C42   A    
C61   H29   S    
C14   C90   A    
C13   C109  A    
C86   C94   A    
C77   C85   A    
C59   C67   A    
C12   H4    S    
C1    O9    A    
C119  H67   S    
C58   C66   A    
C40   C43   A    
C44   H12   S    
C20   C24   A    
C118  H59   S    
C56   C72   A    
C57   H33   S    
C128  H85   S    
C120  H66   S    
C128  H84   S    
Cu4   N3    S    
C34   C46   A    
C115  H58   S    
C110  C123  S    
C130  H94   S    
C97   C102  A    
C52   C68   A    
C127  H87   S    
C81   C89   A    
C78   C86   A    
C32   C40   A    
C125  H82   S    
C48   H40   S    
C35   C47   A    
C117  C118  S    
C124  H75   S    
C83   C99   A    
C130  H92   S    
C64   H32   S    
C82   C98   A    
C15   H7    S    
C17   C33   A    
C4    O12   A    
C46   H38   S    
C63   H31   S    
C123  C124  S    
C88   C104  A    
C3    C50   S    
C3    O3    A    
C113  H53   S    
Cu1   O4    S    
C60   C92   A    
C25   C29   A    
Cu2   O3    S    
C125  H83   S    
C131  H96   S    
C30   C34   A    
C27   C31   A    
C120  H64   S    
C84   C100  A    
C75   C83   A    
C41   H9    S    
C28   C32   A    
C64   C96   A    
C38   C41   A    
C108  C119  S    
C11   H3    S    
C43   H11   S    
C39   C40   A    
C12   C108  A    
C42   H10   S    
C119  C120  S    
Cu1   O1    S    
C6    O6    A    
C116  H55   S    
C69   H26   S    
C15   C91   A    
C100  C103  A    
C17   C21   A    
C3    O11   A    
C87   C95   A    
C103  C112  A    
C129  H90   S    
C20   C36   A    
C19   C23   A    
C62   C94   A    
Cu3   O8    S    
C10   H2    S    
C15   C111  A    
C132  H100  S    
C7    O7    A    
C13   H5    S    
C84   C92   A    
C98   C105  A    
C125  C126  S    
C5    O13   A    
Cu2   O9    S    
C57   C65   A    
Cu4   O13   S    
C50   C66   A    
C123  H78   S    
C19   H47   S    
C115  H57   S    
Cu1   O10   S    
C67   H24   S    
C100  C107  A    
C79   C87   A    
C17   H45   S    
Cu3   N4    S    
C2    O2    A    
C23   N3    A    
C65   H22   S    
Cu1   O11   S    
C79   H20   S    
C117  H62   S    
C26   C30   A    
Cu2   O12   S    
C130  H93   S    
C11   C107  A    
C53   C77   A    
C128  H86   S    
C87   C103  A    
C10   C106  A    
C45   H37   S    
C127  C128  S    
C97   C106  A    
C114  H50   S    
C86   C102  A    
C9    C93   A    
Cu1   N2    S    
Cu3   O14   S    
C85   C101  A    
C75   H16   S    
C16   C112  A    
Cu2   N1    S    
C132  H99   S    
Cu1   Cu2   S    
C59   C91   A    
C61   C69   A    
C14   C110  A    
C73   H14   S    
C26   N2    A    
C70   H25   S    
C99   C104  A    
C4    O4    A    
Cu4   O7    S    
C13   C89   A    
C122  H69   S    
C5    O5    A    
C27   H44   S    
C63   C71   A    
C52   C76   A    
C122  H71   S    
C82   C90   A    
C8    C53   S    
C104  C111  A    
Cu3   O15   S    
C121  H72   S    
C8    O8    A    
C16   C92   A    
C39   C44   A    
C59   H35   S    
C22   C129  S    
C98   C101  A    
C83   C91   A    
C28   N4    A    
C105  C113  S    
C56   C80   A    
C127  H88   S    
Cu4   O6    S    
C4    C49   S    
C58   C90   A    
C129  H91   S    
C25   N1    A    
C115  C116  S    
C114  H51   S    
C18   C22   A    
C101  C110  A    
C111  C125  S    
Cu3   O5    S    
C19   C35   A    
C116  H56   S    
C107  C117  S    
C18   H46   S    
C8    O16   A    
C113  C114  S    
C51   C67   A    
C66   H21   S    
C47   H39   S    
C18   C34   A    
C118  H61   S    
C112  C127  S    
Cu4   O16   S    
C31   C35   A    
C1    O1    A    
C81   C97   A    
C31   C39   A    
C123  H77   S    
C36   C48   A    
C49   C73   A    
C7    O15   A    
C64   C72   A    
C16   H8    S    
C78   H17   S    
C55   C71   A    
C131  H97   S    
C2    C51   S    
C28   H43   S    
C126  H79   S    
C22   N2    A    
C119  H68   S    
C11   C95   A    
C60   C68   A    
C118  H60   S    
C116  H54   S    
C77   H18   S    
C74   H13   S    
C29   C37   A    
C25   H42   S    
C120  H65   S    
C41   C45   A    
C12   C96   A    
C102  C109  A    
C2    O10   A    
C7    C54   S    
C114  H49   S    
C61   C93   A    
C43   C47   A    
C126  H81   S    
C74   C82   A    
C9    H1    S    
C58   H34   S    
C27   N3    A    
C71   H28   S    
C54   C78   A    
