data_mof_unit_20773.cif
_audit_creation_date              2012-12-11T15:09:06-0500
_audit_creation_method            fapswitch 2.2
_symmetry_space_group_name_H-M    P1
_symmetry_Int_Tables_number       1
_space_group_crystal_system       triclinic
_cell_length_a                    26.035421
_cell_length_b                    27.519719
_cell_length_c                    8.464691
_cell_angle_alpha                 90.000606
_cell_angle_beta                  96.223579
_cell_angle_gamma                 89.999142
_cell_volume                      6029.10147737

loop_
_atom_site_label
_atom_site_type_symbol
_atom_type_description
_atom_site_fract_x
_atom_site_fract_y
_atom_site_fract_z
_atom_type_partial_charge
Ba1   Ba    Ba6+2 0.999910 0.465960 0.844870 1.674056
Ba2   Ba    Ba6+2 0.999910 0.534040 0.344870 1.674074
Ba3   Ba    Ba6+2 0.499910 0.965960 0.844870 1.674062
Ba4   Ba    Ba6+2 0.499910 0.034040 0.344870 1.674045
C1    C     C_3   0.047412 0.244473 0.675483 -0.243481
C2    C     C_R   0.845531 0.641947 0.601171 -0.127927
C3    C     C_3   0.520058 0.206398 0.147052 0.355121
C4    C     C_R   0.911957 0.385748 0.303362 -0.240775
C5    C     C_R   0.911940 0.614264 0.803389 -0.240637
C6    C     C_R   0.411947 0.885738 0.303421 -0.240592
C7    C     C_R   0.411959 0.114251 0.803379 -0.240787
C8    C     C_R   0.029608 0.207249 0.550588 0.116246
C9    C     C_R   0.986397 0.177808 0.567359 0.004158
C10   C     C_R   0.970344 0.143091 0.451793 -0.061788
C11   C     C_R   0.997519 0.137164 0.319522 -0.060478
C12   C     C_R   0.040704 0.166040 0.302456 -0.043472
C13   C     C_R   0.345553 0.858044 0.101179 -0.127906
C14   C     C_R   0.056569 0.201005 0.417194 0.008969
C15   C     C_R   0.030030 0.792799 0.051533 0.116147
C16   C     C_R   0.987527 0.822960 0.070208 0.002236
C17   C     C_R   0.971647 0.857909 0.955248 -0.061924
C18   C     C_R   0.998302 0.863349 0.821686 -0.060664
C19   C     C_R   0.040804 0.833767 0.802760 -0.043513
C20   C     C_R   0.056495 0.798578 0.916912 0.009821
C21   C     C_R   0.530238 0.707194 0.551935 0.116022
C22   C     C_R   0.488023 0.676735 0.571244 0.001488
C23   C     C_R   0.472244 0.641706 0.456445 -0.061915
C24   C     C_R   0.345648 0.142003 0.600998 -0.128102
C25   C     C_R   0.498717 0.636490 0.322415 -0.060732
C26   C     C_R   0.540940 0.666368 0.302871 -0.043482
C27   C     C_R   0.556528 0.701631 0.416869 0.010141
C28   C     C_R   0.529705 0.292750 0.050812 0.116174
C29   C     C_R   0.486613 0.322324 0.067796 0.003857
C30   C     C_R   0.470619 0.357074 0.952279 -0.061779
C31   C     C_R   0.497736 0.362900 0.819847 -0.060519
C32   C     C_R   0.540806 0.333891 0.802574 -0.043434
C33   C     C_R   0.556610 0.298895 0.917268 0.009097
C34   C     C_R   0.833068 0.319115 0.199689 -0.012057
C35   C     C_R   0.832975 0.680837 0.699874 -0.012018
C36   C     C_R   0.332994 0.819156 0.199884 -0.011940
C37   C     C_R   0.333074 0.180888 0.699703 -0.012045
C38   C     C_R   0.859908 0.315520 0.353803 -0.073772
C39   C     C_R   0.859873 0.684477 0.853898 -0.073684
C40   C     C_R   0.359887 0.815520 0.353918 -0.073597
C41   C     C_3   0.047706 0.755388 0.175916 -0.243847
C42   C     C_R   0.359913 0.184483 0.853818 -0.073750
C43   C     C_R   0.898762 0.349101 0.405847 0.094197
C44   C     C_R   0.898759 0.650917 0.905899 0.094221
C45   C     C_R   0.398772 0.849079 0.405924 0.094243
C46   C     C_R   0.398767 0.150902 0.905863 0.094203
C47   C     C_R   0.794046 0.234395 0.190883 -0.073350
C48   C     C_R   0.794072 0.765595 0.690435 -0.073277
C49   C     C_R   0.294056 0.734408 0.190602 -0.073233
C50   C     C_R   0.294042 0.265606 0.690926 -0.073333
C51   C     C_R   0.254120 0.701568 0.141118 -0.062747
C52   C     C_3   0.547827 0.744670 0.676176 -0.244006
C53   C     C_R   0.254093 0.298436 0.641464 -0.062937
C54   C     C_R   0.754099 0.201563 0.141427 -0.062941
C55   C     C_R   0.754140 0.798439 0.640951 -0.062728
C56   C     C_R   0.209634 0.716796 0.043701 0.061246
C57   C     C_R   0.209711 0.283247 0.543466 0.061255
C58   C     C_R   0.709708 0.216752 0.043470 0.061261
C59   C     C_R   0.709621 0.783199 0.543724 0.061272
C60   C     C_R   0.207051 0.765933 0.996371 -0.072166
C61   C     C_R   0.207283 0.234168 0.495439 -0.072198
C62   C     C_R   0.707268 0.265834 0.995487 -0.072207
C63   C     C_3   0.547456 0.255500 0.175667 -0.243539
C64   C     C_R   0.706987 0.734045 0.496611 -0.072188
C65   C     C_R   0.746835 0.298679 0.046076 -0.074959
C66   C     C_R   0.746571 0.701194 0.547122 -0.074992
C67   C     C_R   0.246631 0.798781 0.046910 -0.074984
C68   C     C_R   0.246850 0.201325 0.546041 -0.074958
C69   C     C_3   0.983485 0.285880 0.062060 0.628391
C70   C     C_3   0.983472 0.714109 0.561853 0.627943
C71   C     C_3   0.483474 0.785894 0.061776 0.627762
C72   C     C_3   0.483482 0.214120 0.562072 0.628324
C73   C     C_R   0.790931 0.283621 0.144745 0.052013
C74   C     C_R   0.884629 0.391499 0.153240 0.061875
C75   C     C_R   0.790817 0.716315 0.644996 0.051892
C76   C     C_R   0.290838 0.783675 0.144990 0.051862
C77   C     C_R   0.290936 0.216381 0.644756 0.052003
C78   C     C_R   0.137676 0.686693 0.839991 -0.106531
C79   C     C_R   0.137666 0.313309 0.339929 -0.105956
C80   C     C_R   0.637675 0.186682 0.839920 -0.106046
C81   C     C_R   0.637693 0.813319 0.339970 -0.106767
C82   C     C_R   0.097630 0.654084 0.790222 0.071875
C83   C     C_R   0.097612 0.345910 0.290212 0.072062
C84   C     C_R   0.597617 0.154085 0.790210 0.072049
C85   C     C_R   0.884581 0.608489 0.653308 0.061811
C86   C     C_R   0.597643 0.845925 0.290203 0.071838
C87   C     C_R   0.114700 0.609526 0.037973 0.031270
C88   C     C_R   0.114694 0.390469 0.537957 0.031324
C89   C     C_R   0.614695 0.109530 0.037960 0.031321
C90   C     C_R   0.614704 0.890477 0.537970 0.031247
C91   C     C_R   0.154510 0.642467 0.088708 -0.144264
C92   C     C_R   0.154521 0.357538 0.588637 -0.144270
C93   C     C_R   0.654523 0.142460 0.088640 -0.144280
C94   C     C_R   0.654513 0.857536 0.588712 -0.144277
C95   C     C_R   0.166430 0.681885 0.991101 -0.026817
C96   C     C_R   0.384591 0.891511 0.153329 0.061796
C97   C     C_R   0.166458 0.318131 0.490982 -0.026755
C98   C     C_R   0.666461 0.181865 0.990982 -0.026767
C99   C     C_R   0.666432 0.818119 0.491102 -0.026852
C100  C     C_R   0.085526 0.616643 0.891289 -0.285443
C101  C     C_R   0.085507 0.383346 0.391298 -0.285337
C102  C     C_R   0.585508 0.116652 0.891301 -0.285343
C103  C     C_R   0.585534 0.883363 0.391277 -0.285475
C104  C     C_3   0.957501 0.239863 0.992077 -0.324222
C105  C     C_3   0.957504 0.760124 0.491779 -0.323944
C106  C     C_3   0.457516 0.739878 0.991669 -0.323828
C107  C     C_R   0.384632 0.108501 0.653254 0.061865
C108  C     C_3   0.457497 0.260134 0.492076 -0.324184
C109  C     C_3   0.148036 0.469669 0.225546 0.363568
C110  C     C_3   0.148042 0.530326 0.725568 0.363498
C111  C     C_3   0.648049 0.969679 0.225601 0.363497
C112  C     C_3   0.648037 0.030330 0.725550 0.363548
C113  C     C_3   0.196565 0.438288 0.240623 0.216646
C114  C     C_3   0.196573 0.561703 0.740654 0.216644
C115  C     C_3   0.696582 0.938303 0.240685 0.216577
C116  C     C_3   0.696567 0.061708 0.740630 0.216608
C117  C     C_3   0.850505 0.530198 0.962489 0.311301
C118  C     C_R   0.845642 0.357999 0.100986 -0.128104
C119  C     C_3   0.850519 0.469801 0.462401 0.311311
C120  C     C_3   0.350519 0.030199 0.962406 0.311313
C121  C     C_3   0.350507 0.969802 0.462496 0.311294
C122  C     C_3   0.800928 0.559915 0.942652 -0.393809
C123  C     C_3   0.800940 0.440091 0.442431 -0.393767
C124  C     C_3   0.300941 0.059912 0.942441 -0.393778
C125  C     C_3   0.300931 0.940085 0.442654 -0.393830
C126  C     C_3   0.020031 0.293590 0.647028 0.355098
C127  C     C_3   0.020209 0.706350 0.146796 0.355168
C128  C     C_3   0.520284 0.793676 0.646750 0.355171
Cl1   Cl    Cl    0.216488 0.425946 0.049605 -0.663103
Cl2   Cl    Cl    0.216489 0.574056 0.549635 -0.662860
Cl3   Cl    Cl    0.716478 0.925922 0.049661 -0.662938
Cl4   Cl    Cl    0.716488 0.074053 0.549612 -0.663172
Cl5   Cl    Cl    0.978987 0.283310 0.267922 -0.826639
Cl6   Cl    Cl    0.978867 0.716673 0.767663 -0.826355
Cl7   Cl    Cl    0.478831 0.783334 0.267573 -0.826212
Cl8   Cl    Cl    0.478978 0.216694 0.767929 -0.826561
H1    H     H_    0.032713 0.317572 0.748746 0.071824
H2    H     H_    0.189113 0.596657 0.798375 -0.020875
H3    H     H_    0.480508 0.292732 0.531385 0.123178
H4    H     H_    0.134826 0.473934 0.344657 -0.054804
H5    H     H_    0.134835 0.526056 0.844681 -0.054727
H6    H     H_    0.634850 0.973958 0.344720 -0.054637
H7    H     H_    0.634826 0.026066 0.844660 -0.054771
H8    H     H_    0.117603 0.451393 0.144274 0.038928
H9    H     H_    0.117608 0.548607 0.644313 0.038926
H10   H     H_    0.617611 0.951392 0.144375 0.038904
H11   H     H_    0.617604 0.048607 0.644278 0.038937
H12   H     H_    0.965146 0.181617 0.669538 0.062526
H13   H     H_    0.689131 0.903358 0.298467 -0.020816
H14   H     H_    0.936896 0.120697 0.465010 0.078484
H15   H     H_    0.985026 0.110327 0.230059 0.066461
H16   H     H_    0.061506 0.161781 0.199320 0.060103
H17   H     H_    0.088842 0.224149 0.399996 0.053115
H18   H     H_    0.966704 0.819537 0.173428 0.061366
H19   H     H_    0.938747 0.880868 0.969951 0.078548
H20   H     H_    0.985946 0.890371 0.732704 0.066579
H21   H     H_    0.061214 0.837672 0.698682 0.060351
H22   H     H_    0.088243 0.774932 0.898365 0.053964
H23   H     H_    0.467349 0.679985 0.674837 0.060927
H24   H     H_    0.689104 0.096665 0.798330 -0.020967
H25   H     H_    0.439566 0.618514 0.471637 0.078540
H26   H     H_    0.486440 0.609406 0.233562 0.066590
H27   H     H_    0.561211 0.662630 0.198449 0.060470
H28   H     H_    0.588059 0.725491 0.397885 0.054277
H29   H     H_    0.465410 0.318592 0.170104 0.062344
H30   H     H_    0.437264 0.379573 0.965661 0.078489
H31   H     H_    0.485290 0.389762 0.730423 0.066454
H32   H     H_    0.561564 0.338075 0.699323 0.060154
H33   H     H_    0.588795 0.275657 0.899934 0.053218
H34   H     H_    0.864556 0.525470 0.844723 0.017168
H35   H     H_    0.864590 0.474548 0.344672 0.017223
H36   H     H_    0.364588 0.025451 0.844674 0.017230
H37   H     H_    0.364559 0.974528 0.344732 0.017174
H38   H     H_    0.879687 0.549684 0.044756 0.043364
H39   H     H_    0.879689 0.450302 0.544675 0.043336
H40   H     H_    0.379690 0.049698 0.044677 0.043343
H41   H     H_    0.032842 0.682257 0.248285 0.071716
H42   H     H_    0.379689 0.950317 0.544769 0.043371
H43   H     H_    0.770972 0.540578 0.862831 0.127401
H44   H     H_    0.770992 0.459452 0.362651 0.127426
H45   H     H_    0.270991 0.040552 0.862662 0.127427
H46   H     H_    0.270976 0.959421 0.362824 0.127411
H47   H     H_    0.807747 0.595794 0.890107 0.049988
H48   H     H_    0.807759 0.404227 0.389774 0.049976
H49   H     H_    0.307760 0.095775 0.889784 0.049976
H50   H     H_    0.307752 0.904205 0.390118 0.049974
H51   H     H_    0.786538 0.565540 0.060126 0.121808
H52   H     H_    0.532888 0.817820 0.748136 0.071701
H53   H     H_    0.786539 0.434433 0.559872 0.121788
H54   H     H_    0.286541 0.065572 0.059884 0.121787
H55   H     H_    0.286538 0.934463 0.560125 0.121798
H56   H     H_    0.032698 0.310387 0.538890 0.052511
H57   H     H_    0.032840 0.689651 0.038460 0.052126
H58   H     H_    0.532906 0.810329 0.538334 0.051973
H59   H     H_    0.532728 0.189623 0.038884 0.052442
H60   H     H_    0.089758 0.250350 0.677824 0.049030
H61   H     H_    0.090047 0.749477 0.178283 0.048955
H62   H     H_    0.590169 0.750597 0.678664 0.048966
H63   H     H_    0.532725 0.182393 0.248724 0.071830
H64   H     H_    0.589804 0.249615 0.178113 0.049043
H65   H     H_    0.918131 0.236240 0.030105 0.112402
H66   H     H_    0.918061 0.763666 0.529314 0.112378
H67   H     H_    0.418037 0.736378 0.028956 0.112383
H68   H     H_    0.418114 0.263741 0.530027 0.112404
H69   H     H_    0.176350 0.636786 0.203377 0.133201
H70   H     H_    0.176358 0.363227 0.703299 0.133090
H71   H     H_    0.676360 0.136773 0.203304 0.133097
H72   H     H_    0.676352 0.863211 0.703385 0.133242
H73   H     H_    0.258756 0.663957 0.177103 0.093088
H74   H     H_    0.228272 0.457184 0.314802 0.106857
H75   H     H_    0.258651 0.336010 0.677936 0.093063
H76   H     H_    0.758663 0.163987 0.177871 0.093030
H77   H     H_    0.758801 0.836061 0.676785 0.093005
H78   H     H_    0.827794 0.220925 0.263705 0.088453
H79   H     H_    0.827923 0.779089 0.762701 0.088910
H80   H     H_    0.327880 0.720917 0.263010 0.089046
H81   H     H_    0.327784 0.279076 0.763778 0.088517
H82   H     H_    0.825027 0.362715 0.983989 0.083421
H83   H     H_    0.824854 0.637208 0.484268 0.083195
H84   H     H_    0.324889 0.862778 0.984256 0.083168
H85   H     H_    0.228281 0.542799 0.814808 0.106872
H86   H     H_    0.325037 0.137289 0.483996 0.083413
H87   H     H_    0.174144 0.779644 0.921387 0.049785
H88   H     H_    0.174521 0.220481 0.419800 0.049930
H89   H     H_    0.674493 0.279521 0.919901 0.049910
H90   H     H_    0.674034 0.720327 0.421837 0.049736
H91   H     H_    0.742231 0.336253 0.009558 0.057706
H92   H     H_    0.741876 0.663572 0.511223 0.057790
H93   H     H_    0.241960 0.836392 0.010855 0.057764
H94   H     H_    0.242252 0.163752 0.509493 0.057700
H95   H     H_    0.147268 0.714703 0.758416 0.076332
H96   H     H_    0.728295 0.957216 0.314780 0.106871
H97   H     H_    0.147251 0.285321 0.258274 0.076304
H98   H     H_    0.647264 0.214667 0.758263 0.076308
H99   H     H_    0.647293 0.785307 0.258407 0.076341
H100  H     H_    0.850408 0.287165 0.434332 0.072527
H101  H     H_    0.850391 0.712855 0.934375 0.072734
H102  H     H_    0.350406 0.787144 0.434399 0.072728
H103  H     H_    0.350413 0.212838 0.934347 0.072540
H104  H     H_    0.055417 0.591005 0.850924 0.069374
H105  H     H_    0.055390 0.408980 0.350957 0.069394
H106  H     H_    0.555390 0.091021 0.850963 0.069392
H107  H     H_    0.728274 0.042809 0.814800 0.106834
H108  H     H_    0.555422 0.909000 0.350915 0.069381
H109  H     H_    0.041139 0.230078 0.794201 0.106962
H110  H     H_    0.041435 0.769631 0.294818 0.107611
H111  H     H_    0.541527 0.730480 0.795115 0.107897
H112  H     H_    0.541156 0.269877 0.294383 0.107091
H113  H     H_    0.942004 0.411412 0.344049 0.059255
H114  H     H_    0.942018 0.588624 0.844009 0.059264
H115  H     H_    0.442022 0.911380 0.344044 0.059277
H116  H     H_    0.442006 0.088587 0.844066 0.059271
H117  H     H_    0.961648 0.317605 0.008701 0.054458
H118  H     H_    0.189100 0.403331 0.298311 -0.021004
H119  H     H_    0.961668 0.682381 0.508389 0.054857
H120  H     H_    0.461680 0.817621 0.008270 0.054997
H121  H     H_    0.461649 0.182393 0.508713 0.054490
H122  H     H_    0.953094 0.241138 0.861553 0.113158
H123  H     H_    0.953277 0.758921 0.361246 0.113666
H124  H     H_    0.453381 0.741037 0.861130 0.113853
H125  H     H_    0.453118 0.258872 0.361549 0.113236
H126  H     H_    0.980532 0.207268 0.031307 0.123176
H127  H     H_    0.980438 0.792733 0.531468 0.123084
H128  H     H_    0.480402 0.707263 0.031605 0.123068
O1    O     O_2   0.898940 0.431940 0.867860 -0.463669
O2    O     O_3   0.035822 0.713138 0.533098 -0.625786
O3    O     O_3   0.535833 0.786861 0.033118 -0.625900
O4    O     O_3   0.535810 0.213136 0.533084 -0.625600
O5    O     O_3   0.058810 0.523750 0.066650 -0.504263
O6    O     O_3   0.058810 0.476250 0.566650 -0.504259
O7    O     O_3   0.558810 0.023750 0.066650 -0.504242
O8    O     O_3   0.558810 0.976250 0.566650 -0.504269
O9    O     O_3   0.941140 0.476130 0.123050 -0.495137
O10   O     O_3   0.941140 0.523870 0.623050 -0.495112
O11   O     O_3   0.441140 0.976130 0.123050 -0.495097
O12   O     O_2   0.898940 0.568060 0.367860 -0.463805
O13   O     O_3   0.441140 0.023870 0.623050 -0.495133
O14   O     O_3   0.982430 0.389880 0.635700 -0.505022
O15   O     O_3   0.982430 0.610120 0.135700 -0.505077
O16   O     O_3   0.482430 0.889880 0.635700 -0.505102
O17   O     O_3   0.482430 0.110120 0.135700 -0.505036
O18   O     O_2   0.899863 0.347925 0.738118 -0.504261
O19   O     O_2   0.899981 0.652202 0.238240 -0.504397
O20   O     O_2   0.400027 0.847753 0.738286 -0.504479
O21   O     O_2   0.399880 0.152093 0.238142 -0.504291
O22   O     O_3   0.839150 0.485038 0.024837 -0.637550
O23   O     O_2   0.398940 0.931940 0.867860 -0.463858
O24   O     O_3   0.839160 0.514950 0.524818 -0.637551
O25   O     O_3   0.339160 0.985051 0.024826 -0.637551
O26   O     O_3   0.339151 0.014963 0.524837 -0.637548
O27   O     O_3   0.965975 0.287586 0.632669 -0.590493
O28   O     O_3   0.966159 0.712446 0.132443 -0.589781
O29   O     O_3   0.466236 0.787542 0.632371 -0.589505
O30   O     O_3   0.466003 0.212419 0.132658 -0.590364
O31   O     O_2   0.100770 0.431440 0.821660 -0.426630
O32   O     O_2   0.100770 0.568560 0.321660 -0.426639
O33   O     O_2   0.600770 0.931440 0.821660 -0.426619
O34   O     O_2   0.398940 0.068060 0.367860 -0.463686
O35   O     O_2   0.600770 0.068560 0.321660 -0.426645
O36   O     O_3   0.017130 0.389790 0.053700 -0.490216
O37   O     O_3   0.017130 0.610210 0.553700 -0.490161
O38   O     O_3   0.517130 0.889790 0.053700 -0.490140
O39   O     O_3   0.517130 0.110210 0.553700 -0.490213
O40   O     O_2   0.103429 0.351471 0.966389 -0.467621
O41   O     O_2   0.103431 0.648528 0.466398 -0.467591
O42   O     O_2   0.603432 0.851473 0.966382 -0.467568
O43   O     O_2   0.603427 0.148530 0.466385 -0.467629
O44   O     O_3   0.160403 0.484825 0.666728 -0.595441
O45   O     O_3   0.160402 0.515172 0.166739 -0.595415
O46   O     O_3   0.660402 0.984827 0.666741 -0.595436
O47   O     O_3   0.660404 0.015174 0.166719 -0.595465
O48   O     O_3   0.035811 0.286864 0.033053 -0.625556
P1    P     P_3+3 0.893960 0.447890 0.040050 0.980346
P2    P     P_3+3 0.063623 0.656332 0.587001 0.976379
P3    P     P_3+3 0.563627 0.843671 0.086997 0.976333
P4    P     P_3+3 0.563618 0.156332 0.586988 0.976472
P5    P     P_3+3 0.935732 0.655728 0.104011 0.968530
P6    P     P_3+3 0.935660 0.344335 0.604037 0.968316
P7    P     P_3+3 0.435672 0.155675 0.104044 0.968362
P8    P     P_3+3 0.435764 0.844248 0.604012 0.968619
P9    P     P_3+3 0.893960 0.552110 0.540050 0.980371
P10   P     P_3+3 0.393960 0.947890 0.040050 0.980358
P11   P     P_3+3 0.393960 0.052110 0.540050 0.980342
P12   P     P_3+3 0.105800 0.447360 0.649510 1.029963
P13   P     P_3+3 0.105800 0.552640 0.149510 1.029931
P14   P     P_3+3 0.605800 0.947360 0.649510 1.029900
P15   P     P_3+3 0.605800 0.052640 0.149510 1.029946
P16   P     P_3+3 0.063618 0.343667 0.086981 0.976510

loop_
_geom_bond_atom_site_label_1
_geom_bond_atom_site_label_2
_ccdc_geom_bond_type
C4    C74   A    
C79   H97   S    
C15   C16   A    
C113  Cl1   S    
Ba2   O9    S    
Ba3   O8    S    
C122  H47   S    
C127  H57   S    
C86   C103  A    
C69   H117  S    
C22   H23   S    
C30   C31   A    
C126  H1    S    
C3    H63   S    
C88   P12   S    
C112  O46   S    
Ba1   P1    S    
C104  H122  S    
C116  H107  S    
C81   C99   A    
O20   P8    D    
C49   H80   S    
C49   C51   A    
C66   C75   A    
C115  H13   S    
C16   H18   S    
C78   H95   S    
C17   H19   S    
C42   H103  S    
C125  H55   S    
C1    H60   S    
C24   C107  A    
O6    P12   S    
C6    H115  S    
C1    C8    S    
C55   H77   S    
C38   H100  S    
C69   C104  S    
Ba4   O35   S    
O14   P6    S    
C25   H26   S    
O15   P5    S    
C45   P8    S    
Ba2   O6    S    
O43   P4    D    
C128  H58   S    
C7    H116  S    
C104  H126  S    
C119  O24   S    
O18   P6    D    
C23   H25   S    
C1    C126  S    
O26   P11   S    
Ba4   P15   S    
C121  H42   S    
C80   C84   A    
C112  H7    S    
C81   C86   A    
C53   C57   A    
C43   P6    S    
C55   C59   A    
Ba4   O17   S    
C109  H4    S    
C56   C60   A    
C109  O45   S    
C4    C43   A    
C14   H17   S    
Ba2   O15   S    
C69   Cl5   S    
C91   C95   A    
O32   P13   D    
C13   C96   A    
C121  C125  S    
O1    P1    D    
C16   C17   A    
C5    C44   A    
C118  H82   S    
O3    P3    S    
C18   C19   A    
C6    C45   A    
C50   C77   A    
C21   C27   A    
O31   P12   D    
Ba2   O37   S    
C23   C25   A    
C80   C98   A    
C24   C37   A    
C65   C73   A    
C82   C100  A    
C70   O2    S    
C40   H102  S    
C111  H6    S    
C110  O44   S    
C109  H8    S    
C17   C18   A    
C32   C33   A    
C26   H27   S    
C86   P3    S    
C123  H53   S    
Ba2   O12   S    
Ba1   O1    S    
O42   P3    D    
C52   H111  S    
C88   C92   A    
O23   P10   D    
O44   P12   S    
C19   C20   A    
C106  H67   S    
C48   C75   A    
C128  H52   S    
O10   P9    S    
C11   H15   S    
C114  Cl2   S    
C9    C10   A    
C10   H14   S    
C123  H44   S    
C122  H43   S    
C87   P13   S    
C64   H90   S    
O12   P9    D    
C90   C103  A    
C32   H32   S    
C92   H70   S    
C58   C62   A    
C103  H108  S    
C49   C76   A    
C92   C97   A    
C119  H39   S    
C50   H81   S    
C21   C22   A    
C112  C116  S    
Ba1   O5    S    
C57   C97   S    
C25   C26   A    
C57   C61   A    
C89   C102  A    
O41   P2    D    
C115  H96   S    
C119  C123  S    
C83   C101  A    
C12   C14   A    
Ba4   O34   S    
C28   C33   A    
C101  H105  S    
Ba1   O6    S    
C28   C63   S    
C109  C113  S    
Ba3   O16   S    
C111  C115  S    
O28   P5    S    
Ba3   Ba4   S    
C89   C93   A    
O24   P9    S    
O21   P7    D    
O19   P5    D    
Ba3   P14   S    
C59   C64   A    
C48   H79   S    
O37   P2    S    
C79   C97   A    
Ba4   O7    S    
C93   C98   A    
C110  H5    S    
C51   H73   S    
C119  H35   S    
C15   C41   S    
Ba3   O7    S    
C120  H36   S    
C61   C68   A    
O7    P15   S    
C71   Cl7   S    
C113  H118  S    
C18   H20   S    
C124  H49   S    
C127  O28   S    
C67   H93   S    
C116  H24   S    
C87   C91   A    
C36   C40   A    
C8    C9    A    
C84   P4    S    
C10   C11   A    
O4    P4    S    
C125  H46   S    
C108  H125  S    
C112  H11   S    
C58   C98   S    
C50   C53   A    
C54   C58   A    
C79   C83   A    
O47   P15   S    
C31   H31   S    
C78   C95   A    
O36   P16   S    
C31   C32   A    
C105  H127  S    
C29   H29   S    
C106  H128  S    
C121  O26   S    
C70   Cl6   S    
C62   H89   S    
C22   C23   A    
C74   P1    S    
C117  O22   S    
C108  H3    S    
C126  H56   S    
C65   H91   S    
C26   C27   A    
C82   P2    S    
C90   C94   A    
C94   C99   A    
O2    P2    S    
C4    H113  S    
C85   P9    S    
C60   C67   A    
O45   P13   S    
C53   H75   S    
C71   C106  S    
C12   H16   S    
Ba1   O36   S    
C93   H71   S    
C68   C77   A    
C120  C124  S    
C63   H112  S    
C47   H78   S    
C51   C56   A    
O11   P10   S    
C7    C107  A    
C91   H69   S    
C1    H109  S    
C69   O48   S    
C59   C99   S    
C5    C85   A    
C114  H2    S    
C78   C82   A    
C94   H72   S    
C126  O27   S    
O48   P16   S    
O22   P1    S    
C115  Cl3   S    
C124  H45   S    
C116  Cl4   S    
C13   C36   A    
C35   C75   S    
C47   C73   A    
C117  H34   S    
C37   C77   S    
C123  H48   S    
C47   C54   A    
C6    C96   A    
C52   C128  S    
C41   C127  S    
C2    H83   S    
C3    O30   S    
Ba1   O31   S    
C80   H98   S    
O39   P4    S    
C9    H12   S    
Ba2   O32   S    
C104  H65   S    
C34   C73   S    
C44   P5    S    
Ba2   P9    S    
C46   P7    S    
C28   C29   A    
C15   C20   A    
O35   P15   D    
Ba1   O10   S    
C7    C46   A    
Ba2   O5    S    
C127  H41   S    
C71   O3    S    
C72   O4    S    
Ba3   O38   S    
C113  H74   S    
C66   H92   S    
Ba1   P12   S    
C88   C101  A    
Ba3   P10   S    
C27   H28   S    
C122  H51   S    
Ba4   O11   S    
C2    C35   A    
C110  H9    S    
C40   C45   A    
C72   H121  S    
C90   P14   S    
C5    H114  S    
C21   C52   S    
Ba3   O23   S    
C87   C100  A    
C56   C95   S    
C70   C105  S    
C70   H119  S    
C39   H101  S    
Ba2   P13   S    
O16   P8    S    
C124  H54   S    
C34   C38   A    
Ba1   O14   S    
C89   P15   S    
C62   C65   A    
C52   H62   S    
C11   C12   A    
Ba1   Ba2   S    
C63   H64   S    
O17   P7    S    
C96   P10   S    
C37   C42   A    
C36   C76   S    
O13   P11   S    
C105  H123  S    
C111  O47   S    
C39   C44   A    
C106  H124  S    
C30   H30   S    
O25   P10   S    
O5    P13   S    
O38   P3    S    
C67   C76   A    
O29   P8    S    
C72   Cl8   S    
C114  H85   S    
C128  O29   S    
Ba4   O8    S    
C108  H68   S    
C24   H86   S    
C35   C39   A    
C100  H104  S    
C3    C63   S    
Ba4   P11   S    
C61   H88   S    
O33   P14   D    
C81   H99   S    
C48   C55   A    
C41   H110  S    
C84   C102  A    
C72   C108  S    
C125  H50   S    
C29   C30   A    
O8    P14   S    
C34   C118  A    
C102  H106  S    
O34   P11   D    
C110  C114  S    
C64   C66   A    
C121  H37   S    
O30   P7    S    
O27   P6    S    
C120  O25   S    
O46   P14   S    
O9    P1    S    
C20   H22   S    
O40   P16   D    
C117  H38   S    
C2    C85   A    
C42   C46   A    
C117  C122  S    
C13   H84   S    
C111  H10   S    
C68   H94   S    
C38   C43   A    
C60   H87   S    
C3    H59   S    
C105  H66   S    
C74   C118  A    
C120  H40   S    
Ba4   O39   S    
C33   H33   S    
C83   P16   S    
Ba3   O13   S    
C71   H120  S    
C41   H61   S    
C8    C14   A    
C107  P11   S    
Ba3   O33   S    
C19   H21   S    
C54   H76   S    
