data_mof_unit_26093.cif
_audit_creation_date              2012-12-10T17:29:18-0500
_audit_creation_method            fapswitch 2.2
_symmetry_space_group_name_H-M    P1
_symmetry_Int_Tables_number       1
_space_group_crystal_system       triclinic
_cell_length_a                    12.003899
_cell_length_b                    12.888635
_cell_length_c                    13.13248
_cell_angle_alpha                 87.405362
_cell_angle_beta                  113.433169
_cell_angle_gamma                 93.42095
_cell_volume                      1860.36860533

loop_
_atom_site_label
_atom_site_type_symbol
_atom_type_description
_atom_site_fract_x
_atom_site_fract_y
_atom_site_fract_z
_atom_type_partial_charge
C1    C     C_R   0.477281 0.299477 0.498037 0.880438
C2    C     C_R   0.609688 0.484854 0.828956 -0.119342
C3    C     C_R   0.536249 0.811851 0.503067 -0.055742
C4    C     C_R   0.566178 0.491488 0.708501 0.862997
C5    C     C_R   0.464125 0.188145 0.497881 -0.052123
C6    C     C_R   0.358974 0.029167 0.518404 -0.219309
C7    C     C_R   0.365519 0.136717 0.512876 -0.210676
C8    C     C_R   0.554936 0.132865 0.486480 -0.278499
C9    C     C_R   0.549653 0.026095 0.492659 0.185643
C10   C     C_R   0.451028 0.973903 0.508929 0.186262
C11   C     C_R   0.445592 0.867106 0.514797 -0.279867
C12   C     C_R   0.556323 0.480729 0.988464 0.087059
C13   C     C_R   0.635072 0.863321 0.488492 -0.206884
C14   C     C_R   0.641754 0.970862 0.483257 -0.220509
C15   C     C_R   0.009409 0.602036 0.399788 -0.340517
C16   C     C_R   0.522808 0.700518 0.502214 0.890806
C17   C     C_R   0.129512 0.592122 0.409596 0.016678
C18   C     C_R   0.157479 0.455001 0.542497 -0.036919
C19   C     C_R   0.037321 0.462539 0.535905 0.095619
C20   C     C_R   0.962302 0.537104 0.463448 0.092179
C21   C     C_R   0.842026 0.544476 0.456706 -0.050880
C22   C     C_R   0.870524 0.407918 0.590405 0.017393
C23   C     C_R   0.529815 0.450653 0.879347 0.092875
C24   C     C_R   0.990322 0.397633 0.599655 -0.331311
C25   C     C_R   0.433294 0.503635 0.291486 0.875605
C26   C     C_R   0.261672 0.398203 0.008835 -0.199191
C27   C     C_R   0.391129 0.490268 0.173060 -0.057728
C28   C     C_R   0.726004 0.526638 0.893333 -0.193430
C29   C     C_R   0.759686 0.541306 0.005907 -0.147316
C30   C     C_R   0.675092 0.521272 0.053059 -0.189092
C31   C     C_R   0.462827 0.469066 0.028237 0.081787
C32   C     C_R   0.352540 0.412726 0.966945 0.181397
C33   C     C_R   0.335875 0.370067 0.866117 -0.254779
C34   C     C_R   0.423507 0.388749 0.822676 -0.207319
C35   C     C_R   0.475491 0.513536 0.126849 -0.253383
C36   C     C_R   0.281977 0.435252 0.113127 -0.200508
H1    H     H_    0.216091 0.416226 0.149143 0.156278
H2    H     H_    0.045592 0.339372 0.656213 0.135458
H3    H     H_    0.164997 0.642571 0.360360 0.130029
H4    H     H_    0.254334 0.323661 0.819985 0.135807
H5    H     H_    0.215462 0.397309 0.597151 0.116004
H6    H     H_    0.177678 0.354526 0.963249 0.135671
H7    H     H_    0.553631 0.563160 0.172631 0.139185
H8    H     H_    0.789328 0.551197 0.855920 0.158358
H9    H     H_    0.706020 0.535718 0.140529 0.130856
H10   H     H_    0.849884 0.572649 0.055819 0.141727
H11   H     H_    0.408146 0.353191 0.744887 0.153758
H12   H     H_    0.705501 0.820699 0.479305 0.158261
H13   H     H_    0.369705 0.827222 0.527383 0.162732
H14   H     H_    0.282954 0.989410 0.530685 0.139058
H15   H     H_    0.717837 0.010637 0.471097 0.138947
H16   H     H_    0.295101 0.179383 0.522038 0.156177
H17   H     H_    0.630747 0.172710 0.473728 0.162352
H18   H     H_    0.783333 0.601417 0.401085 0.116905
H19   H     H_    0.835177 0.357640 0.639872 0.129062
H20   H     H_    0.954003 0.660098 0.342958 0.140780
N1    N     N_R   0.798200 0.480260 0.519790 -0.095815
N2    N     N_R   0.201820 0.519740 0.480210 -0.097023
O1    O     O_R   0.579910 0.341070 0.505280 -0.624312
O2    O     O_R   0.388440 0.353740 0.492580 -0.632313
O3    O     O_R   0.643280 0.490550 0.663120 -0.617093
O4    O     O_R   0.451810 0.503220 0.650420 -0.608108
O5    O     O_R   0.611560 0.646260 0.507420 -0.625094
O6    O     O_R   0.420090 0.658930 0.494720 -0.623203
O7    O     O_R   0.548190 0.496780 0.349580 -0.613901
O8    O     O_R   0.356720 0.509450 0.336880 -0.619884
Zn1   Zn    Zn3+2 0.627850 0.491540 0.508480 0.938917
Zn2   Zn    Zn3+2 0.372150 0.508460 0.491520 0.939011

loop_
_geom_bond_atom_site_label_1
_geom_bond_atom_site_label_2
_ccdc_geom_bond_type
C8    H17   S    
C6    C10   A    
C5    C8    A    
O8    Zn2   S    
C9    C14   A    
C5    C7    A    
C21   N1    A    
C6    C7    A    
C11   H13   S    
C16   O5    A    
C27   C36   A    
C25   C27   S    
C35   H7    S    
C9    C10   A    
C17   N2    A    
C30   H9    S    
C2    C4    S    
C19   C20   A    
C3    C13   A    
O4    Zn2   S    
C29   H10   S    
C23   C34   A    
C27   C35   A    
C32   C33   A    
C22   N1    A    
C19   C24   A    
C22   H19   S    
C13   C14   A    
C15   H20   S    
C26   C32   A    
C12   C23   A    
O2    Zn2   S    
C29   C30   A    
N1    Zn1   S    
C1    C5    S    
O6    Zn2   S    
C22   C24   A    
C26   C36   A    
C28   C29   A    
C28   H8    S    
C7    H16   S    
C33   C34   A    
C31   C35   A    
C1    O1    A    
C12   C31   A    
C15   C20   A    
O5    Zn1   S    
C18   H5    S    
C33   H4    S    
C3    C11   A    
C10   C11   A    
C3    C16   S    
C24   H2    S    
C4    O4    A    
C25   O7    A    
C20   C21   A    
C26   H6    S    
C21   H18   S    
C18   C19   A    
C17   H3    S    
C1    O2    A    
N2    Zn2   S    
C2    C23   A    
C15   C17   A    
O3    Zn1   S    
C36   H1    S    
C2    C28   A    
C34   H11   S    
C16   O6    A    
O1    Zn1   S    
C12   C30   A    
C4    O3    A    
C18   N2    A    
C31   C32   A    
C6    H14   S    
C25   O8    A    
C14   H15   S    
C8    C9    A    
O7    Zn1   S    
C13   H12   S    
