data_mof_unit_13816.cif
_audit_creation_date              2012-12-10T17:18:59-0500
_audit_creation_method            fapswitch 2.2
_symmetry_space_group_name_H-M    P1
_symmetry_Int_Tables_number       1
_space_group_crystal_system       triclinic
_cell_length_a                    10.178046
_cell_length_b                    10.890147
_cell_length_c                    13.52959
_cell_angle_alpha                 92.330195
_cell_angle_beta                  99.788208
_cell_angle_gamma                 96.184237
_cell_volume                      1466.53130134

loop_
_atom_site_label
_atom_site_type_symbol
_atom_type_description
_atom_site_fract_x
_atom_site_fract_y
_atom_site_fract_z
_atom_type_partial_charge
C1    C     C_R   0.054914 0.732190 0.496971 0.938010
C2    C     C_R   0.945218 0.267737 0.503367 0.950234
C3    C     C_R   0.435575 0.525381 0.131737 0.471855
C4    C     C_R   0.500169 0.358848 0.899667 0.449725
C5    C     C_R   0.298268 0.535431 0.100864 -0.331362
C6    C     C_R   0.631864 0.334403 0.927735 -0.299324
C7    C     C_2   0.085404 0.863523 0.492387 -0.500672
C8    C     C_2   0.915471 0.136498 0.509718 -0.499420
C9    C     C_2   0.000787 0.939078 0.521050 0.402679
C10   C     C_2   0.999562 0.060550 0.481142 0.400722
C11   C     C_2   0.430753 0.510873 0.508889 -0.116892
C12   C     C_2   0.569475 0.486759 0.493270 -0.086691
C13   C     C_R   0.093394 0.514447 0.686197 0.891557
C14   C     C_R   0.906919 0.486887 0.313909 0.876138
C15   C     C_R   0.140023 0.518884 0.794418 -0.160407
C16   C     C_R   0.853457 0.465280 0.207237 -0.150391
C17   C     C_R   0.111795 0.558820 0.967035 0.543132
C18   C     C_R   0.839731 0.351427 0.048418 0.529797
C19   C     C_R   0.059575 0.550750 0.863558 -0.283027
C20   C     C_R   0.910771 0.390630 0.144232 -0.218330
C21   C     C_R   0.268292 0.488707 0.828256 -0.191473
C22   C     C_R   0.730991 0.506886 0.172725 -0.187692
C23   C     C_R   0.315554 0.479221 0.929899 0.023483
C24   C     C_R   0.648005 0.454276 0.085591 0.041462
C25   C     C_R   0.240311 0.522204 0.999867 0.004011
C26   C     C_R   0.706953 0.380655 0.019677 -0.044336
C27   C     C_R   0.441526 0.437375 0.962648 -0.100010
C28   C     C_R   0.510000 0.474249 0.061538 -0.061632
H1    H     H_    0.239799 0.563238 0.156024 0.196679
H2    H     H_    0.673649 0.275994 0.877232 0.201146
H3    H     H_    0.704045 0.581185 0.216263 0.218991
H4    H     H_    0.333726 0.477568 0.774399 0.222033
H5    H     H_    0.009240 0.362186 0.169057 0.164317
H6    H     H_    0.958870 0.573045 0.837413 0.161483
H7    H     H_    0.834818 0.104112 0.548918 0.176798
H8    H     H_    0.166858 0.896391 0.454135 0.172271
H9    H     H_    0.579228 0.411286 0.441121 0.181105
H10   H     H_    0.421149 0.585165 0.562172 0.155679
H11   H     H_    0.664157 0.625317 0.587232 0.169297
H12   H     H_    0.335382 0.376596 0.410777 0.185290
N1    N     N_2   0.322180 0.446120 0.460900 -0.180936
N2    N     N_2   0.677820 0.553880 0.539100 -0.203366
O1    O     O_R   0.935190 0.693030 0.507870 -0.543346
O2    O     O_R   0.064810 0.306970 0.492130 -0.533451
O3    O     O_R   0.142080 0.658430 0.482770 -0.630133
O4    O     O_R   0.857920 0.341570 0.517230 -0.615146
O5    O     O_R   0.969700 0.527180 0.651960 -0.611069
O6    O     O_R   0.030300 0.472820 0.348040 -0.614032
O7    O     O_R   0.176600 0.492580 0.626860 -0.612142
O8    O     O_R   0.823400 0.507420 0.373140 -0.605163
Zn1   Zn    Zn3+2 0.861850 0.523100 0.516760 0.955804
Zn2   Zn    Zn3+2 0.138150 0.476900 0.483240 0.958524
O9    O     O_3   0.038224 0.598366 0.037316 -0.616278
C29   C     C_3   0.998948 0.716740 0.017016 0.083020
H13   H     H_    0.902735 0.707040 0.962790 0.153440
H14   H     H_    0.076436 0.777273 0.986562 0.118275
C30   C     C_3   0.977411 0.780679 0.114175 -0.859598
H15   H     H_    0.072225 0.791795 0.169885 0.250802
H16   H     H_    0.945292 0.873408 0.099410 0.198885
H17   H     H_    0.898395 0.725323 0.145959 0.257250
O10   O     O_3   0.902913 0.290565 0.981550 -0.605052
C31   C     C_3   0.899336 0.164326 0.002155 0.070088
H18   H     H_    0.798704 0.114853 0.970302 0.137445
H19   H     H_    0.921427 0.149916 0.084110 0.116556
C32   C     C_3   0.004336 0.108086 0.952863 -0.840059
H20   H     H_    0.105826 0.154824 0.985314 0.250359
H21   H     H_    0.001374 0.008106 0.966185 0.195081
H22   H     H_    0.984639 0.119504 0.870687 0.261554
O11   O     O_3   0.491272 0.551927 0.232590 -0.631030
C33   C     C_3   0.462960 0.669482 0.268199 0.056772
H23   H     H_    0.388935 0.654583 0.319413 0.176166
H24   H     H_    0.421451 0.728787 0.207840 0.129845
C34   C     C_3   0.590283 0.743483 0.326182 -0.829113
H25   H     H_    0.657092 0.776637 0.273521 0.222022
H26   H     H_    0.564023 0.825232 0.367181 0.217166
H27   H     H_    0.645079 0.686140 0.380962 0.296631
O12   O     O_3   0.428383 0.300273 0.811240 -0.616811
C35   C     C_3   0.362539 0.186634 0.833333 0.099866
H28   H     H_    0.290880 0.201569 0.885181 0.146407
H29   H     H_    0.436428 0.125280 0.867662 0.126896
C36   C     C_3   0.283882 0.121478 0.736351 -0.795144
H30   H     H_    0.351782 0.109349 0.681426 0.268194
H31   H     H_    0.238061 0.028966 0.752303 0.172880
H32   H     H_    0.203393 0.176631 0.703337 0.258209
O13   O     O_3   0.096564 0.100209 0.424762 -0.591891
C37   C     C_3   0.041396 0.078243 0.321768 0.097501
H33   H     H_    0.961975 0.139528 0.299259 0.131101
H34   H     H_    0.998211 0.979738 0.303862 0.127196
C38   C     C_3   0.152350 0.106109 0.260666 -0.843714
H35   H     H_    0.236330 0.051096 0.285899 0.253874
H36   H     H_    0.113592 0.081186 0.179919 0.206464
H37   H     H_    0.190342 0.206145 0.270327 0.255856
O14   O     O_3   0.903360 0.898948 0.577050 -0.599252
C39   C     C_3   0.962422 0.907415 0.679693 0.122907
H38   H     H_    0.990981 0.006143 0.706593 0.129153
H39   H     H_    0.052483 0.856443 0.693469 0.124816
C40   C     C_3   0.861353 0.850255 0.740394 -0.845844
H40   H     H_    0.833521 0.750729 0.716751 0.255974
H41   H     H_    0.906120 0.858428 0.821397 0.188258
H42   H     H_    0.769841 0.898711 0.729001 0.255097

loop_
_geom_bond_atom_site_label_1
_geom_bond_atom_site_label_2
_ccdc_geom_bond_type
C10   O13   S    
O14   C39   S    
C9    O14   S    
C7    H8    S    
C18   C26   A    
O1    Zn1   S    
C4    C27   A    
C36   H30   S    
C6    C26   A    
O12   C35   S    
C2    O4    A    
C15   C19   A    
C22   C24   A    
C3    C28   A    
C3    O11   S    
C24   C26   A    
C35   H29   S    
C30   H16   S    
C34   H25   S    
C12   H9    S    
C12   N2    D    
C36   H31   S    
C1    O1    A    
C2    O2    A    
C32   H21   S    
C31   H19   S    
C33   H23   S    
C23   C27   A    
C38   H36   S    
C9    C10   S    
N1    Zn2   S    
N2    Zn1   S    
O2    Zn2   S    
C34   H26   S    
O11   C33   S    
C40   H41   S    
C40   H40   S    
H11   N2    S    
C5    H1    S    
C21   H4    S    
C29   H14   S    
C22   H3    S    
C37   H34   S    
C4    C6    A    
C13   O5    A    
C37   H33   S    
C30   H17   S    
C14   O6    A    
O3    Zn2   S    
O13   C37   S    
O4    Zn1   S    
C19   H6    S    
C8    H7    S    
C11   H10   S    
C31   H18   S    
C15   C21   A    
C16   C20   A    
C32   H22   S    
C33   C34   S    
O8    Zn1   S    
C39   H38   S    
C38   H37   S    
C39   H39   S    
C13   O7    A    
C20   H5    S    
H12   N1    S    
C6    H2    S    
C13   C15   S    
C34   H27   S    
C14   C16   S    
C17   O9    S    
C36   H32   S    
C7    C9    D    
C29   H13   S    
C16   C22   A    
C40   H42   S    
C31   C32   S    
C1    C7    S    
C2    C8    S    
C24   C28   A    
O7    Zn2   S    
C3    C5    A    
C37   C38   S    
C5    C25   A    
O5    Zn1   S    
C11   C12   S    
C18   O10   S    
O9    C29   S    
C39   C40   S    
C17   C25   A    
C21   C23   A    
C4    O12   S    
C35   H28   S    
C35   C36   S    
C1    O3    A    
C30   H15   S    
C14   O8    A    
C17   C19   A    
C11   N1    D    
C18   C20   A    
C23   C25   A    
O10   C31   S    
O6    Zn2   S    
C8    C10   D    
C32   H20   S    
C27   C28   A    
C33   H24   S    
C38   H35   S    
C29   C30   S    
