data_mof_unit_44100.cif
_audit_creation_date              2013-03-05T16:48:43-0500
_audit_creation_method            fapswitch 2.2
_symmetry_space_group_name_H-M    P1
_symmetry_Int_Tables_number       1
_space_group_crystal_system       triclinic
_cell_length_a                    27.771201
_cell_length_b                    8.916326
_cell_length_c                    8.097945
_cell_angle_alpha                 90.026828
_cell_angle_beta                  89.999966
_cell_angle_gamma                 90.000034
_cell_volume                      2005.18928746

loop_
_atom_site_label
_atom_site_type_symbol
_atom_site_description
_atom_site_fract_x
_atom_site_fract_y
_atom_site_fract_z
_atom_type_partial_charge
O1    O     O_R   0.500000 0.285350 0.636850 -0.613957
O2    O     O_R   0.500000 0.714650 0.363150 -0.613957
O3    O     O_R   0.500000 0.714650 0.636850 -0.613669
O4    O     O_R   0.500000 0.285350 0.363150 -0.613669
C1    C     C_R   0.500000 0.217994 0.499976 0.946742
C2    C     C_R   0.500000 0.782006 0.500024 0.946742
O5    O     O_R   0.428760 0.500000 0.636860 -0.623816
O6    O     O_R   0.571240 0.500000 0.363140 -0.623826
O7    O     O_R   0.571240 0.500000 0.636860 -0.623826
O8    O     O_R   0.428760 0.500000 0.363140 -0.623816
C3    C     C_R   0.405758 0.500000 0.500000 0.871988
C4    C     C_R   0.594244 0.500000 0.500000 0.871983
Zn1   Zn    Zn3+2 0.500000 0.500000 0.682780 0.996730
Zn2   Zn    Zn3+2 0.500000 0.500000 0.317220 0.996730
C5    C     C_R   0.177772 0.368859 0.529038 0.506363
C6    C     C_R   0.822203 0.631084 0.470648 0.506500
C7    C     C_R   0.177772 0.631144 0.470963 0.506362
C8    C     C_R   0.822203 0.368915 0.529352 0.506500
O9    O     O_2   0.202795 0.241424 0.556315 -0.534180
O10   O     O_2   0.797169 0.758420 0.442937 -0.533996
O11   O     O_2   0.202795 0.758579 0.443686 -0.534179
O12   O     O_2   0.797170 0.241579 0.557063 -0.533996
N1    N     N_R   0.201638 0.500001 0.500000 -0.360870
N2    N     N_R   0.798346 0.499999 0.500000 -0.361043
C9    C     C_R   0.277820 0.491798 0.649615 -0.096230
C10   C     C_R   0.722188 0.504588 0.350178 -0.096680
C11   C     C_R   0.277820 0.508205 0.350386 -0.096230
C12   C     C_R   0.722188 0.495410 0.649822 -0.096681
C13   C     C_R   0.327839 0.491994 0.649857 -0.205665
C14   C     C_R   0.672168 0.504413 0.349937 -0.205268
C15   C     C_R   0.327839 0.508007 0.350143 -0.205665
C16   C     C_R   0.672168 0.495587 0.650063 -0.205268
C17   C     C_R   0.252891 0.500002 0.500000 0.319543
C18   C     C_R   0.747105 0.499999 0.500000 0.320646
C19   C     C_R   0.101788 0.500001 0.500000 -0.050192
C20   C     C_R   0.898186 0.500000 0.500000 -0.050146
C21   C     C_R   0.127414 0.366368 0.529637 -0.021225
C22   C     C_R   0.872560 0.633592 0.470107 -0.021345
C23   C     C_R   0.127414 0.633635 0.470364 -0.021225
C24   C     C_R   0.872560 0.366407 0.529894 -0.021344
C25   C     C_R   0.102469 0.233472 0.558953 -0.137794
C26   C     C_R   0.897505 0.766444 0.440555 -0.137847
C27   C     C_R   0.102468 0.766530 0.441048 -0.137794
C28   C     C_R   0.897505 0.233556 0.559445 -0.137847
C29   C     C_R   0.353168 0.500000 0.500000 -0.040848
C30   C     C_R   0.646837 0.500000 0.500000 -0.040904
H1    H     H_    0.346593 0.514362 0.233074 0.164319
H2    H     H_    0.653418 0.492146 0.767305 0.164262
H3    H     H_    0.346593 0.485639 0.766927 0.164319
H4    H     H_    0.653418 0.507853 0.232695 0.164262
H5    H     H_    0.258358 0.514360 0.234680 0.138301
H6    H     H_    0.741658 0.492074 0.765669 0.137693
H7    H     H_    0.258358 0.485643 0.765321 0.138300
H8    H     H_    0.741658 0.507925 0.234331 0.137693
C31   C     C_R   0.974448 0.363894 0.530256 0.048446
C32   C     C_R   0.025526 0.636124 0.469844 0.048461
C33   C     C_R   0.974448 0.636107 0.469745 0.048446
C34   C     C_R   0.025526 0.363877 0.530157 0.048461
C35   C     C_R   0.949264 0.500000 0.500000 0.070429
C36   C     C_R   0.050710 0.500001 0.500000 0.070393
C37   C     C_R   0.947368 0.231930 0.559751 -0.220298
C38   C     C_R   0.052606 0.768143 0.440669 -0.220256
C39   C     C_R   0.947368 0.768070 0.440250 -0.220297
C40   C     C_R   0.052606 0.231859 0.559332 -0.220256
C41   C     C_1   0.500000 0.065221 0.499965 -0.182727
C42   C     C_1   0.500000 0.934779 0.500035 -0.182727
N3    N     N_1   0.500000 0.500000 0.073640 -0.035337
N4    N     N_1   0.500000 0.500000 0.926360 -0.035337
H9    H     H_    0.121428 0.129356 0.582107 0.191309
H10   H     H_    0.878545 0.870518 0.417169 0.191358
H11   H     H_    0.121428 0.870646 0.417894 0.191309
H12   H     H_    0.878545 0.129481 0.582831 0.191358
H13   H     H_    0.963263 0.124283 0.584060 0.136639
H14   H     H_    0.036711 0.875840 0.416644 0.136502
H15   H     H_    0.963263 0.875717 0.415941 0.136639
H16   H     H_    0.036711 0.124162 0.583357 0.136502

loop_
_geom_bond_atom_site_label_1
_geom_bond_atom_site_label_2
_geom_bond_distance
_ccdc_geom_bond_type
C31   C35   1.422038 A    
C20   C35   1.418492 A    
C13   H3    1.083169 S    
C11   C17   1.397368 A    
C5    O9    1.350184 S    
C7    N1    1.364603 A    
O1    C1    1.260400 A    
C19   C21   1.408566 A    
C9    H7    1.083102 S    
C22   C26   1.393054 A    
C33   C35   1.422037 A    
C34   C36   1.422028 A    
C26   H10   1.083693 S    
C32   C33   1.418503 A    
C7    C23   1.398673 A    
C8    C24   1.398663 A    
C5    C21   1.398676 A    
O7    Zn1   2.013061 S    
C10   C18   1.397339 A    
N1    C17   1.423346 S    
O6    Zn2   2.013061 S    
Zn2   N3    1.972497 S    
C8    N2    1.364467 A    
C24   C28   1.393054 A    
O3    Zn1   1.949865 S    
C6    O10   1.350178 S    
O3    C2    1.260547 A    
C5    N1    1.364604 A    
C14   H4    1.083286 S    
C12   C18   1.397339 A    
C6    N2    1.364468 A    
C15   H1    1.083170 S    
C21   C25   1.393061 A    
C16   H2    1.083284 S    
O2    C2    1.260400 A    
C10   H8    1.083206 S    
C12   C16   1.389107 A    
C11   H5    1.083101 S    
C33   C39   1.416802 A    
C9    C13   1.389099 A    
C11   C15   1.389096 A    
N3    N4    1.192665 T    
C20   C24   1.408614 A    
C4    C30   1.460571 S    
O8    Zn2   2.013064 S    
C23   C27   1.393063 A    
C34   C40   1.416780 A    
C37   H13   1.074721 S    
N2    C18   1.423024 S    
C32   C36   1.422029 A    
C13   C29   1.404502 A    
C19   C36   1.418511 A    
C19   C23   1.408567 A    
O5    C3    1.279201 A    
C2    C42   1.362178 S    
O6    C4    1.279223 A    
C40   H16   1.074701 S    
C1    C41   1.362178 S    
C10   C14   1.389107 A    
C32   C38   1.416782 A    
C3    C29   1.460490 S    
O1    Zn1   1.949524 S    
C25   H9    1.083681 S    
C27   H11   1.083682 S    
C8    O12   1.350177 S    
C16   C30   1.404709 A    
C14   C30   1.404709 A    
O4    C1    1.260547 A    
C28   C37   1.384825 A    
C20   C22   1.408613 A    
C12   H6    1.083208 S    
C39   H15   1.074722 S    
C31   C37   1.416803 A    
C28   H12   1.083692 S    
O4    Zn2   1.949866 S    
O2    Zn2   1.949523 S    
O7    C4    1.279223 A    
C7    O11   1.350185 S    
O8    C3    1.279201 A    
O5    Zn1   2.013064 S    
C41   C42   1.163061 T    
C15   C29   1.404502 A    
C31   C34   1.418503 A    
C9    C17   1.397366 A    
C38   H14   1.074702 S    
C25   C40   1.384820 A    
C26   C39   1.384825 A    
C27   C38   1.384817 A    
C6    C22   1.398663 A    
Zn1   N4    1.972497 S    
