data_mof_unit_50861.cif
_audit_creation_date              2012-12-10T18:35:47-0500
_audit_creation_method            fapswitch 2.2
_symmetry_space_group_name_H-M    P1
_symmetry_Int_Tables_number       1
_space_group_crystal_system       triclinic
_cell_length_a                    13.375433
_cell_length_b                    13.934228
_cell_length_c                    15.045216
_cell_angle_alpha                 91.55012
_cell_angle_beta                  91.534197
_cell_angle_gamma                 72.08451
_cell_volume                      2666.62796405

loop_
_atom_site_label
_atom_site_type_symbol
_atom_type_description
_atom_site_fract_x
_atom_site_fract_y
_atom_site_fract_z
_atom_type_partial_charge
C1    C     C_R   0.500779 0.500796 0.670219 0.821875
C2    C     C_R   0.978887 0.462884 0.475446 0.051632
C3    C     C_R   0.869199 0.485819 0.463375 0.071808
C4    C     C_R   0.026381 0.540114 0.467267 0.056200
C5    C     C_R   0.963453 0.641716 0.470168 0.096445
C6    C     C_R   0.857200 0.662408 0.445549 -0.192865
C7    C     C_R   0.814237 0.583809 0.433416 -0.148308
C8    C     C_R   0.133629 0.520117 0.450762 -0.002419
C9    C     C_R   0.120494 0.688287 0.510424 -0.049200
C10   C     C_R   0.818717 0.411810 0.482360 -0.145851
C11   C     C_R   0.462216 0.591418 0.907975 -0.151109
C12   C     C_R   0.701306 0.445165 0.493800 0.798552
C13   C     C_R   0.461294 0.592004 0.815459 -0.134299
C14   C     C_R   0.503376 0.501598 0.767217 -0.034692
C15   C     C_R   0.547092 0.410858 0.812270 -0.182255
C16   C     C_R   0.548513 0.410452 0.904601 -0.099591
C17   C     C_R   0.505450 0.500539 0.952346 0.124915
C18   C     C_R   0.411543 0.497206 0.092743 -0.015119
C19   C     C_R   0.412228 0.496114 0.185573 -0.228450
C20   C     C_R   0.501873 0.496731 0.234375 -0.046617
C21   C     C_R   0.592097 0.499701 0.192103 -0.212663
C22   C     C_R   0.594861 0.500314 0.099467 0.110849
C23   C     C_R   0.500023 0.498986 0.330319 0.783821
C24   C     C_R   0.503978 0.498996 0.049301 -0.034339
C25   C     C_R   0.431134 0.909647 0.442154 -0.245642
C26   C     C_R   0.437494 0.806622 0.440528 0.096481
C27   C     C_R   0.556128 0.777781 0.563573 0.188653
C28   C     C_R   0.550884 0.880185 0.567082 -0.319830
C29   C     C_R   0.489151 0.948159 0.505830 0.110641
C30   C     C_R   0.504644 0.109785 0.583522 -0.269220
C31   C     C_R   0.509466 0.209550 0.579179 0.053062
C32   C     C_R   0.487233 0.205573 0.423248 0.185865
C33   C     C_R   0.481843 0.106540 0.425936 -0.314606
C34   C     C_R   0.299225 0.554670 0.496729 0.817491
C35   C     C_R   0.489993 0.056524 0.505885 0.119393
C36   C     C_R   0.009947 0.717793 0.494350 0.020711
C37   C     C_R   0.183228 0.588817 0.486151 -0.183887
C38   C     C_R   0.883477 0.309288 0.496619 0.001521
C39   C     C_R   0.994505 0.287627 0.502645 0.011897
C40   C     C_R   0.038517 0.365688 0.499779 -0.246524
Cu1   Cu    Cu3+1 0.500000 0.403570 0.500010 0.955088
Cu2   Cu    Cu3+1 0.500000 0.596430 0.499990 0.976904
H1    H     H_    0.426034 0.662420 0.781681 0.187971
H2    H     H_    0.580550 0.340419 0.776133 0.132507
H3    H     H_    0.581931 0.340068 0.938920 0.125459
H4    H     H_    0.342635 0.495681 0.220505 0.170630
H5    H     H_    0.660506 0.501752 0.231600 0.121227
H6    H     H_    0.379921 0.958861 0.394225 0.152145
H7    H     H_    0.391035 0.779325 0.392006 0.147007
H8    H     H_    0.806805 0.737985 0.433069 0.146104
H9    H     H_    0.597210 0.905784 0.617030 0.143167
H10   H     H_    0.511563 0.075239 0.647874 0.147118
H11   H     H_    0.520990 0.246216 0.640796 0.140600
H12   H     H_    0.474701 0.067311 0.364020 0.138739
H13   H     H_    0.121123 0.349479 0.516296 0.182647
H14   H     H_    0.737126 0.602513 0.402513 0.163009
H15   H     H_    0.428605 0.661200 0.945020 0.139535
N1    N     N_R   0.500000 0.741310 0.499980 -0.223630
N2    N     N_R   0.500060 0.258650 0.499980 -0.209865
O1    O     O_R   0.499990 0.418570 0.628550 -0.598479
O2    O     O_R   0.499990 0.581440 0.628540 -0.563877
O3    O     O_R   0.650980 0.378820 0.499990 -0.591173
O4    O     O_R   0.650980 0.541690 0.499970 -0.557134
O5    O     O_R   0.500010 0.418560 0.371460 -0.571199
O6    O     O_R   0.500010 0.581430 0.371450 -0.603410
O7    O     O_R   0.349020 0.458310 0.500030 -0.572323
O8    O     O_R   0.349020 0.621180 0.500010 -0.564806
C41   C     C_2   0.169862 0.759893 0.553200 0.867786
O9    O     O_2   0.180035 0.830108 0.511172 -0.593504
O10   O     O_R   0.208349 0.744200 0.640613 -0.759043
H16   H     H_    0.242500 0.796473 0.662114 0.334851
C42   C     C_2   0.312830 0.497434 0.044244 0.838211
O11   O     O_2   0.315231 0.462295 0.968700 -0.577067
O12   O     O_R   0.216260 0.536890 0.086192 -0.784500
H17   H     H_    0.154826 0.531930 0.047379 0.336082
C43   C     C_3   0.695105 0.504561 0.057270 -0.413035
C44   C     C_3   0.781304 0.402528 0.063465 -0.348294
C45   C     C_3   0.883300 0.406842 0.023186 -0.819961
H18   H     H_    0.870562 0.426482 0.951821 0.260622
H19   H     H_    0.912415 0.463869 0.059328 0.251002
H20   H     H_    0.944048 0.332048 0.028570 0.246142
H21   H     H_    0.797092 0.380596 0.134190 0.219777
H22   H     H_    0.754891 0.343676 0.027391 0.220780
H23   H     H_    0.682238 0.526532 0.986531 0.206851
H24   H     H_    0.722009 0.563878 0.092147 0.198021
C46   C     C_2   0.620798 0.713966 0.633123 0.865744
O13   O     O_2   0.708265 0.657546 0.616319 -0.605809
O14   O     O_R   0.585630 0.726031 0.720518 -0.784944
H25   H     H_    0.637771 0.680519 0.763265 0.325566
C47   C     C_2   0.482453 0.244611 0.333449 0.873236
O15   O     O_2   0.397293 0.281552 0.296714 -0.646958
O16   O     O_R   0.575343 0.233049 0.288048 -0.787802
H26   H     H_    0.561937 0.261040 0.225837 0.331235
C48   C     C_3   0.941255 0.825721 0.512976 -0.413845
C49   C     C_3   0.884909 0.833523 0.601700 -0.318334
C50   C     C_3   0.812132 0.940108 0.619335 -0.875597
H27   H     H_    0.856967 0.995291 0.619909 0.264405
H28   H     H_    0.749123 0.960519 0.567383 0.256318
H29   H     H_    0.774961 0.943731 0.684959 0.248677
H30   H     H_    0.837456 0.780664 0.601536 0.251780
H31   H     H_    0.944308 0.812688 0.656701 0.239787
H32   H     H_    0.987316 0.879556 0.515320 0.237483
H33   H     H_    0.883926 0.852131 0.457535 0.189187
C51   C     C_3   0.185587 0.443279 0.377581 -0.335494
C52   C     C_3   0.115184 0.453149 0.293193 -0.391034
C53   C     C_3   0.164768 0.373262 0.222590 -0.713320
H34   H     H_    0.239354 0.382383 0.199880 0.291435
H35   H     H_    0.180076 0.296494 0.249472 0.262396
H36   H     H_    0.110258 0.381465 0.164306 0.227877
H37   H     H_    0.038063 0.444158 0.308791 0.223021
H38   H     H_    0.100843 0.529260 0.265002 0.240022
H39   H     H_    0.259038 0.456198 0.356167 0.218091
H40   H     H_    0.208317 0.365084 0.401860 0.218289
C54   C     C_3   0.837565 0.222675 0.506658 -0.372773
C55   C     C_3   0.804266 0.189362 0.415373 -0.267544
C56   C     C_3   0.769363 0.095683 0.422411 -0.808019
H41   H     H_    0.836754 0.031378 0.444348 0.254164
H42   H     H_    0.705132 0.109199 0.470753 0.254773
H43   H     H_    0.740906 0.076091 0.356498 0.263821
H44   H     H_    0.739342 0.250834 0.385710 0.252359
H45   H     H_    0.871493 0.171855 0.369390 0.234999
H46   H     H_    0.894622 0.156769 0.538357 0.205960
H47   H     H_    0.773308 0.241179 0.555094 0.206385
C57   C     C_2   0.069431 0.184186 0.511293 0.820106
O17   O     O_2   0.059843 0.115116 0.463380 -0.590952
O18   O     O_R   0.154885 0.167223 0.570887 -0.756832
H48   H     H_    0.201962 0.094607 0.569204 0.349138

loop_
_geom_bond_atom_site_label_1
_geom_bond_atom_site_label_2
_ccdc_geom_bond_type
C52   H37   S    
C50   H29   S    
O18   H48   S    
C55   H45   S    
C34   C37   S    
C11   C13   A    
Cu1   Cu2   S    
C49   C50   S    
C22   C43   S    
C4    C8    A    
C43   H23   S    
C54   C55   S    
C19   H4    S    
C44   C45   S    
C30   C35   A    
C18   C24   A    
Cu1   O3    S    
C28   C29   A    
C15   H2    S    
C3    C7    A    
C30   C31   A    
C38   C54   S    
C28   H9    S    
C45   H19   S    
C53   H34   S    
C44   H22   S    
C15   C16   A    
C5    C36   A    
C56   H41   S    
C18   C19   A    
C31   N2    A    
Cu2   N1    S    
C26   N1    A    
C32   C47   S    
C19   C20   A    
C41   O9    D    
C50   H28   S    
Cu2   O6    S    
O10   H16   S    
C52   H38   S    
C21   C22   A    
C18   C42   S    
C34   O7    A    
C7    H14   S    
C51   C52   S    
C25   C29   A    
C38   C39   A    
C17   C24   S    
O12   H17   S    
C43   C44   S    
Cu1   N2    S    
C42   O12   S    
C26   H7    S    
C39   C40   A    
C51   H39   S    
C12   O4    A    
C49   H30   S    
C16   C17   A    
C25   C26   A    
C6    H8    S    
C39   C57   S    
C16   H3    S    
C27   C46   S    
C2    C4    A    
C36   C48   S    
C9    C36   A    
C12   O3    A    
C47   O16   S    
C25   H6    S    
C20   C23   S    
C40   H13   S    
C50   H27   S    
C20   C21   A    
C9    C37   A    
C31   H11   S    
C8    C51   S    
Cu2   O2    S    
C6    C7    A    
C10   C12   S    
C54   H47   S    
C23   O5    A    
C48   H33   S    
Cu2   O8    S    
C22   C24   A    
C1    O1    A    
C8    C37   A    
C13   H1    S    
C57   O18   S    
C33   H12   S    
C30   H10   S    
C11   C17   A    
C46   O13   D    
Cu1   O1    S    
C42   O11   D    
C27   N1    A    
C1    O2    A    
C34   O8    A    
Cu1   O7    S    
C52   C53   S    
C29   C35   S    
C32   N2    A    
C56   H43   S    
C10   C38   A    
C32   C33   A    
C23   O6    A    
C2    C3    A    
C9    C41   S    
C3    C10   A    
C11   H15   S    
C45   H18   S    
C45   H20   S    
C47   O15   D    
C5    C6    A    
C53   H35   S    
C44   H21   S    
C43   H24   S    
O16   H26   S    
C33   C35   A    
C56   H42   S    
C46   O14   S    
C48   C49   S    
C51   H40   S    
C54   H46   S    
C2    C40   A    
C4    C5    A    
O14   H25   S    
C48   H32   S    
C41   O10   S    
C55   H44   S    
C27   C28   A    
C14   C15   A    
C1    C14   S    
Cu1   O5    S    
C55   C56   S    
C13   C14   A    
Cu2   O4    S    
C49   H31   S    
C57   O17   D    
C21   H5    S    
C53   H36   S    
