data_mof_unit_64129.cif
_audit_creation_date              2013-03-05T16:28:33-0500
_audit_creation_method            fapswitch 2.2
_symmetry_space_group_name_H-M    P1
_symmetry_Int_Tables_number       1
_space_group_crystal_system       triclinic
_cell_length_a                    23.225456
_cell_length_b                    22.495546
_cell_length_c                    27.701664
_cell_angle_alpha                 90.213064
_cell_angle_beta                  90.2767
_cell_angle_gamma                 90.080184
_cell_volume                      14472.9859964

loop_
_atom_site_label
_atom_site_type_symbol
_atom_site_description
_atom_site_fract_x
_atom_site_fract_y
_atom_site_fract_z
_atom_type_partial_charge
O1    O     O_R   0.416150 0.549570 0.500020 -0.588065
O2    O     O_R   0.583850 0.450430 0.499980 -0.618342
O3    O     O_R   0.583850 0.549570 0.499980 -0.597680
O4    O     O_R   0.416150 0.450430 0.500020 -0.630958
C1    C     C_R   0.388925 0.499944 0.500207 0.951929
C2    C     C_R   0.611069 0.499992 0.499950 0.946046
O5    O     O_R   0.500010 0.549550 0.428760 -0.589714
O6    O     O_R   0.499990 0.450450 0.571240 -0.633181
O7    O     O_R   0.499990 0.549550 0.571240 -0.606101
O8    O     O_R   0.500010 0.450450 0.428760 -0.615061
O9    O     O_2   0.521962 0.841164 0.418233 -0.498667
O10   O     O_2   0.453815 0.158244 0.574238 -0.507706
O11   O     O_2   0.478051 0.841916 0.581836 -0.500787
O12   O     O_2   0.546614 0.157618 0.425713 -0.497855
C3    C     C_R   0.501505 0.499865 0.406026 0.964243
C4    C     C_R   0.498519 0.500133 0.593976 0.896613
Zn1   Zn    Zn3+2 0.500000 0.566180 0.500000 1.038635
Zn2   Zn    Zn3+2 0.500000 0.433820 0.500000 0.984315
C5    C     C_R   0.468093 0.253056 0.465558 -0.187102
C6    C     C_R   0.459104 0.746538 0.473008 -0.173488
C7    C     C_R   0.532257 0.253524 0.534322 -0.189477
C8    C     C_R   0.540858 0.746881 0.527081 -0.172106
H1    H     H_    0.442743 0.229641 0.438639 0.165560
H2    H     H_    0.426871 0.769650 0.451892 0.176318
H3    H     H_    0.557693 0.230477 0.561211 0.160327
H4    H     H_    0.573092 0.770267 0.548206 0.168473
C9    C     C_R   0.469329 0.459634 0.178204 0.546173
C10   C     C_R   0.536308 0.534973 0.821861 0.542659
O13   O     O_2   0.438966 0.419203 0.203497 -0.530430
O14   O     O_2   0.571111 0.571486 0.796667 -0.532848
N1    N     N_R   0.501361 0.501525 0.201940 -0.348881
N2    N     N_R   0.499560 0.497535 0.798033 -0.348565
C11   C     C_R   0.531954 0.543830 0.177888 0.545566
C12   C     C_R   0.464177 0.459312 0.821971 0.543211
C13   C     C_R   0.542143 0.463469 0.277645 0.182496
C14   C     C_R   0.459386 0.536986 0.722607 0.184036
C15   C     C_R   0.542665 0.462838 0.328383 0.110223
C16   C     C_R   0.458376 0.537605 0.671874 0.091926
C17   C     C_R   0.466410 0.537533 0.328703 -0.198543
C18   C     C_R   0.533742 0.461937 0.671065 -0.236703
C19   C     C_R   0.465985 0.537854 0.278762 -0.112074
C20   C     C_R   0.534342 0.461319 0.721004 -0.118347
C21   C     C_R   0.503221 0.500789 0.253315 0.217152
C22   C     C_R   0.497722 0.498790 0.746678 0.225415
C23   C     C_R   0.500148 0.500965 0.101930 -0.047345
C24   C     C_R   0.500810 0.497527 0.898032 -0.047902
C25   C     C_R   0.468293 0.458396 0.127736 -0.029870
C26   C     C_R   0.537512 0.535832 0.872333 -0.029900
C27   C     C_R   0.436853 0.415161 0.102821 -0.112221
C28   C     C_R   0.574467 0.574032 0.897366 -0.114626
C29   C     C_R   0.532004 0.544318 0.127407 -0.033941
C30   C     C_R   0.464050 0.458637 0.872448 -0.030293
C31   C     C_R   0.503748 0.499670 0.353644 -0.133381
C32   C     C_R   0.496636 0.500293 0.646366 -0.117567
H5    H     H_    0.436895 0.566231 0.347982 0.208027
H6    H     H_    0.562884 0.433008 0.651582 0.160839
H7    H     H_    0.436466 0.566716 0.259621 0.168157
H8    H     H_    0.563500 0.431896 0.739963 0.158018
H9    H     H_    0.412775 0.381393 0.121928 0.198400
H10   H     H_    0.603820 0.603110 0.878363 0.197731
C33   C     C_R   0.464723 0.458070 0.974529 0.045275
C34   C     C_R   0.534125 0.542165 0.025387 0.045152
C35   C     C_R   0.536618 0.539220 0.974347 0.045787
C36   C     C_R   0.466568 0.457137 0.025664 0.045031
C37   C     C_R   0.500752 0.498236 0.949180 0.078650
C38   C     C_R   0.500248 0.500108 0.050783 0.079157
C39   C     C_R   0.427615 0.420401 0.947624 -0.196616
C40   C     C_R   0.564049 0.586251 0.052126 -0.195490
C41   C     C_R   0.427502 0.420663 0.897592 -0.114263
C42   C     C_R   0.563102 0.587061 0.102146 -0.110721
O15   O     O_2   0.429049 0.422495 0.796881 -0.531927
O16   O     O_2   0.562527 0.584849 0.202861 -0.516702
C43   C     C_R   0.436085 0.414301 0.052794 -0.196681
C44   C     C_R   0.574261 0.575652 0.947383 -0.196281
H11   H     H_    0.398260 0.390986 0.878665 0.197967
H12   H     H_    0.587038 0.621509 0.120970 0.200206
H13   H     H_    0.396969 0.390852 0.964007 0.150939
H14   H     H_    0.587896 0.621750 0.035559 0.152135
H15   H     H_    0.411989 0.378453 0.036597 0.151136
H16   H     H_    0.605134 0.605328 0.963768 0.151406
C45   C     C_R   0.880253 0.447949 0.514555 0.524195
C46   C     C_R   0.121101 0.539847 0.560372 0.528263
N3    N     N_R   0.851561 0.495410 0.533901 -0.351513
N4    N     N_R   0.149481 0.494945 0.537108 -0.351467
C47   C     C_R   0.879769 0.540306 0.557659 0.522777
C48   C     C_R   0.120890 0.447463 0.517303 0.521921
C49   C     C_R   0.939879 0.539562 0.561315 -0.023995
C50   C     C_R   0.060913 0.444721 0.519075 -0.021482
C51   C     C_R   0.970198 0.491826 0.540440 -0.016531
C52   C     C_R   0.030732 0.491667 0.541188 -0.016556
C53   C     C_R   0.940173 0.445034 0.517591 -0.024563
C54   C     C_R   0.060930 0.539263 0.562778 -0.027945
C55   C     C_R   0.970312 0.585843 0.584151 -0.137564
C56   C     C_R   0.030543 0.397336 0.497821 -0.138849
C57   C     C_R   0.030334 0.585695 0.584876 -0.135760
C58   C     C_R   0.970662 0.397496 0.497078 -0.138702
C59   C     C_R   0.468521 0.315444 0.466270 0.025626
C60   C     C_R   0.459937 0.684162 0.473412 0.042196
C61   C     C_R   0.531660 0.315903 0.533649 0.015278
C62   C     C_R   0.540043 0.684495 0.526626 0.046962
O17   O     O_2   0.850838 0.404454 0.491442 -0.531286
O18   O     O_2   0.151064 0.585086 0.580517 -0.519837
O19   O     O_2   0.849697 0.585587 0.577242 -0.533855
O20   O     O_2   0.150458 0.403888 0.494783 -0.539624
H17   H     H_    0.947919 0.622799 0.600726 0.200308
H18   H     H_    0.052889 0.360591 0.480889 0.200510
H19   H     H_    0.052620 0.622558 0.601966 0.201600
H20   H     H_    0.948433 0.360853 0.479619 0.201275
C63   C     C_R   0.246557 0.457107 0.550697 -0.062082
C64   C     C_R   0.754954 0.456910 0.547949 -0.074253
H21   H     H_    0.229597 0.423698 0.574847 0.164366
H22   H     H_    0.772569 0.423606 0.571960 0.157343
C65   C     C_R   0.304549 0.457077 0.539339 -0.236536
C66   C     C_R   0.696607 0.456960 0.537535 -0.246913
H23   H     H_    0.332256 0.424326 0.556144 0.184972
H24   H     H_    0.669358 0.424250 0.554801 0.166116
C67   C     C_R   0.326896 0.499487 0.507436 -0.158595
C68   C     C_R   0.673321 0.499502 0.506105 -0.152827
C69   C     C_R   0.290368 0.542745 0.486677 0.292974
C70   C     C_R   0.709336 0.542500 0.484509 0.269421
C71   C     C_R   0.231977 0.542357 0.498739 -0.150040
C72   C     C_R   0.768144 0.542041 0.495658 -0.148409
H25   H     H_    0.202767 0.573790 0.482096 0.185874
H26   H     H_    0.796928 0.573468 0.478626 0.187480
C73   C     C_R   0.210133 0.499341 0.530131 0.238911
C74   C     C_R   0.790812 0.499164 0.526890 0.244335
N5    N     N_R   0.500000 0.345660 0.500000 -0.099512
N6    N     N_R   0.500000 0.654340 0.500000 -0.107315
C75   C     C_R   0.513513 0.873138 0.458700 0.561000
C76   C     C_R   0.479673 0.126708 0.539145 0.553402
C77   C     C_R   0.486563 0.873516 0.541363 0.559506
C78   C     C_R   0.520734 0.126367 0.460819 0.554504
N7    N     N_R   0.500016 0.843361 0.500036 -0.350884
N8    N     N_R   0.500208 0.156600 0.499972 -0.350292
C79   C     C_R   0.482806 0.936694 0.541889 -0.110390
C80   C     C_R   0.517172 0.063275 0.458145 -0.108482
C81   C     C_R   0.517377 0.936314 0.458157 -0.110477
C82   C     C_R   0.483190 0.063653 0.541850 -0.105928
C83   C     C_R   0.500115 0.968254 0.500016 -0.070267
C84   C     C_R   0.500160 0.031659 0.500004 -0.068030
C85   C     C_R   0.463916 0.969183 0.583084 0.167471
C86   C     C_R   0.531636 0.031025 0.415698 0.161939
C87   C     C_R   0.536339 0.968429 0.416958 0.165511
C88   C     C_R   0.468713 0.031797 0.584316 0.162218
H27   H     H_    0.443631 0.339802 0.439845 0.148871
H28   H     H_    0.428511 0.659513 0.452456 0.184167
H29   H     H_    0.556577 0.340621 0.560037 0.128882
H30   H     H_    0.571493 0.660089 0.547543 0.144584
C89   C     C_R   0.500193 0.221275 0.499947 0.300435
C90   C     C_R   0.499985 0.778699 0.500049 0.286279
N9    N     N_R   0.310961 0.585018 0.451941 0.207680
O21   O     O_R   0.347613 0.568853 0.419038 -0.426805
O22   O     O_R   0.287161 0.637205 0.448780 -0.361226
N10   N     N_R   0.687727 0.584688 0.449989 0.218429
O23   O     O_R   0.649265 0.568741 0.418143 -0.355710
O24   O     O_R   0.712102 0.636542 0.445901 -0.343689
I1    I     I_    0.418821 0.927567 0.642051 -0.108759
I2    I     I_    0.536625 0.073496 0.346040 -0.126124
I3    I     I_    0.581425 0.926298 0.358038 -0.103343
I4    I     I_    0.463871 0.074941 0.653960 -0.148435
I5    I     I_    0.396283 0.590714 0.634268 -0.199291
I6    I     I_    0.604795 0.410254 0.366403 -0.154376
I7    I     I_    0.403909 0.592494 0.764280 -0.186241
I8    I     I_    0.599766 0.409866 0.236372 -0.179738

loop_
_geom_bond_atom_site_label_1
_geom_bond_atom_site_label_2
_geom_bond_distance
_ccdc_geom_bond_type
C8    C90   1.404717 A    
O2    Zn2   1.982463 S    
C65   C67   1.403539 A    
C39   H13   1.076330 S    
C59   N5    1.362685 A    
O3    C2    1.282757 A    
C48   O20   1.350248 S    
C20   H8    1.083042 S    
C68   C70   1.414245 A    
C35   C37   1.420353 A    
C5    C59   1.403538 A    
C17   C19   1.383485 A    
C45   O17   1.350285 S    
C79   C83   1.421595 A    
C81   C83   1.421530 A    
N1    C21   1.423779 S    
O1    C1    1.282262 A    
C3    C31   1.452226 S    
C13   C15   1.405640 A    
O7    C4    1.280221 A    
N4    C48   1.368564 A    
C77   C79   1.424027 A    
O8    C3    1.280179 A    
C28   C44   1.385943 A    
C7    C61   1.403528 A    
C48   C50   1.395385 A    
C9    O13   1.350236 S    
C23   C29   1.408679 A    
C9    C25   1.398326 A    
C24   C30   1.408552 A    
C46   C54   1.399463 A    
C23   C25   1.408434 A    
C63   C73   1.394438 A    
C80   C86   1.421249 A    
C30   C41   1.394111 A    
C11   O16   1.350147 S    
C55   H17   1.083119 S    
C53   C58   1.403359 A    
C80   C84   1.419961 A    
C16   I5    2.142886 S    
C17   H5    1.083569 S    
C6    H2    1.082612 S    
C18   H6    1.083991 S    
C14   I7    2.135473 S    
C36   C43   1.415342 A    
N1    C11   1.364516 A    
C41   H11   1.083769 S    
C29   C42   1.394193 A    
C7    C89   1.405050 A    
C51   C53   1.408433 A    
C13   C21   1.405947 A    
C64   C66   1.384153 A    
N10   O24   1.301436 A    
C47   O19   1.349540 S    
C63   C65   1.384654 A    
O4    Zn2   1.983492 S    
C60   N6    1.362766 A    
C58   H20   1.083215 S    
N9    O21   1.301339 A    
C55   C57   1.394109 A    
C44   H16   1.076599 S    
C57   H19   1.083157 S    
C40   H14   1.076586 S    
C19   C21   1.394133 A    
O2    C2    1.280924 A    
C20   C22   1.393967 A    
C86   I2    2.159929 S    
O9    C75   1.345010 S    
C45   N3    1.368343 A    
C70   C72   1.398946 A    
C50   C56   1.403449 A    
C69   C71   1.398311 A    
C69   N9    1.438390 S    
C24   C26   1.408642 A    
C8    C62   1.403522 A    
C34   C38   1.420312 A    
C47   C49   1.399392 A    
C9    N1    1.364749 A    
C10   N2    1.364484 A    
C24   C37   1.416925 A    
C25   C27   1.394133 A    
C85   C88   1.413039 A    
C63   H21   1.083053 S    
C61   N5    1.362750 A    
C60   H28   1.081461 S    
O5    Zn1   2.007245 S    
N8    C89   1.454903 S    
C54   C57   1.404342 A    
O6    Zn2   2.007243 S    
C62   H30   1.081720 S    
C1    C67   1.455485 S    
C39   C41   1.385994 A    
N2    C12   1.364526 A    
C72   C74   1.399731 A    
C33   C36   1.417216 A    
C5    H1    1.082655 S    
C71   C73   1.399695 A    
C34   C35   1.416684 A    
Zn2   N5    1.983207 S    
O11   C77   1.345030 S    
C33   C39   1.415393 A    
C52   C54   1.408940 A    
C16   C32   1.413219 A    
C78   C80   1.423216 A    
C70   N10   1.438893 S    
C46   O18   1.349582 S    
C6    C60   1.403426 A    
C56   C58   1.390824 A    
C26   C28   1.394188 A    
N10   O23   1.301566 A    
C66   C68   1.403375 A    
O10   C76   1.345633 S    
C64   C74   1.394289 A    
C78   N8    1.366241 A    
C75   N7    1.366307 A    
O7    Zn1   2.009976 S    
N3    C47   1.367995 A    
C50   C52   1.408277 A    
C18   C32   1.398615 A    
C49   C51   1.408839 A    
C42   H12   1.083726 S    
C27   C43   1.385947 A    
C14   C22   1.405802 A    
C88   I4    2.159870 S    
N3    C74   1.425966 S    
C72   H26   1.083289 S    
C14   C16   1.405590 A    
C76   C82   1.423153 A    
C12   C30   1.398450 A    
C85   I1    2.160289 S    
N4    C73   1.426132 S    
C7    H3    1.082640 S    
C10   C26   1.398361 A    
C61   H29   1.081858 S    
C62   N6    1.362716 A    
C59   H27   1.081700 S    
N7    C90   1.454612 S    
O4    C1    1.281590 A    
C43   H15   1.076312 S    
C66   H24   1.083967 S    
C83   C84   1.426337 A    
Zn1   N6    1.983207 S    
C87   I3    2.160209 S    
C82   C84   1.419893 A    
C35   C44   1.415199 A    
C11   C29   1.398500 A    
C46   N4    1.367920 A    
C13   I8    2.135724 S    
C27   H9    1.083768 S    
C34   C40   1.415221 A    
O12   C78   1.345665 S    
C28   H10   1.083757 S    
C4    C32   1.452165 S    
C67   C69   1.413910 A    
C15   C31   1.413180 A    
C10   O14   1.350196 S    
C82   C88   1.421239 A    
C17   C31   1.398393 A    
O8    Zn2   2.009979 S    
C49   C55   1.404410 A    
O5    C3    1.281455 A    
C5    C89   1.405029 A    
C6    C90   1.404720 A    
O3    Zn1   1.983490 S    
N9    O22   1.301375 A    
C81   C87   1.424264 A    
C76   N8    1.366287 A    
C64   H22   1.083059 S    
C71   H25   1.083294 S    
C56   H18   1.083179 S    
C19   H7    1.083047 S    
C45   C53   1.395462 A    
C33   C37   1.420559 A    
C79   C85   1.424245 A    
C75   C81   1.424015 A    
O1    Zn1   1.982466 S    
N2    C22   1.423454 S    
O6    C4    1.281421 A    
C8    H4    1.082627 S    
C23   C38   1.416943 A    
C40   C42   1.385976 A    
C18   C20   1.383490 A    
C86   C87   1.413052 A    
C77   N7    1.366261 A    
C51   C52   1.405981 A    
C12   O15   1.350199 S    
C2    C68   1.455078 S    
C36   C38   1.420610 A    
C15   I6    2.142488 S    
C65   H23   1.083788 S    
