data_mof_unit_66946.cif
_audit_creation_date              2013-03-05T15:57:30-0500
_audit_creation_method            fapswitch 2.2
_symmetry_space_group_name_H-M    P1
_symmetry_Int_Tables_number       1
_space_group_crystal_system       triclinic
_cell_length_a                    17.325607
_cell_length_b                    18.999412
_cell_length_c                    8.530057
_cell_angle_alpha                 90.031094
_cell_angle_beta                  101.897046
_cell_angle_gamma                 89.871194
_cell_volume                      2747.57141627

loop_
_atom_site_label
_atom_site_type_symbol
_atom_site_description
_atom_site_fract_x
_atom_site_fract_y
_atom_site_fract_z
_atom_type_partial_charge
P1    P     P_3+3 0.834140 0.419320 0.003900 0.469694
P2    P     P_3+3 0.834140 0.580680 0.503900 0.438661
P3    P     P_3+3 0.334140 0.919320 0.003900 0.469693
P4    P     P_3+3 0.334140 0.080680 0.503900 0.438663
O1    O     O_2   0.841960 0.394640 0.833410 -0.333207
O2    O     O_2   0.841960 0.605360 0.333410 -0.391843
O3    O     O_2   0.341960 0.894640 0.833410 -0.333212
O4    O     O_2   0.341960 0.105360 0.333410 -0.391839
O5    O     O_3   0.907950 0.463080 0.102990 -0.408792
O6    O     O_3   0.907950 0.536920 0.602990 -0.395707
O7    O     O_3   0.407950 0.963080 0.102990 -0.408794
O8    O     O_3   0.407950 0.036920 0.602990 -0.395705
O9    O     O_3   0.972780 0.329600 0.629720 -0.323327
O10   O     O_3   0.972780 0.670400 0.129720 -0.353548
O11   O     O_3   0.472780 0.829600 0.629720 -0.323330
O12   O     O_3   0.472780 0.170400 0.129720 -0.353549
O13   O     O_2   0.831277 0.288212 0.663324 -0.335866
O14   O     O_2   0.837275 0.724296 0.177584 -0.380277
O15   O     O_2   0.331278 0.788211 0.663326 -0.335867
O16   O     O_2   0.337276 0.224297 0.177585 -0.380277
O17   O     O_3   0.755051 0.477400 0.960208 -0.599492
O18   O     O_3   0.750189 0.528232 0.454105 -0.594589
O19   O     O_3   0.255051 0.977400 0.960208 -0.599489
O20   O     O_3   0.250189 0.028231 0.454105 -0.594589
O21   O     O_3   0.926999 0.185565 0.652333 -0.530814
O22   O     O_3   0.943553 0.814823 0.126083 -0.525707
O23   O     O_3   0.427000 0.685565 0.652334 -0.530812
O24   O     O_3   0.443553 0.314823 0.126082 -0.525707
C1    C     C_3   0.012125 0.087392 0.631189 -0.783030
C2    C     C_3   0.013294 0.895123 0.986174 -0.765099
C3    C     C_3   0.512129 0.587394 0.631201 -0.783053
C4    C     C_3   0.513294 0.395122 0.986164 -0.765131
H1    H     H_    0.567954 0.572792 0.594993 0.186772
H2    H     H_    0.558791 0.396470 0.911267 0.189489
H3    H     H_    0.067948 0.072790 0.594975 0.186778
H4    H     H_    0.058793 0.896474 0.911280 0.189482
P5    P     P_3+3 0.165830 0.418670 0.685610 0.504624
P6    P     P_3+3 0.165830 0.581330 0.185610 0.501281
P7    P     P_3+3 0.665830 0.918670 0.685610 0.504621
P8    P     P_3+3 0.665830 0.081330 0.185610 0.501282
P9    P     P_3+3 0.100254 0.265801 0.123509 0.513876
P10   P     P_3+3 0.099438 0.735020 0.619913 0.490830
P11   P     P_3+3 0.600254 0.765801 0.123510 0.513884
P12   P     P_3+3 0.599439 0.235019 0.619914 0.490825
O25   O     O_2   0.157990 0.394030 0.856030 -0.353661
O26   O     O_2   0.157990 0.605970 0.356030 -0.353490
O27   O     O_2   0.657990 0.894030 0.856030 -0.353664
O28   O     O_2   0.657990 0.105970 0.356030 -0.353488
O29   O     O_3   0.027110 0.329490 0.059550 -0.289768
O30   O     O_3   0.027110 0.670510 0.559550 -0.349347
O31   O     O_3   0.527110 0.829490 0.059550 -0.289778
O32   O     O_3   0.527110 0.170510 0.559550 -0.349341
O33   O     O_2   0.159879 0.270976 0.011695 -0.368891
O34   O     O_2   0.165903 0.717781 0.529779 -0.327954
O35   O     O_2   0.659880 0.770976 0.011699 -0.368887
O36   O     O_2   0.665904 0.217779 0.529782 -0.327959
O37   O     O_3   0.249780 0.470074 0.738018 -0.626834
O38   O     O_3   0.251641 0.531024 0.239374 -0.600755
O39   O     O_3   0.749781 0.970073 0.738020 -0.626844
O40   O     O_3   0.751641 0.031025 0.239374 -0.600745
O41   O     O_3   0.054920 0.184190 0.080213 -0.561115
O42   O     O_3   0.060304 0.813675 0.529608 -0.539061
O43   O     O_3   0.554920 0.684190 0.080212 -0.561108
O44   O     O_3   0.560307 0.313674 0.529606 -0.539056
C5    C     C_3   0.988200 0.179451 0.149845 0.493950
C6    C     C_3   0.989843 0.830581 0.579312 0.443270
C7    C     C_3   0.488201 0.679449 0.149847 0.493964
C8    C     C_3   0.489848 0.330583 0.579312 0.443277
H5    H     H_    0.986816 0.219337 0.244553 0.009754
H6    H     H_    0.991080 0.813396 0.703397 -0.034480
H7    H     H_    0.486815 0.719337 0.244552 0.009746
H8    H     H_    0.491084 0.313399 0.703398 -0.034480
C9    C     C_3   0.988395 0.106946 0.223918 -1.220479
C10   C     C_3   0.980674 0.909983 0.574911 -1.013312
C11   C     C_3   0.488400 0.606946 0.223927 -1.220471
C12   C     C_3   0.480681 0.409985 0.574908 -1.013316
H9    H     H_    0.484731 0.567365 0.128547 0.287544
H10   H     H_    0.467387 0.430047 0.450454 0.267316
H11   H     H_    0.984728 0.067366 0.128536 0.287550
H12   H     H_    0.967381 0.930046 0.450458 0.267314
H13   H     H_    0.044244 0.098272 0.312336 0.288137
H14   H     H_    0.035260 0.935186 0.636834 0.240658
H15   H     H_    0.544251 0.598274 0.312342 0.288137
H16   H     H_    0.535268 0.435188 0.636825 0.240651
C13   C     C_3   0.257484 0.483639 0.117385 0.404050
C14   C     C_3   0.246938 0.523378 0.625773 0.434132
C15   C     C_3   0.757487 0.983644 0.117379 0.404005
C16   C     C_3   0.746934 0.023384 0.625791 0.434109
H17   H     H_    0.222565 0.499959 0.998999 0.129522
H18   H     H_    0.209950 0.510023 0.507530 0.158400
H19   H     H_    0.722563 0.999962 0.998996 0.129502
H20   H     H_    0.709953 0.010029 0.507540 0.158409
C17   C     C_3   0.342728 0.478264 0.100877 -1.075968
C18   C     C_3   0.328257 0.534945 0.596536 -1.113548
C19   C     C_3   0.842731 0.978278 0.100861 -1.075841
C20   C     C_3   0.828254 0.034965 0.596573 -1.113519
H21   H     H_    0.381794 0.472013 0.220372 0.283418
H22   H     H_    0.370505 0.530460 0.711797 0.271123
H23   H     H_    0.881804 0.972041 0.220367 0.283403
H24   H     H_    0.870497 0.030492 0.711843 0.271122
H25   H     H_    0.350445 0.432881 0.023994 0.265095
H26   H     H_    0.332959 0.586976 0.541797 0.271356
H27   H     H_    0.850450 0.932887 0.023990 0.265078
H28   H     H_    0.832947 0.086997 0.541830 0.271361
H29   H     H_    0.358684 0.526508 0.042429 0.254302
H30   H     H_    0.340889 0.494488 0.511711 0.288816
H31   H     H_    0.858674 0.026524 0.042382 0.254270
H32   H     H_    0.840900 0.994512 0.511757 0.288799
Ba1   Ba    Ba6+2 0.000000 0.447380 0.844850 1.603903
Ba2   Ba    Ba6+2 0.000000 0.552620 0.344850 1.597860
Ba3   Ba    Ba6+2 0.500000 0.947380 0.844850 1.603904
Ba4   Ba    Ba6+2 0.500000 0.052620 0.344850 1.597860
C21   C     C_3   0.783721 0.544812 0.938040 0.331883
C22   C     C_3   0.769143 0.457280 0.436930 0.339814
C23   C     C_3   0.283721 0.044812 0.938036 0.331888
C24   C     C_3   0.269143 0.957280 0.436936 0.339815
H33   H     H_    0.809515 0.545499 0.829483 0.083794
H34   H     H_    0.771366 0.447025 0.310031 0.033378
H35   H     H_    0.309514 0.045497 0.829477 0.083794
H36   H     H_    0.271370 0.947024 0.310038 0.033377
H37   H     H_    0.828016 0.562858 0.043371 0.146854
H38   H     H_    0.825456 0.440291 0.515160 0.137132
H39   H     H_    0.328017 0.062858 0.043364 0.146849
H40   H     H_    0.325455 0.940291 0.515171 0.137136
C25   C     C_3   0.715704 0.596419 0.917989 -0.644569
C26   C     C_3   0.703715 0.413871 0.482769 -0.537698
C27   C     C_3   0.215704 0.096419 0.917983 -0.644567
C28   C     C_3   0.203714 0.913871 0.482770 -0.537702
H41   H     H_    0.678250 0.588894 0.797439 0.179858
H42   H     H_    0.647646 0.422633 0.395882 0.180136
H43   H     H_    0.178249 0.088893 0.797435 0.179862
H44   H     H_    0.147647 0.922632 0.395879 0.180132
H45   H     H_    0.737934 0.651021 0.925824 0.219374
H46   H     H_    0.718808 0.357100 0.481960 0.220084
H47   H     H_    0.237934 0.151021 0.925814 0.219373
H48   H     H_    0.218807 0.857100 0.481964 0.220085
O45   O     O_3   0.092100 0.536880 0.086720 -0.350712
O46   O     O_3   0.092100 0.463120 0.586720 -0.361109
O47   O     O_3   0.592100 0.036880 0.086720 -0.350719
O48   O     O_3   0.592100 0.963120 0.586720 -0.361104
P13   P     P_3+3 0.898679 0.733482 0.070985 0.454997
P14   P     P_3+3 0.896076 0.268346 0.571758 0.490582
P15   P     P_3+3 0.398679 0.233482 0.070985 0.455001
P16   P     P_3+3 0.396076 0.768346 0.571758 0.490577
C29   C     C_3   0.999891 0.167060 0.614502 0.381138
C30   C     C_3   0.010266 0.821192 0.054907 0.439202
C31   C     C_3   0.499892 0.667061 0.614506 0.381168
C32   C     C_3   0.510266 0.321191 0.054906 0.439212
H49   H     H_    0.002569 0.182462 0.491266 0.032067
H50   H     H_    0.009414 0.784141 0.953950 -0.030345
H51   H     H_    0.502571 0.682462 0.491270 0.032053
H52   H     H_    0.509415 0.284139 0.953951 -0.030340
H53   H     H_    0.465155 0.559391 0.547996 0.268205
H54   H     H_    0.455428 0.407138 0.908054 0.241824
H55   H     H_    0.965148 0.059392 0.547985 0.268200
H56   H     H_    0.955429 0.907140 0.908061 0.241818
H57   H     H_    0.437034 0.600863 0.282003 0.260611
H58   H     H_    0.432823 0.424248 0.636577 0.246110
H59   H     H_    0.937027 0.100863 0.281989 0.260613
H60   H     H_    0.932813 0.924243 0.636575 0.246107
C33   C     C_R   0.131659 0.683287 0.937914 -0.384091
C34   C     C_R   0.141009 0.323873 0.429990 -0.337941
C35   C     C_R   0.631657 0.183288 0.937916 -0.384125
C36   C     C_R   0.641007 0.823873 0.429992 -0.337906
C37   C     C_R   0.858956 0.324676 0.263689 -0.501363
C38   C     C_R   0.862334 0.676969 0.761505 -0.532735
C39   C     C_R   0.358956 0.824676 0.263689 -0.501359
C40   C     C_R   0.362334 0.176969 0.761505 -0.532734
C41   C     C_R   0.791115 0.215649 0.298990 -0.209755
C42   C     C_R   0.795140 0.786718 0.796860 -0.214889
C43   C     C_R   0.291116 0.715648 0.298990 -0.209755
C44   C     C_R   0.295140 0.286718 0.796860 -0.214889
C45   C     C_R   0.847018 0.267669 0.358615 0.157785
C46   C     C_R   0.849404 0.733419 0.857612 0.187479
C47   C     C_R   0.347018 0.767668 0.358616 0.157784
C48   C     C_R   0.349404 0.233419 0.857613 0.187478
C49   C     C_R   0.813684 0.334241 0.109644 0.307548
C50   C     C_R   0.816422 0.667136 0.607890 0.229457
C51   C     C_R   0.313684 0.834241 0.109644 0.307551
C52   C     C_R   0.316422 0.167136 0.607890 0.229457
C53   C     C_R   0.754720 0.281091 0.048450 -0.035489
C54   C     C_R   0.758108 0.720791 0.546348 -0.050529
C55   C     C_R   0.254720 0.781091 0.048451 -0.035481
C56   C     C_R   0.258108 0.220791 0.546348 -0.050525
C57   C     C_R   0.243536 0.720535 0.144467 -0.052642
C58   C     C_R   0.248546 0.282422 0.641251 0.022145
C59   C     C_R   0.743536 0.220536 0.144467 -0.052642
C60   C     C_R   0.748546 0.782422 0.641251 0.022132
C61   C     C_R   0.182602 0.668953 0.084729 0.257114
C62   C     C_R   0.189241 0.335359 0.579623 0.313277
C63   C     C_R   0.682602 0.168954 0.084730 0.257114
C64   C     C_R   0.689241 0.835358 0.579623 0.313283
C65   C     C_R   0.147398 0.737139 0.836863 0.150237
C66   C     C_R   0.154221 0.268161 0.333300 0.205662
C67   C     C_R   0.647398 0.237139 0.836864 0.150221
C68   C     C_R   0.654220 0.768160 0.333302 0.205677
C69   C     C_R   0.208617 0.784903 0.892776 -0.259697
C70   C     C_R   0.210292 0.216091 0.392067 -0.196457
C71   C     C_R   0.708618 0.284903 0.892776 -0.259687
C72   C     C_R   0.710291 0.716090 0.392068 -0.196467
H61   H     H_    0.282971 0.673171 0.376945 0.178043
H62   H     H_    0.288172 0.330192 0.874263 0.162082
H63   H     H_    0.782970 0.173172 0.376945 0.178048
H64   H     H_    0.788172 0.830192 0.874263 0.162076
H65   H     H_    0.722696 0.322984 0.811807 0.197306
H66   H     H_    0.716542 0.672602 0.315140 0.179240
H67   H     H_    0.222694 0.822986 0.811809 0.197304
H68   H     H_    0.216542 0.172602 0.315140 0.179241
H69   H     H_    0.082653 0.648270 0.895408 0.185943
H70   H     H_    0.093582 0.360417 0.385255 0.169917
H71   H     H_    0.582650 0.148273 0.895413 0.185950
H72   H     H_    0.593581 0.860417 0.385255 0.169908
H73   H     H_    0.901967 0.364120 0.314083 0.158703
H74   H     H_    0.905758 0.637680 0.811621 0.168224
H75   H     H_    0.401966 0.864120 0.314083 0.158701
H76   H     H_    0.405758 0.137680 0.811622 0.168224
C73   C     C_2   0.066126 0.200476 0.727965 0.599351
H77   H     H_    0.091850 0.175531 0.837852 0.116055
O49   O     O_2   0.092993 0.255880 0.697205 -0.595063
C74   C     C_2   0.084096 0.805991 0.174846 0.596792
H78   H     H_    0.135784 0.838980 0.185256 -0.097295
O50   O     O_2   0.088522 0.752873 0.254728 -0.480928
C75   C     C_2   0.566127 0.700478 0.727969 0.599360
H79   H     H_    0.591853 0.675533 0.837855 0.116062
O51   O     O_2   0.592992 0.755884 0.697211 -0.595064
C76   C     C_2   0.584096 0.305991 0.174846 0.596807
H80   H     H_    0.635786 0.338980 0.185254 -0.097302
O52   O     O_2   0.588522 0.252874 0.254731 -0.480928
N1    N     N_3   0.669231 0.586236 0.040885 -0.138285
H81   H     H_    0.636805 0.540114 0.014795 0.185965
H82   H     H_    0.706825 0.578593 0.151845 0.190652
N2    N     N_3   0.693545 0.434918 0.641394 -0.131128
H83   H     H_    0.666180 0.484174 0.632932 0.162123
H84   H     H_    0.653769 0.400655 0.676139 0.154021
N3    N     N_3   0.169232 0.086238 0.040882 -0.138288
H85   H     H_    0.136802 0.040119 0.014789 0.185966
H86   H     H_    0.206826 0.078591 0.151839 0.190652
N4    N     N_3   0.193541 0.934919 0.641393 -0.131132
H87   H     H_    0.166175 0.984174 0.632926 0.162125
H88   H     H_    0.153764 0.900656 0.676135 0.154024
N5    N     N_3   0.016421 0.065136 0.797304 -0.193622
H89   H     H_    0.971691 0.088810 0.843903 0.184847
H90   H     H_    0.007669 0.011376 0.801849 0.165369
N6    N     N_3   0.031408 0.949034 0.110162 -0.194555
H91   H     H_    0.092464 0.953140 0.146551 0.123215
H92   H     H_    0.009062 0.934996 0.210302 0.189144
N7    N     N_3   0.516420 0.565143 0.797317 -0.193609
H93   H     H_    0.471666 0.588793 0.843882 0.184847
H94   H     H_    0.507711 0.511377 0.801876 0.165368
N8    N     N_3   0.531412 0.449035 0.110145 -0.194567
H95   H     H_    0.592468 0.453129 0.146555 0.123213
H96   H     H_    0.509048 0.435008 0.210273 0.189158
C77   C     C_2   0.915225 0.188469 0.022845 0.546842
H97   H     H_    0.869651 0.148508 0.000311 -0.054590
O53   O     O_2   0.905816 0.242281 0.944465 -0.495516
C78   C     C_2   0.919422 0.797137 0.472962 0.623836
H98   H     H_    0.918358 0.741274 0.451768 0.088520
O54   O     O_2   0.861420 0.831755 0.412856 -0.640119
C79   C     C_2   0.415225 0.688463 0.022848 0.546850
H99   H     H_    0.369654 0.648498 0.000314 -0.054594
O55   O     O_2   0.405812 0.742275 0.944467 -0.495527
C80   C     C_2   0.419424 0.297140 0.472965 0.623836
H100  H     H_    0.418360 0.241278 0.451770 0.088520
O56   O     O_2   0.361423 0.331757 0.412863 -0.640136
C81   C     C_2   0.228945 0.414879 0.163786 0.614944
H101  H     H_    0.263757 0.367197 0.168207 0.079293
O57   O     O_2   0.162632 0.412237 0.189292 -0.579504
C82   C     C_2   0.217111 0.586669 0.695036 0.585918
H102  H     H_    0.254777 0.631406 0.736446 0.005937
O58   O     O_2   0.149234 0.585976 0.712047 -0.567278
C83   C     C_2   0.728958 0.914879 0.163779 0.615011
H103  H     H_    0.763771 0.867202 0.168181 0.079281
O59   O     O_2   0.662650 0.912230 0.189305 -0.579531
C84   C     C_2   0.717095 0.086667 0.695061 0.585935
H104  H     H_    0.754757 0.131403 0.736500 0.005892
O60   O     O_2   0.649215 0.085968 0.712049 -0.567263

loop_
_geom_bond_atom_site_label_1
_geom_bond_atom_site_label_2
_geom_bond_distance
_ccdc_geom_bond_type
C39   C51   1.396265 A    
C16   C20   1.497277 S    
P1    O17   1.737035 S    
O15   P16   1.540214 D    
P8    O40   1.745609 S    
C15   H19   1.108847 S    
C27   N3    1.460696 S    
C37   C49   1.396264 A    
Ba4   O48   2.885932 S    
P3    O19   1.737037 S    
C75   H79   1.062617 S    
O16   P15   1.545616 D    
O42   C6    1.408794 S    
C39   H75   1.082484 S    
P4    O4    1.560595 D    
C11   H15   1.109421 S    
C12   H16   1.094755 S    
C74   O50   1.211423 D    
C53   C59   1.448966 A    
Ba3   O47   2.888838 S    
P8    Ba4   3.466159 S    
C66   C70   1.403270 A    
N6    H91   1.042296 S    
C38   H74   1.082220 S    
C8    C80   1.503943 S    
C12   H58   1.102875 S    
C55   C69   1.403252 A    
P6    Ba2   3.466159 S    
C65   C69   1.404031 A    
P1    O1    1.559937 D    
O44   C8    1.408791 S    
P7    O27   1.559894 D    
C22   H34   1.108194 S    
C10   H14   1.094760 S    
O21   C29   1.410151 S    
C84   H104  1.086375 S    
C25   N1    1.460695 S    
O4    Ba4   2.896307 S    
C4    C32   1.527571 S    
C1    C29   1.530581 S    
C77   H97   1.084810 S    
P4    O20   1.743652 S    
C19   H23   1.107580 S    
C7    H7    1.111187 S    
C21   C25   1.513682 S    
O32   Ba4   2.870043 S    
C28   N4    1.455739 S    
C83   H103  1.083504 S    
C6    C10   1.516260 S    
P8    O47   1.617521 S    
C4    N8    1.459319 S    
O30   Ba2   2.870043 S    
C5    C9    1.515568 S    
O37   C14   1.387876 S    
O6    Ba1   2.885979 S    
Ba1   O45   2.888838 S    
N5    H89   1.042168 S    
C9    H13   1.109424 S    
O22   C30   1.417495 S    
C16   C84   1.477960 S    
O39   C16   1.387869 S    
O9    Ba1   2.870697 S    
C14   C18   1.497282 S    
P1    Ba1   3.463772 S    
P6    O38   1.745616 S    
P1    C49   1.920450 S    
C13   H17   1.108841 S    
C40   C48   1.395073 A    
C43   C47   1.405082 A    
C14   C82   1.477960 S    
O21   P14   1.754618 S    
C44   C58   1.406622 A    
C5    C77   1.495328 S    
P2    O18   1.743653 S    
C72   H66   1.073923 S    
N3    H85   1.040895 S    
C3    H1    1.108919 S    
C25   H45   1.104596 S    
C38   C50   1.398325 A    
P9    O41   1.744368 S    
P4    O8    1.609765 S    
O22   P13   1.751473 S    
C81   H101  1.083555 S    
P10   O42   1.751474 S    
C42   H64   1.079147 S    
C68   C72   1.403270 A    
C1    H55   1.101156 S    
C76   O52   1.211423 D    
C30   C74   1.491780 S    
C11   H57   1.110430 S    
C2    H56   1.106753 S    
P5    C62   1.906330 S    
P4    Ba4   3.461556 S    
O10   P13   1.750495 S    
C24   C28   1.518354 S    
C2    N6    1.459326 S    
O2    Ba2   2.896307 S    
Ba4   O47   2.988249 S    
C3    N7    1.466000 S    
P2    O2    1.560595 D    
C13   C17   1.515446 S    
P15   C48   1.844147 S    
P4    C52   1.920333 S    
C28   H44   1.105994 S    
P9    O29   1.754023 S    
C74   H78   1.082783 S    
C3    H53   1.101152 S    
O40   C15   1.394837 S    
C19   H27   1.107528 S    
Ba3   O48   2.989205 S    
C2    C30   1.527570 S    
P14   C45   1.841471 S    
C67   C71   1.404031 A    
N7    H94   1.034873 S    
P5    O37   1.734084 S    
O43   C7    1.407391 S    
C38   C46   1.395072 A    
C23   H39   1.109203 S    
C43   C57   1.406168 A    
P11   O43   1.744369 S    
O3    Ba3   2.900527 S    
C51   C55   1.456029 A    
C16   H20   1.107399 S    
Ba2   O46   2.885932 S    
O12   P15   1.750497 S    
C32   C76   1.491782 S    
C41   C59   1.406164 A    
O17   C21   1.401707 S    
C14   H18   1.107401 S    
N4    H88   1.035846 S    
C77   O53   1.214061 D    
C26   H42   1.105997 S    
C35   H71   1.081815 S    
P3    Ba3   3.463772 S    
C80   O56   1.220753 D    
C34   H70   1.082266 S    
C5    H5    1.111186 S    
C73   H77   1.062617 S    
C40   C52   1.398325 A    
C70   H68   1.073923 S    
P12   O44   1.751474 S    
C36   C68   1.388851 A    
P3    C51   1.920452 S    
C23   C27   1.513681 S    
C78   O54   1.220768 D    
O13   P14   1.540213 D    
N5    H90   1.034866 S    
C4    H2    1.112621 S    
C42   C60   1.406623 A    
C43   H61   1.073868 S    
P10   C65   1.866240 S    
C26   N2    1.455738 S    
O27   Ba3   2.899858 S    
C18   H30   1.107336 S    
P9    C66   1.840891 S    
C17   H29   1.106169 S    
O11   Ba3   2.870697 S    
C41   H63   1.073861 S    
C55   C57   1.448969 A    
C11   H9    1.099881 S    
P12   O36   1.545167 D    
C56   C58   1.451656 A    
C35   C67   1.401185 A    
C8    H8    1.103801 S    
P6    C61   1.924395 S    
P7    O39   1.734090 S    
C78   H98   1.076124 S    
C34   C66   1.388852 A    
N2    H84   1.035845 S    
O23   P16   1.754618 S    
C9    H11   1.099882 S    
P1    O5    1.612258 S    
C57   C61   1.454976 A    
P7    Ba3   3.463893 S    
O24   P15   1.751474 S    
C33   H69   1.081816 S    
O9    P14   1.760787 S    
C44   H62   1.079147 S    
C81   O57   1.213756 D    
P9    O33   1.547048 D    
C50   C54   1.453557 A    
C19   H31   1.106268 S    
C59   C63   1.454976 A    
P10   O30   1.754377 S    
C21   H33   1.108161 S    
C15   C83   1.480547 S    
C33   C61   1.401819 A    
O28   Ba4   2.904120 S    
C6    C78   1.503942 S    
O20   C24   1.401478 S    
N8    H96   1.042974 S    
C56   C70   1.406026 A    
P5    O46   1.614998 S    
C20   H28   1.103834 S    
C25   H41   1.106373 S    
N3    H86   1.042455 S    
P13   C46   1.844145 S    
C4    H54   1.106755 S    
C69   H67   1.063396 S    
C7    C11   1.515561 S    
C83   O59   1.213734 D    
C17   H25   1.107464 S    
C79   H99   1.084810 S    
P2    O6    1.609765 S    
O38   C13   1.394828 S    
C17   H21   1.107484 S    
C34   C62   1.391337 A    
C52   C56   1.453557 A    
C31   C75   1.483706 S    
O12   Ba4   2.870596 S    
C39   C47   1.393769 A    
C42   C46   1.404752 A    
C37   H73   1.082483 S    
O5    Ba2   2.888885 S    
O10   Ba2   2.870596 S    
C9    H59   1.110433 S    
P8    O28   1.559237 D    
P2    Ba2   3.461556 S    
P12   C67   1.866239 S    
O31   Ba3   2.869946 S    
C24   H40   1.109851 S    
Ba3   Ba4   4.711445 S    
O7    Ba4   2.888885 S    
C82   O58   1.214357 D    
O24   C32   1.417494 S    
P5    Ba1   3.463893 S    
Ba2   O45   2.988249 S    
C32   H52   1.109748 S    
C12   H10   1.106593 S    
C79   O55   1.214060 D    
P12   O32   1.754377 S    
C15   C19   1.515452 S    
C35   C63   1.401820 A    
N7    H93   1.042170 S    
C75   O51   1.202685 D    
C30   H50   1.109745 S    
C80   H100  1.076107 S    
P11   O35   1.547047 D    
P11   C68   1.840890 S    
C10   H60   1.102883 S    
C8    C12   1.516259 S    
C21   H37   1.109201 S    
C1    H3    1.108918 S    
P3    O3    1.559937 D    
N1    H81   1.040903 S    
C2    H4    1.112626 S    
C60   C64   1.454945 A    
C40   H76   1.082221 S    
C27   H43   1.106376 S    
C28   H48   1.109642 S    
N8    H95   1.042306 S    
O29   Ba1   2.869946 S    
C3    C31   1.530572 S    
N1    H82   1.042461 S    
O26   Ba2   2.904120 S    
C36   C64   1.391338 A    
Ba1   Ba2   4.711445 S    
P10   O34   1.545167 D    
P7    C64   1.906330 S    
C41   C45   1.405082 A    
P11   O31   1.754023 S    
C6    H6    1.103799 S    
P8    C63   1.924398 S    
O1    Ba1   2.900527 S    
C36   H72   1.082269 S    
C49   C53   1.456029 A    
C54   C72   1.406024 A    
C20   H24   1.101262 S    
P16   C47   1.841474 S    
N4    H87   1.043911 S    
N2    H83   1.043913 S    
P6    O45   1.617521 S    
N6    H92   1.042960 S    
O25   Ba1   2.899858 S    
O8    Ba3   2.885979 S    
O41   C5    1.407393 S    
C20   H32   1.107320 S    
C73   O49   1.202685 D    
C27   H47   1.104595 S    
C7    C79   1.495325 S    
P6    O26   1.559237 D    
P3    O7    1.612258 S    
C33   C65   1.401185 A    
O19   C23   1.401705 S    
O11   P16   1.760786 S    
C22   H38   1.109852 S    
C24   H36   1.108194 S    
O18   C22   1.401475 S    
C29   C73   1.483702 S    
C82   H102  1.086390 S    
C26   H46   1.109640 S    
O23   C31   1.410151 S    
C76   H80   1.082786 S    
C23   H35   1.108162 S    
C31   H51   1.101515 S    
C1    N5    1.466005 S    
C22   C26   1.518354 S    
C18   H22   1.101268 S    
P7    O48   1.614998 S    
Ba1   O46   2.989205 S    
C10   H12   1.106596 S    
C58   C62   1.454946 A    
P2    C50   1.920332 S    
C13   C81   1.480545 S    
C54   C60   1.451656 A    
C37   C45   1.393768 A    
P5    O25   1.559894 D    
O14   P13   1.545615 D    
C71   H65   1.063393 S    
C29   H49   1.101514 S    
C44   C48   1.404752 A    
C18   H26   1.103848 S    
C84   O60   1.214348 D    
C53   C71   1.403250 A    
