data_mof_unit_42264.cif
_audit_creation_date              2013-03-05T16:06:52-0500
_audit_creation_method            fapswitch 2.2
_symmetry_space_group_name_H-M    P1
_symmetry_Int_Tables_number       1
_space_group_crystal_system       triclinic
_cell_length_a                    14.834565
_cell_length_b                    15.231746
_cell_length_c                    27.698412
_cell_angle_alpha                 90.028483
_cell_angle_beta                  103.973715
_cell_angle_gamma                 80.614694
_cell_volume                      5987.17542857

loop_
_atom_site_label
_atom_site_type_symbol
_atom_site_description
_atom_site_fract_x
_atom_site_fract_y
_atom_site_fract_z
_atom_type_partial_charge
O1    O     O_R   0.383110 0.605620 0.485680 -0.597044
O2    O     O_R   0.616890 0.394380 0.514320 -0.594580
O3    O     O_R   0.531900 0.639510 0.503910 -0.628218
O4    O     O_R   0.468100 0.360490 0.496090 -0.605981
C1    C     C_R   0.440599 0.663387 0.492744 0.878664
C2    C     C_R   0.559451 0.336793 0.507878 0.891391
O5    O     O_R   0.425620 0.483050 0.562130 -0.569006
O6    O     O_R   0.574380 0.516950 0.437870 -0.567674
O7    O     O_R   0.574410 0.516930 0.580360 -0.630811
O8    O     O_R   0.425590 0.483070 0.419640 -0.637998
C3    C     C_R   0.500197 0.500700 0.593839 0.899053
C4    C     C_R   0.499204 0.500185 0.406200 0.883474
Zn1   Zn    Zn3+2 0.400660 0.477380 0.487830 0.975100
Zn2   Zn    Zn3+2 0.599340 0.522620 0.512170 0.973993
C5    C     C_R   0.426903 0.563989 0.812720 0.561509
C6    C     C_R   0.542785 0.430121 0.183712 0.600837
O9    O     O_2   0.364234 0.621116 0.778752 -0.542996
O10   O     O_2   0.593950 0.363900 0.216101 -0.549349
N1    N     N_R   0.495665 0.507607 0.797999 -0.349130
N2    N     N_R   0.491959 0.500740 0.200881 -0.344722
C7    C     C_R   0.561670 0.448734 0.830412 0.602085
C8    C     C_R   0.440831 0.571004 0.170477 0.557660
C9    C     C_R   0.425834 0.475102 0.712323 -0.202474
C10   C     C_R   0.541556 0.558679 0.283368 -0.218822
C11   C     C_R   0.426810 0.473402 0.662442 -0.190373
C12   C     C_R   0.543678 0.558517 0.333692 -0.210555
C13   C     C_R   0.570609 0.537027 0.680831 -0.333449
C14   C     C_R   0.445750 0.443426 0.322333 -0.360770
C15   C     C_R   0.568257 0.541500 0.730991 0.544936
C16   C     C_R   0.444771 0.441911 0.271600 0.547786
C17   C     C_R   0.496731 0.508155 0.746629 0.202924
C18   C     C_R   0.492191 0.500854 0.252414 0.232885
C19   C     C_R   0.489484 0.502008 0.897051 -0.198330
C20   C     C_R   0.489103 0.498745 0.100592 -0.194272
C21   C     C_R   0.421614 0.562373 0.862691 -0.181963
C22   C     C_R   0.541867 0.426710 0.132908 -0.190198
C23   C     C_R   0.349402 0.617578 0.878857 0.404509
C24   C     C_R   0.590407 0.352898 0.113531 0.397364
C25   C     C_R   0.560895 0.444878 0.880939 -0.114130
C26   C     C_R   0.439285 0.572551 0.119612 -0.107489
C27   C     C_R   0.499570 0.503502 0.646433 -0.104597
C28   C     C_R   0.496805 0.500317 0.353424 -0.057880
H1    H     H_    0.627562 0.559751 0.668922 0.168203
H2    H     H_    0.407237 0.400394 0.337549 0.145769
C29   C     C_R   0.428459 0.566446 0.016410 0.048683
C30   C     C_R   0.551129 0.435349 0.981398 0.050111
C31   C     C_R   0.542055 0.427127 0.030852 -0.100549
C32   C     C_R   0.419025 0.559987 0.964446 -0.100647
C33   C     C_R   0.486642 0.497432 0.049253 0.009735
C34   C     C_R   0.486391 0.499047 0.947647 0.012823
C35   C     C_R   0.385328 0.641895 0.036667 -0.269977
C36   C     C_R   0.625625 0.384565 0.965403 -0.274218
C37   C     C_R   0.391096 0.646106 0.087502 0.536611
C38   C     C_R   0.629331 0.386044 0.915646 0.528557
O11   O     O_2   0.391018 0.638277 0.189676 -0.504277
O12   O     O_2   0.626818 0.393617 0.813257 -0.484605
C39   C     C_R   0.344610 0.611764 0.928603 0.352604
C40   C     C_R   0.585341 0.350788 0.062425 0.370559
H3    H     H_    0.580237 0.605000 0.356986 0.162779
H4    H     H_    0.371358 0.447483 0.636502 0.217683
H5    H     H_    0.578167 0.603751 0.268265 0.153450
H6    H     H_    0.370270 0.450239 0.724516 0.167524
H7    H     H_    0.350260 0.700909 0.013949 0.210531
H8    H     H_    0.684537 0.345581 0.991521 0.209752
C41   C     C_R   0.402810 0.758702 0.492050 -0.141751
C42   C     C_R   0.596078 0.242622 0.521077 -0.144243
C43   C     C_R   0.272951 0.884611 0.472462 0.539754
C44   C     C_R   0.708172 0.125494 0.573871 0.546033
C45   C     C_R   0.307843 0.792621 0.471917 -0.365533
C46   C     C_R   0.683537 0.214073 0.554077 -0.355972
C47   C     C_R   0.463656 0.815569 0.513902 -0.159718
C48   C     C_R   0.533457 0.183642 0.507773 -0.153988
C49   C     C_R   0.431782 0.905876 0.517911 -0.010866
C50   C     C_R   0.547328 0.102727 0.533933 -0.011324
C51   C     C_R   0.336643 0.942319 0.494334 -0.133281
C52   C     C_R   0.638064 0.069606 0.564794 -0.142708
C53   C     C_R   0.496312 0.961601 0.540485 -0.164412
C54   C     C_R   0.473268 0.052698 0.527563 -0.162102
C55   C     C_R   0.376471 0.090692 0.509622 0.389959
C56   C     C_R   0.583559 0.929623 0.575124 0.394006
C57   C     C_R   0.309085 0.035906 0.491876 0.426966
C58   C     C_R   0.655245 0.981981 0.585613 0.437520
H9    H     H_    0.471063 0.203741 0.478031 0.197712
H10   H     H_    0.537881 0.789109 0.525847 0.209625
H11   H     H_    0.730749 0.261408 0.565733 0.161918
H12   H     H_    0.261720 0.747006 0.455668 0.149177
N3    N     N_R   0.731710 0.552720 0.528410 -0.159561
N4    N     N_R   0.268290 0.447280 0.471590 -0.149240
C59   C     C_R   0.853845 0.579284 0.597586 -0.243449
C60   C     C_R   0.162674 0.360243 0.423227 -0.229697
C61   C     C_R   0.758887 0.584882 0.574405 -0.116232
C62   C     C_R   0.248587 0.390145 0.434439 -0.071686
C63   C     C_R   0.795482 0.518825 0.502450 0.649908
C64   C     C_R   0.207044 0.475429 0.500069 0.624630
C65   C     C_R   0.892856 0.500913 0.526671 -0.148949
C66   C     C_R   0.121728 0.440405 0.493166 -0.140029
C67   C     C_R   0.921868 0.535601 0.574411 -0.077682
C68   C     C_R   0.097515 0.386584 0.451814 -0.063292
C69   C     C_R   0.962029 0.453316 0.504352 -0.178059
C70   C     C_R   0.057343 0.461828 0.523641 -0.188405
C71   C     C_R   0.085603 0.484305 0.574077 0.487885
C72   C     C_R   0.941789 0.391130 0.466581 0.493143
C73   C     C_R   0.017967 0.524138 0.598844 0.363049
C74   C     C_R   0.008966 0.359328 0.439881 0.362712
H13   H     H_    0.300053 0.367889 0.413348 0.149758
H14   H     H_    0.706526 0.611568 0.594130 0.178233
H15   H     H_    0.873393 0.605697 0.634261 0.202907
H16   H     H_    0.147655 0.316947 0.392321 0.174785
O13   O     O_3   0.177166 0.919136 0.455891 -0.567371
C75   C     C_3   0.132015 0.877774 0.413180 0.079296
H17   H     H_    0.113382 0.814209 0.424244 0.130389
H18   H     H_    0.176640 0.865480 0.385932 0.129191
C76   C     C_3   0.040722 0.938153 0.387531 -0.789173
H19   H     H_    0.055969 0.001639 0.374339 0.248525
H20   H     H_    0.002887 0.904823 0.354994 0.197001
H21   H     H_    0.994780 0.952747 0.413813 0.260089
O14   O     O_3   0.795135 0.096365 0.606718 -0.553759
C77   C     C_3   0.869835 0.116045 0.587321 0.085994
H22   H     H_    0.878462 0.186578 0.593518 0.134624
H23   H     H_    0.858452 0.102915 0.546842 0.116167
C78   C     C_3   0.961411 0.057994 0.614692 -0.778072
H24   H     H_    0.957561 0.986692 0.608143 0.242816
H25   H     H_    0.020886 0.075433 0.600920 0.201958
H26   H     H_    0.974773 0.068763 0.655292 0.263236
O15   O     O_3   0.345361 0.181552 0.509383 -0.604042
C79   C     C_3   0.340889 0.205519 0.557993 -0.243653
H27   H     H_    0.411289 0.190735 0.584663 0.156520
H28   H     H_    0.289237 0.171958 0.570981 0.155860
H29   H     H_    0.316647 0.278444 0.557427 0.195819
O16   O     O_3   0.599334 0.848510 0.600935 -0.616363
C80   C     C_3   0.551154 0.857909 0.639214 -0.277768
H30   H     H_    0.473585 0.875113 0.624012 0.163299
H31   H     H_    0.576823 0.908443 0.665808 0.174100
H32   H     H_    0.565181 0.793226 0.660253 0.166764
O17   O     O_3   0.044618 0.543608 0.648646 -0.600177
C81   C     C_3   0.089593 0.619103 0.653238 0.084696
H33   H     H_    0.049063 0.674014 0.626057 0.106785
H34   H     H_    0.162125 0.601013 0.647968 0.207072
C82   C     C_3   0.097284 0.653449 0.705385 -0.732245
H35   H     H_    0.139829 0.601385 0.733515 0.285929
H36   H     H_    0.132042 0.713195 0.709253 0.210066
H37   H     H_    0.025966 0.671874 0.712218 0.241273
O18   O     O_3   0.990145 0.296671 0.404210 -0.600411
C83   C     C_3   0.934247 0.340528 0.359477 0.114600
H38   H     H_    0.967093 0.395253 0.347865 0.114687
H39   H     H_    0.862399 0.368073 0.363571 0.199792
C84   C     C_3   0.924601 0.273978 0.318372 -0.838463
H40   H     H_    0.890254 0.219294 0.328228 0.267265
H41   H     H_    0.880874 0.307872 0.282963 0.216499
H42   H     H_    0.995225 0.245427 0.313076 0.241403
O19   O     O_3   0.228827 0.540040 0.533895 -0.553404
C85   C     C_3   0.177097 0.623264 0.513306 0.085725
H43   H     H_    0.100171 0.625577 0.508830 0.107829
H44   H     H_    0.189635 0.637357 0.476291 0.120365
C86   C     C_3   0.207541 0.695998 0.548135 -0.787943
H45   H     H_    0.284875 0.693415 0.555397 0.269161
H46   H     H_    0.170963 0.762264 0.531162 0.215376
H47   H     H_    0.189222 0.686975 0.584062 0.227479
O20   O     O_3   0.764831 0.509752 0.451894 -0.549491
C87   C     C_3   0.772151 0.588431 0.426952 0.097895
H48   H     H_    0.830234 0.623081 0.447213 0.096705
H49   H     H_    0.704846 0.635820 0.421615 0.141848
C88   C     C_3   0.791239 0.565605 0.376463 -0.856479
H50   H     H_    0.742311 0.522140 0.356635 0.277438
H51   H     H_    0.782116 0.627598 0.353473 0.206229
H52   H     H_    0.864721 0.530301 0.381610 0.221529
O21   O     O_3   0.177689 0.458384 0.601109 -0.572565
C89   C     C_3   0.187128 0.370758 0.620443 -0.323781
H53   H     H_    0.169790 0.323506 0.590241 0.152926
H54   H     H_    0.142478 0.367881 0.647239 0.193183
H55   H     H_    0.261397 0.348363 0.640982 0.167563
O22   O     O_3   0.859823 0.355028 0.457641 -0.548063
C90   C     C_3   0.869932 0.287746 0.494412 -0.268321
H56   H     H_    0.875907 0.315811 0.531917 0.136921
H57   H     H_    0.931538 0.234838 0.494753 0.167955
H58   H     H_    0.805988 0.256046 0.485666 0.184044
O23   O     O_3   0.638360 0.572703 0.765847 -0.584081
C91   C     C_3   0.633176 0.664758 0.756518 0.064106
H59   H     H_    0.559361 0.701323 0.749746 0.134112
H60   H     H_    0.662095 0.675962 0.723972 0.145492
C92   C     C_3   0.692083 0.703207 0.801710 -0.772505
H61   H     H_    0.766645 0.669577 0.809106 0.266321
H62   H     H_    0.688868 0.775595 0.794794 0.201135
H63   H     H_    0.664547 0.693475 0.834882 0.250670
O24   O     O_3   0.392866 0.388829 0.239064 -0.609513
C93   C     C_3   0.416655 0.298693 0.256312 0.106408
H64   H     H_    0.374785 0.286104 0.283122 0.125179
H65   H     H_    0.493317 0.279225 0.274342 0.163377
C94   C     C_3   0.392874 0.239741 0.212274 -0.769786
H66   H     H_    0.434160 0.250628 0.184908 0.278328
H67   H     H_    0.410399 0.168651 0.225276 0.195988
H68   H     H_    0.316522 0.255677 0.193846 0.249123
O25   O     O_3   0.277797 0.672033 0.845320 -0.548431
C95   C     C_3   0.294717 0.760677 0.849840 0.180576
H69   H     H_    0.366775 0.765813 0.845885 0.120761
H70   H     H_    0.286439 0.786565 0.886381 0.153503
C96   C     C_3   0.223681 0.819266 0.808857 -0.793948
H71   H     H_    0.150841 0.814827 0.811182 0.259785
H72   H     H_    0.234449 0.889602 0.812947 0.193427
H73   H     H_    0.233069 0.797469 0.771872 0.264747
O26   O     O_3   0.635870 0.278241 0.143458 -0.549352
C97   C     C_3   0.733762 0.279670 0.155914 0.181149
H74   H     H_    0.749672 0.342583 0.174107 0.123307
H75   H     H_    0.762553 0.272575 0.122272 0.151988
C98   C     C_3   0.783535 0.202125 0.192288 -0.797179
H76   H     H_    0.770169 0.138166 0.175036 0.256105
H77   H     H_    0.860626 0.202408 0.202335 0.193973
H78   H     H_    0.757311 0.207988 0.226672 0.273529
O27   O     O_3   0.345435 0.721442 0.104937 -0.550800
C99   C     C_3   0.404273 0.786717 0.111483 -0.253641
H79   H     H_    0.473505 0.762354 0.137899 0.153033
H80   H     H_    0.369660 0.845627 0.127670 0.198218
H81   H     H_    0.414859 0.808990 0.075297 0.129550
O28   O     O_3   0.704685 0.334912 0.902066 -0.555475
C100  C     C_3   0.693014 0.244789 0.902042 -0.231707
H82   H     H_    0.748927 0.205258 0.886928 0.199271
H83   H     H_    0.623837 0.235522 0.877668 0.151139
H84   H     H_    0.700807 0.217899 0.940422 0.150922
O29   O     O_3   0.263734 0.654429 0.940711 -0.616742
C101  C     C_3   0.203263 0.591914 0.940556 -0.226434
H85   H     H_    0.235478 0.537855 0.969563 0.155619
H86   H     H_    0.183296 0.563287 0.903239 0.172333
H87   H     H_    0.137637 0.626470 0.949303 0.191711
O30   O     O_3   0.619922 0.271309 0.043932 -0.618874
C102  C     C_3   0.544099 0.225945 0.024834 -0.281138
H88   H     H_    0.492098 0.264184 0.992964 0.154766
H89   H     H_    0.508779 0.211024 0.054340 0.180383
H90   H     H_    0.572100 0.161528 0.010830 0.180376
O31   O     O_3   0.216136 0.075091 0.472742 -0.532113
C103  C     C_3   0.205476 0.106342 0.423361 -0.187355
H91   H     H_    0.224327 0.051057 0.399417 0.124995
H92   H     H_    0.247881 0.159576 0.421709 0.158674
H93   H     H_    0.130462 0.135630 0.407759 0.209861
O32   O     O_3   0.740359 0.947977 0.618248 -0.528399
C104  C     C_3   0.794709 0.889456 0.592548 -0.220620
H94   H     H_    0.806989 0.923953 0.559861 0.130488
H95   H     H_    0.761718 0.829977 0.580540 0.167602
H96   H     H_    0.864420 0.865284 0.618168 0.175760

loop_
_geom_bond_atom_site_label_1
_geom_bond_atom_site_label_2
_geom_bond_distance
_ccdc_geom_bond_type
C46   H11   1.081599 S    
C95   H70   1.113023 S    
C79   H27   1.112652 S    
N3    C61   1.356960 A    
C86   H46   1.110349 S    
C49   C51   1.423449 A    
O26   C97   1.413044 S    
C84   H40   1.110742 S    
O7    Zn2   2.014855 S    
C80   H32   1.108480 S    
N1    C17   1.426811 S    
O30   C102  1.410040 S    
C103  H92   1.111559 S    
C101  H86   1.113580 S    
C91   H59   1.116436 S    
O24   C93   1.413830 S    
O17   C81   1.411636 S    
C31   C33   1.413132 A    
C38   O28   1.384348 S    
C98   H76   1.110636 S    
O5    C3    1.301961 A    
C10   H5    1.083000 S    
C2    C42   1.461764 S    
C97   H75   1.113316 S    
C66   C70   1.420807 A    
O1    C1    1.305288 A    
C88   H51   1.110284 S    
C10   C12   1.386623 A    
Zn2   N3    2.033541 S    
C47   H10   1.078773 S    
C26   C37   1.410687 A    
C100  H83   1.114171 S    
C72   C74   1.404571 A    
C82   H37   1.110709 S    
C65   C69   1.422697 A    
C29   C32   1.417032 A    
C25   C38   1.410919 A    
C13   C15   1.399546 A    
C29   C35   1.406335 A    
O18   C83   1.411747 S    
C30   C36   1.404717 A    
C102  H90   1.109152 S    
C103  H93   1.109106 S    
C63   O20   1.378216 S    
C14   C28   1.401594 A    
O4    Zn1   1.879391 S    
C96   H72   1.110435 S    
C73   O17   1.386202 S    
C77   H22   1.110900 S    
C78   H26   1.110671 S    
C4    C28   1.453621 S    
C102  H89   1.113546 S    
C24   C40   1.399930 A    
C43   O13   1.395642 S    
C9    H6    1.083180 S    
C42   C48   1.382870 A    
C88   H50   1.109318 S    
C94   H68   1.110679 S    
C98   H78   1.110801 S    
C24   O26   1.384172 S    
C66   C68   1.417540 A    
O6    Zn2   2.005521 S    
C104  H94   1.113703 S    
C11   H4    1.081192 S    
C59   C61   1.388492 A    
C12   H3    1.080510 S    
C6    N2    1.363743 A    
C71   C73   1.406723 A    
C76   H21   1.110786 S    
C89   H54   1.112864 S    
C95   H69   1.115629 S    
C55   O15   1.385139 S    
O19   C85   1.411783 S    
C63   C65   1.419408 A    
C57   O31   1.384678 S    
C86   H47   1.107216 S    
C104  H95   1.112027 S    
C61   H14   1.081118 S    
O2    C2    1.302853 A    
C83   C84   1.520463 S    
O8    C4    1.299362 A    
C5    C21   1.405593 A    
C101  H85   1.113014 S    
C36   C38   1.392834 A    
C102  H88   1.112934 S    
C77   H23   1.115777 S    
C90   H57   1.113726 S    
C72   O22   1.383732 S    
N4    C64   1.360257 A    
C56   O16   1.384956 S    
C97   H74   1.115239 S    
C48   H9    1.081055 S    
C16   O24   1.387790 S    
N4    C62   1.355910 A    
C32   C39   1.419075 A    
C88   H52   1.109773 S    
C35   H7    1.079135 S    
C48   C50   1.390170 A    
C36   H8    1.079601 S    
C92   H62   1.110556 S    
C52   C58   1.413399 A    
O29   C101  1.410034 S    
C47   C49   1.393232 A    
C40   O30   1.383780 S    
O28   C100  1.411320 S    
C51   C57   1.414362 A    
C97   C98   1.520790 S    
C39   O29   1.383479 S    
C79   H29   1.109228 S    
C80   H31   1.113380 S    
C19   C34   1.414183 A    
C53   C54   1.398926 A    
C14   H2    1.082745 S    
C75   H17   1.111857 S    
C59   C67   1.402294 A    
C43   C45   1.413742 A    
C77   C78   1.521059 S    
C9    C17   1.397166 A    
C92   H61   1.110714 S    
C96   H73   1.110200 S    
C5    N1    1.363480 A    
C100  H82   1.109203 S    
C87   C88   1.521648 S    
O31   C103  1.412097 S    
C44   O14   1.391309 S    
C13   C27   1.403288 A    
C60   C62   1.387884 A    
O20   C87   1.415909 S    
C7    C25   1.403661 A    
C85   C86   1.521081 S    
C29   C33   1.415404 A    
O6    C4    1.303288 A    
C8    C26   1.403637 A    
C59   H15   1.083186 S    
C1    C41   1.466883 S    
O27   C99   1.410557 S    
C74   O18   1.384814 S    
C6    O10   1.349328 S    
C19   C25   1.416308 A    
C64   C66   1.423452 A    
O7    C3    1.303798 A    
C75   C76   1.521314 S    
C78   H24   1.109369 S    
C67   C73   1.404912 A    
O3    Zn2   1.879394 S    
C50   C52   1.421350 A    
C83   H39   1.112372 S    
C89   H53   1.113474 S    
N2    C8    1.362942 A    
O23   C91   1.412209 S    
C99   H80   1.109222 S    
C58   O32   1.384039 S    
O15   C79   1.408972 S    
C104  H96   1.109166 S    
C20   C26   1.415630 A    
C100  H84   1.112158 S    
O4    C2    1.303932 A    
O1    Zn1   1.927058 S    
O32   C104  1.411922 S    
C11   C27   1.401636 A    
C80   H30   1.112590 S    
C84   H42   1.110777 S    
O21   C89   1.411148 S    
O22   C90   1.409699 S    
C12   C28   1.397557 A    
C81   H34   1.110907 S    
C55   C57   1.404131 A    
C76   H19   1.109677 S    
N2    C18   1.426534 S    
C53   C56   1.424101 A    
C21   C23   1.411601 A    
C94   H66   1.111138 S    
C5    O9    1.349520 S    
C30   C31   1.415941 A    
C96   H71   1.110739 S    
C20   C33   1.413861 A    
C79   H28   1.113069 S    
C92   H63   1.110926 S    
C84   H41   1.110505 S    
C54   C55   1.424238 A    
C87   H49   1.110644 S    
C85   H44   1.112280 S    
C81   H33   1.116196 S    
O3    C1    1.303654 A    
O8    Zn1   2.014856 S    
C7    O12   1.349594 S    
C91   H60   1.112033 S    
C82   H35   1.110931 S    
C65   C67   1.418289 A    
C90   H58   1.109011 S    
C23   C39   1.400342 A    
C8    O11   1.349500 S    
C44   C52   1.425400 A    
C99   H81   1.112693 S    
C71   O21   1.383109 S    
C30   C34   1.414562 A    
C69   C70   1.412933 A    
C83   H38   1.115401 S    
C87   H48   1.118208 S    
C93   C94   1.520848 S    
C22   C24   1.411589 A    
O16   C80   1.409947 S    
C64   O19   1.381049 S    
C60   H16   1.082862 S    
C14   C16   1.402014 A    
C15   C17   1.403345 A    
C41   C47   1.386359 A    
O14   C77   1.415117 S    
C81   C82   1.520550 S    
C31   C40   1.419672 A    
C16   C18   1.403679 A    
C82   H36   1.109851 S    
C10   C18   1.397692 A    
C42   C46   1.396971 A    
C76   H20   1.110472 S    
C9    C11   1.385381 A    
C41   C45   1.395029 A    
N3    C63   1.359205 A    
Zn1   N4    2.033543 S    
C32   C34   1.413664 A    
C70   C71   1.417069 A    
C19   C21   1.414579 A    
C56   C58   1.406579 A    
C60   C68   1.401817 A    
C3    C27   1.459606 S    
C20   C22   1.414310 A    
C99   H79   1.113957 S    
C103  H91   1.113284 S    
O2    Zn2   1.927058 S    
C75   H18   1.115202 S    
C78   H25   1.110657 S    
C91   C92   1.520327 S    
C90   H56   1.112296 S    
C95   C96   1.520524 S    
C13   H1    1.082823 S    
C62   H13   1.081620 S    
O5    Zn1   2.005524 S    
C69   C72   1.421935 A    
C43   C51   1.423465 A    
C85   H43   1.112397 S    
C37   O27   1.382993 S    
O25   C95   1.413114 S    
C50   C54   1.413546 A    
C86   H45   1.109936 S    
C44   C46   1.413393 A    
C49   C53   1.415332 A    
C15   O23   1.383954 S    
C89   H55   1.108499 S    
C35   C37   1.391976 A    
C93   H64   1.111660 S    
O13   C75   1.413964 S    
C98   H77   1.110508 S    
C93   H65   1.116490 S    
C68   C74   1.405401 A    
C101  H87   1.109127 S    
C6    C22   1.404990 A    
C45   H12   1.076780 S    
C23   O25   1.384219 S    
C94   H67   1.110469 S    
N1    C7    1.363370 A    
