data_mof_unit_18001.cif
_audit_creation_date              2012-12-10T18:57:11-0500
_audit_creation_method            fapswitch 2.2
_symmetry_space_group_name_H-M    P1
_symmetry_Int_Tables_number       1
_space_group_crystal_system       triclinic
_cell_length_a                    8.735556
_cell_length_b                    10.893838
_cell_length_c                    9.585049
_cell_angle_alpha                 89.573449
_cell_angle_beta                  97.803338
_cell_angle_gamma                 91.31481
_cell_volume                      903.455906945

loop_
_atom_site_label
_atom_site_type_symbol
_atom_type_description
_atom_site_fract_x
_atom_site_fract_y
_atom_site_fract_z
_atom_type_partial_charge
C1    C     C_R   0.499889 0.263078 0.500430 0.812436
C2    C     C_R   0.509301 0.940158 0.368849 0.262440
C3    C     C_R   0.498104 0.870577 0.494277 -0.172553
C4    C     C_R   0.486295 0.936744 0.615914 0.053864
C5    C     C_3   0.468512 0.926005 0.768712 -0.006798
C6    C     C_3   0.472009 0.067841 0.770708 -0.426840
C7    C     C_R   0.583613 0.586486 0.082934 0.317468
C8    C     C_R   0.405454 0.421018 0.060309 0.250545
C9    C     C_R   0.407681 0.421735 0.912583 -0.092268
C10   C     C_R   0.582157 0.587477 0.935758 0.250649
C11   C     C_3   0.751984 0.611121 0.948794 -0.501074
C12   C     C_R   0.204187 0.498887 0.464186 0.872788
C13   C     C_3   0.754450 0.606462 0.107020 -0.483107
C14   C     C_R   0.499216 0.737422 0.498658 0.836591
C15   C     C_R   0.796044 0.500094 0.536170 0.881123
C16   C     C_2   0.038649 0.495611 0.445324 -0.353515
C17   C     C_2   0.962090 0.501345 0.556421 -0.370114
C18   C     C_R   0.489018 0.060694 0.618486 0.064719
C19   C     C_R   0.500355 0.130954 0.499225 -0.137051
C20   C     C_R   0.510703 0.068551 0.373204 -0.237389
Cu1   Cu    Cu3+1 0.499990 0.499980 0.640670 0.933213
Cu2   Cu    Cu3+1 0.500010 0.500020 0.359330 0.967906
H1    H     H_    0.979869 0.487258 0.339147 0.165191
H2    H     H_    0.335687 0.357282 0.845973 0.149798
H3    H     H_    0.815501 0.534538 0.908798 0.217831
H4    H     H_    0.780591 0.703734 0.908880 0.200332
H5    H     H_    0.814217 0.524472 0.153752 0.197517
H6    H     H_    0.789760 0.695025 0.159888 0.234620
H7    H     H_    0.021606 0.507956 0.663444 0.172058
H8    H     H_    0.519844 0.119129 0.276851 0.197974
H9    H     H_    0.570011 0.884290 0.832863 0.186082
H10   H     H_    0.361455 0.110199 0.787868 0.195453
H11   H     H_    0.576958 0.107879 0.834227 0.187487
N1    N     N_R   0.500980 0.500930 0.148050 -0.196237
N2    N     N_R   0.500990 0.500890 0.852140 -0.214603
O1    O     O_R   0.500000 0.319640 0.618810 -0.584018
O2    O     O_R   0.500020 0.319680 0.381230 -0.599104
O3    O     O_R   0.274830 0.499980 0.591380 -0.584889
O4    O     O_R   0.274850 0.500020 0.353800 -0.589636
O5    O     O_R   0.499980 0.680320 0.618770 -0.592797
O6    O     O_R   0.500000 0.680360 0.381190 -0.531123
O7    O     O_R   0.725150 0.499980 0.646200 -0.592583
O8    O     O_R   0.725170 0.500020 0.408620 -0.577472
Br1   Br    Br    0.521630 0.873722 0.185663 -0.606406
C21   C     C_3   0.312661 0.869029 0.793991 -0.772189
H12   H     H_    0.313347 0.768015 0.780494 0.248557
H13   H     H_    0.291947 0.888467 0.903282 0.261672
H14   H     H_    0.216299 0.907058 0.719686 0.225767
C22   C     C_3   0.295836 0.326712 0.110037 -0.800486
H15   H     H_    0.282774 0.328963 0.221320 0.277433
H16   H     H_    0.178336 0.339711 0.051861 0.192802
H17   H     H_    0.333791 0.233403 0.086403 0.207935

loop_
_geom_bond_atom_site_label_1
_geom_bond_atom_site_label_2
_ccdc_geom_bond_type
C8    C9    A    
C7    C10   A    
C6    H10   S    
C9    H2    S    
C10   N2    A    
Cu1   N2    S    
C17   H7    S    
C19   C20   A    
C6    H11   S    
C1    O2    A    
C22   H17   S    
C4    C18   A    
C12   O4    A    
C2    C3    A    
C15   O8    A    
C13   H6    S    
Cu1   O1    S    
C8    N1    A    
C21   H12   S    
C11   C13   S    
C3    C14   S    
C5    C21   S    
C14   O6    A    
C6    C18   S    
Cu2   O4    S    
C18   C19   A    
C16   H1    S    
C21   H13   S    
C12   O3    A    
C5    C6    S    
Cu2   N1    S    
C7    N1    A    
C1    C19   S    
Cu2   O6    S    
C10   C11   S    
C11   H3    S    
C14   O5    A    
C3    C4    A    
C12   C16   S    
C7    C13   S    
C15   O7    A    
C15   C17   S    
C22   H15   S    
C21   H14   S    
C9    N2    A    
C4    C5    S    
C20   H8    S    
C11   H4    S    
C22   H16   S    
Cu1   Cu2   S    
Cu2   O2    S    
C2    C20   A    
C8    C22   S    
Cu2   O8    S    
C13   H5    S    
Cu1   O3    S    
Cu1   O7    S    
C1    O1    A    
C2    Br1   S    
C16   C17   D    
C5    H9    S    
Cu1   O5    S    
