data_mof_unit_43853.cif
_audit_creation_date              2012-12-11T17:07:31-0500
_audit_creation_method            fapswitch 2.2
_symmetry_space_group_name_H-M    P1
_symmetry_Int_Tables_number       1
_space_group_crystal_system       triclinic
_cell_length_a                    6.941707
_cell_length_b                    14.534031
_cell_length_c                    16.032313
_cell_angle_alpha                 90.076208
_cell_angle_beta                  89.550483
_cell_angle_gamma                 90.322948
_cell_volume                      1617.43903429

loop_
_atom_site_label
_atom_site_type_symbol
_atom_type_description
_atom_site_fract_x
_atom_site_fract_y
_atom_site_fract_z
_atom_type_partial_charge
O1    O     O_R   0.505720 0.583900 0.413310 -0.528104
O2    O     O_R   0.175940 0.594920 0.586080 -0.524701
O3    O     O_R   0.005640 0.416100 0.586690 -0.543894
C1    C     C_R   0.344544 0.617775 0.614209 0.736053
O4    O     O_R   0.176000 0.594930 0.413930 -0.532727
O5    O     O_R   0.005700 0.416110 0.413310 -0.533669
C2    C     C_R   0.345463 0.617275 0.385441 0.736038
O6    O     O_R   0.505660 0.583890 0.586690 -0.537955
O7    O     O_3   0.339200 0.441330 0.500000 -0.386986
V1    V     V_3+5 0.064350 0.510880 0.500000 1.516152
O8    O     O_R   0.675980 0.405080 0.413920 -0.557611
C3    C     C_R   0.845305 0.383636 0.384721 0.731040
O9    O     O_R   0.675920 0.405070 0.586070 -0.547506
C4    C     C_R   0.843087 0.384225 0.615378 0.673825
V2    V     V_3+5 0.564340 0.489120 0.500000 1.452672
O10   O     O_3   0.839360 0.558670 0.500000 -0.335267
C5    C     C_R   0.739895 0.429264 0.785871 -0.161097
C6    C     C_R   0.692039 0.453387 0.867532 -0.123800
C7    C     C_R   0.706194 0.388983 0.931164 -0.109927
C8    C     C_R   0.768872 0.300036 0.913679 -0.141775
C9    C     C_R   0.817824 0.273212 0.831261 0.055791
C10   C     C_R   0.802317 0.339245 0.766083 0.072709
C11   C     C_R   0.887777 0.183449 0.813782 -0.173063
C12   C     C_R   0.943581 0.160621 0.730093 -0.038223
C13   C     C_R   0.905956 0.223574 0.664420 -0.058927
C14   C     C_R   0.848270 0.314466 0.682880 -0.122157
C15   C     C_R   0.040451 0.077722 0.708858 0.365233
C16   C     C_R   0.057218 0.049875 0.625369 -0.215623
C17   C     C_R   0.000477 0.108157 0.560319 0.481207
C18   C     C_R   0.928616 0.194677 0.580637 -0.228640
H1    H     H_    0.726846 0.481872 0.738565 0.091484
H2    H     H_    0.644079 0.522514 0.881500 0.108750
H3    H     H_    0.669762 0.408199 0.994599 0.116310
H4    H     H_    0.780895 0.253241 0.965758 0.097957
H5    H     H_    0.122773 0.984023 0.612413 0.180289
H6    H     H_    0.889752 0.239187 0.529415 0.126676
C19   C     C_R   0.780567 0.165784 0.257747 0.129469
C20   C     C_R   0.883618 0.183733 0.184261 -0.170573
C21   C     C_R   0.995402 0.265007 0.181694 -0.273881
H7    H     H_    0.080873 0.280235 0.126538 0.140642
C22   C     C_R   0.985817 0.330864 0.247222 0.441534
C23   C     C_R   0.860906 0.315421 0.316475 -0.206664
C24   C     C_R   0.770810 0.229184 0.322184 0.085560
C25   C     C_3   0.570646 0.200497 0.345335 -0.396004
C26   C     C_3   0.580835 0.131435 0.273692 -0.411704
H8    H     H_    0.463157 0.255382 0.335396 0.163571
H9    H     H_    0.564201 0.167271 0.407719 0.187526
H10   H     H_    0.480845 0.147553 0.221909 0.175424
H11   H     H_    0.578486 0.058688 0.295030 0.175782
C27   C     C_R   0.496092 0.755866 0.683899 0.036367
C28   C     C_R   0.350873 0.688578 0.680548 -0.112733
C29   C     C_R   0.203055 0.693778 0.741314 -0.122729
H12   H     H_    0.083191 0.645869 0.739795 0.106370
C30   C     C_R   0.215225 0.756880 0.808088 -0.158069
H13   H     H_    0.103572 0.756343 0.855589 0.113238
C31   C     C_R   0.376290 0.815750 0.816282 -0.062192
C32   C     C_R   0.509540 0.816617 0.750443 0.008515
C33   C     C_3   0.724238 0.816390 0.748549 -0.458425
C34   C     C_3   0.709624 0.751414 0.673662 0.333539
H14   H     H_    0.784431 0.782825 0.804714 0.137873
H15   H     H_    0.785504 0.885521 0.734430 0.223415
H16   H     H_    0.768489 0.681564 0.684535 0.037936
C35   C     C_R   0.506035 0.682470 0.257302 0.074097
C36   C     C_R   0.353997 0.683233 0.315225 -0.090199
C37   C     C_R   0.203259 0.745848 0.301462 -0.148118
H17   H     H_    0.082196 0.748618 0.344190 0.161733
C38   C     C_R   0.213501 0.809865 0.235665 -0.184564
H18   H     H_    0.099944 0.859996 0.229612 0.130116
C39   C     C_R   0.374994 0.813265 0.181905 -0.104869
C40   C     C_R   0.516643 0.746102 0.192496 0.104987
C41   C     C_3   0.729002 0.757167 0.201628 -0.407797
C42   C     C_3   0.717504 0.687359 0.271961 -0.384515
H19   H     H_    0.768949 0.827429 0.223029 0.175364
H20   H     H_    0.809601 0.731811 0.146083 0.175320
H21   H     H_    0.751761 0.716892 0.334068 0.219688
H22   H     H_    0.790579 0.621444 0.256935 0.180311
O11   O     O_R   0.229140 0.916090 0.913340 -0.515240
O12   O     O_R   0.558860 0.905090 0.086080 -0.541220
O13   O     O_R   0.729100 0.083920 0.086690 -0.540181
C43   C     C_R   0.389240 0.883317 0.115107 0.685097
O14   O     O_R   0.558860 0.905090 0.913930 -0.549253
O15   O     O_R   0.729100 0.083920 0.913310 -0.556336
C44   C     C_R   0.389639 0.881295 0.886598 0.712495
O16   O     O_R   0.229140 0.916080 0.086720 -0.543689
O17   O     O_3   0.395570 0.058660 0.000020 -0.373741
V3    V     V_3+5 0.670450 0.989140 0.000000 1.392385
O18   O     O_R   0.058810 0.094980 0.913910 -0.512599
C45   C     C_R   0.892223 0.113554 0.882245 0.774110
O19   O     O_R   0.058810 0.094980 0.086060 -0.544418
C46   C     C_R   0.890052 0.116774 0.114944 0.711511
V4    V     V_3+5 0.170450 0.010950 0.999970 1.441046
O20   O     O_3   0.895460 0.941370 0.999990 -0.371280
O21   O     O_3   0.007675 0.084109 0.476228 -0.541525
C47   C     C_3   0.171685 0.031278 0.456050 -0.198282
H23   H     H_    0.146536 0.957734 0.471731 0.195765
H24   H     H_    0.304442 0.057983 0.486574 0.109291
H25   H     H_    0.196269 0.035179 0.387669 0.156241
O22   O     O_3   0.071057 0.416432 0.236555 -0.558884
C48   C     C_3   0.271989 0.408636 0.246134 -0.228989
H26   H     H_    0.307764 0.393160 0.312002 0.145255
H27   H     H_    0.339535 0.475892 0.230644 0.145352
H28   H     H_    0.336124 0.356411 0.203515 0.121197
S1    S     S_3+6 0.787439 0.803601 0.577863 -0.005149
O23   O     O_2   0.003734 0.804327 0.574261 -0.336773
O24   O     O_2   0.711824 0.749417 0.505180 -0.344607
O25   O     O_3   0.707196 0.912418 0.571741 -0.503805
H29   H     H_    0.565962 0.906739 0.564737 0.328596
O26   O     O_3   0.146373 0.031020 0.767327 -0.547759
C49   C     C_3   0.339469 0.062675 0.761191 -0.182539
H30   H     H_    0.415114 0.047109 0.819772 0.170803
H31   H     H_    0.351408 0.138783 0.753144 0.115780
H32   H     H_    0.415980 0.026962 0.709388 0.125465

loop_
_geom_bond_atom_site_label_1
_geom_bond_atom_site_label_2
_ccdc_geom_bond_type
O18   C45   A    
O21   C47   S    
O18   V4    S    
C22   C23   A    
C7    C8    A    
C12   C15   A    
C42   H22   S    
O17   V4    S    
C21   C22   A    
O17   V3    S    
C31   C32   A    
C19   C20   A    
C27   C34   S    
C16   C17   A    
C49   H31   S    
O5    C3    A    
C20   C21   A    
O12   C43   A    
O25   H29   S    
O11   C44   A    
C33   H14   S    
V2    O10   S    
O26   C49   S    
C6    C7    A    
C1    O6    A    
O13   C46   A    
C3    C23   S    
O8    V2    S    
C16   H5    S    
C25   H8    S    
C37   C38   A    
C11   C12   A    
C40   C41   S    
O1    V2    S    
O16   V4    S    
O19   V4    S    
O7    V1    S    
O14   V3    S    
C25   H9    S    
C43   O16   A    
C8    H4    S    
O12   V3    S    
C33   H15   S    
O9    C4    A    
C47   H23   S    
C42   H21   S    
O14   C44   A    
C29   C30   A    
C5    C6    A    
C30   C31   A    
C1    C28   S    
C28   C29   A    
C12   C13   A    
C7    H3    S    
C49   H32   S    
V4    O20   S    
O4    C2    A    
C47   H25   S    
C13   C14   A    
O15   V3    S    
C38   H18   S    
C38   C39   A    
C19   C24   A    
O2    C1    A    
C24   C25   S    
C17   C18   A    
C48   H26   S    
C35   C40   A    
C26   H11   S    
C27   C28   A    
S1    O24   D    
C4    C14   S    
C47   H24   S    
O3    C4    A    
C48   H27   S    
C37   H17   S    
O6    V2    S    
C11   C45   S    
C9    C11   A    
C5    H1    S    
C6    H2    S    
C23   C24   A    
C19   C26   S    
O2    V1    S    
C21   H7    S    
C29   H12   S    
C31   C44   S    
C41   H19   S    
C26   H10   S    
C13   C18   A    
C30   H13   S    
O11   V4    S    
C34   H16   S    
O1    C2    A    
C27   C32   A    
C25   C26   S    
O5    V1    S    
C41   H20   S    
O8    C3    A    
C20   C46   S    
C5    C10   A    
C18   H6    S    
C34   S1    S    
C36   C37   A    
O9    V2    S    
C33   C34   S    
C41   C42   S    
O3    V1    S    
V3    O20   S    
C49   H30   S    
C17   O21   S    
C32   C33   S    
C15   O26   S    
O15   C45   A    
C35   C42   S    
S1    O25   S    
O7    V2    S    
C39   C40   A    
C2    C36   S    
C35   C36   A    
O4    V1    S    
C48   H28   S    
C8    C9    A    
O22   C48   S    
C10   C14   A    
S1    O23   D    
C22   O22   S    
C39   C43   S    
V1    O10   S    
O19   C46   A    
C9    C10   A    
O13   V3    S    
C15   C16   A    
