data_mof_unit_6640.cif
_audit_creation_date              2012-12-11T17:39:29-0500
_audit_creation_method            fapswitch 2.2
_symmetry_space_group_name_H-M    P1
_symmetry_Int_Tables_number       1
_space_group_crystal_system       triclinic
_cell_length_a                    15.105421
_cell_length_b                    15.018825
_cell_length_c                    14.935107
_cell_angle_alpha                 108.548456
_cell_angle_beta                  109.981322
_cell_angle_gamma                 110.235168
_cell_volume                      2596.42880119

loop_
_atom_site_label
_atom_site_type_symbol
_atom_type_description
_atom_site_fract_x
_atom_site_fract_y
_atom_site_fract_z
_atom_type_partial_charge
C1    C     C_R   0.909543 0.975516 0.721624 -0.124203
C2    C     C_R   0.996393 0.323549 0.534014 0.049310
C3    C     C_R   0.365285 0.301633 0.800798 0.131112
C4    C     C_R   0.636762 0.939118 0.436328 0.060308
C5    C     C_R   0.750980 0.687102 0.278842 -0.157862
C6    C     C_R   0.245725 0.027421 0.433585 -0.108173
C7    C     C_R   0.088587 0.791322 0.597476 -0.135300
C8    C     C_R   0.907895 0.000397 0.199895 -0.149330
C9    C     C_R   0.089153 0.093383 0.288656 -0.145337
C10   C     C_R   0.907250 0.705347 0.510089 -0.146929
C11   C     C_R   0.750647 0.779364 0.186898 -0.125209
C12   C     C_R   0.090416 0.315688 0.555628 -0.133518
C13   C     C_R   0.256722 0.942640 0.532969 -0.141868
C14   C     C_R   0.724582 0.677040 0.176608 0.127192
C15   C     C_R   0.284212 0.963181 0.458906 0.046039
C16   C     C_R   0.995840 0.702374 0.572687 0.070707
C17   C     C_R   0.995672 0.059789 0.193032 0.067488
C18   C     C_R   0.486458 0.597819 0.298406 -0.098254
C19   C     C_R   0.477112 0.689586 0.310471 -0.152294
C20   C     C_R   0.447788 0.734725 0.385675 0.116781
C21   C     C_R   0.421823 0.681990 0.443525 -0.163802
C22   C     C_R   0.428033 0.587992 0.428581 -0.121440
C23   C     C_R   0.302734 0.208060 0.798772 -0.143047
C24   C     C_R   0.461281 0.546480 0.356744 -0.081024
C25   C     C_R   0.364074 0.850504 0.416513 -0.240310
C26   C     C_R   0.364617 0.948354 0.436017 0.071010
C27   C     C_R   0.446176 0.034112 0.439342 0.015388
C28   C     C_R   0.527238 0.021335 0.427292 -0.236516
C29   C     C_R   0.532888 0.928400 0.417724 0.061328
C30   C     C_R   0.448526 0.838807 0.406632 0.026013
C31   C     C_R   0.437775 0.174313 0.386444 -0.196543
C32   C     C_R   0.451652 0.278017 0.412748 -0.123015
C33   C     C_R   0.487930 0.351964 0.520181 -0.103334
C34   C     C_R   0.698370 0.996222 0.403603 -0.165563
C35   C     C_R   0.510360 0.322200 0.601401 -0.119314
C36   C     C_R   0.496028 0.218316 0.575387 -0.118035
C37   C     C_R   0.459063 0.143541 0.467460 0.114737
C38   C     C_R   0.731375 0.256033 0.182514 -0.128130
C39   C     C_R   0.821043 0.320794 0.289362 -0.127366
C40   C     C_R   0.806042 0.326143 0.378271 0.111014
C41   C     C_R   0.700247 0.264088 0.358332 -0.182482
C42   C     C_R   0.611746 0.195389 0.250838 -0.122717
C43   C     C_R   0.626994 0.192857 0.163168 -0.118629
C44   C     C_R   0.892107 0.511948 0.513058 -0.231541
C45   C     C_R   0.301528 0.299968 0.707957 -0.131404
C46   C     C_R   0.986495 0.611920 0.593069 0.059693
C47   C     C_R   0.074242 0.617133 0.673158 0.042400
C48   C     C_R   0.072615 0.519361 0.657642 -0.261122
C49   C     C_R   0.987390 0.420724 0.561214 0.076062
C50   C     C_R   0.893956 0.417178 0.489978 0.015859
C51   C     C_R   0.270612 0.776818 0.805158 0.190318
C52   C     C_R   0.340808 0.884576 0.893335 -0.166038
C53   C     C_R   0.303135 0.936754 0.953169 -0.154646
C54   C     C_R   0.194366 0.882283 0.925865 -0.099826
C55   C     C_R   0.122721 0.776149 0.837637 -0.148081
C56   C     C_R   0.697380 0.908137 0.498364 -0.132816
C57   C     C_R   0.159007 0.722301 0.775755 0.012263
C58   C     C_2   0.535933 0.470336 0.879892 -0.141245
C59   C     C_2   0.481875 0.377272 0.878396 -0.195713
C60   C     C_2   0.635480 0.567266 0.978312 -0.108438
C61   C     C_2   0.671067 0.573988 0.076862 -0.186211
C62   C     C_R   0.399794 0.283357 0.121382 -0.147465
C63   C     C_R   0.296914 0.220413 0.105098 -0.192334
C64   C     C_R   0.209056 0.233265 0.052163 0.121711
C65   C     C_R   0.226232 0.310998 0.017194 -0.140975
C66   C     C_R   0.329490 0.373819 0.033783 -0.087384
C67   C     C_R   0.907257 0.219712 0.469307 -0.118970
C68   C     C_R   0.415883 0.359548 0.085396 -0.115288
C69   C     C_R   0.091867 0.160217 0.121640 -0.240239
C70   C     C_R   0.991944 0.090519 0.107549 0.062433
C71   C     C_R   0.894241 0.045310 0.007570 0.023492
C72   C     C_R   0.901951 0.057832 0.922237 -0.233640
C73   C     C_R   0.003108 0.100195 0.928127 0.054101
C74   C     C_R   0.099446 0.164505 0.032568 0.027484
C75   C     C_R   0.730404 0.860457 0.916410 -0.162829
C76   C     C_R   0.627433 0.792889 0.897504 -0.135194
C77   C     C_R   0.577763 0.838483 0.945295 -0.065524
C78   C     C_R   0.092512 0.063049 0.812745 -0.129750
C79   C     C_R   0.628735 0.951855 0.007833 -0.140715
C80   C     C_R   0.728921 0.019873 0.022123 -0.168238
C81   C     C_R   0.782766 0.974291 0.981366 0.110370
C82   C     C_R   0.002939 0.052993 0.824989 0.052532
H1    H     H_    0.824983 0.944643 0.699014 0.094736
H2    H     H_    0.249898 0.055562 0.376439 0.113980
H3    H     H_    0.172609 0.820515 0.653272 0.122491
H4    H     H_    0.823798 0.974020 0.153282 0.129368
H5    H     H_    0.172703 0.152885 0.319340 0.096906
H6    H     H_    0.823597 0.659126 0.489971 0.091879
H7    H     H_    0.739558 0.800499 0.122977 0.105474
H8    H     H_    0.276476 0.896966 0.571533 0.106423
H9    H     H_    0.468076 0.474989 0.346675 0.105046
H10   H     H_    0.514549 0.567648 0.244627 0.114895
H11   H     H_    0.495846 0.727188 0.263345 0.117023
H12   H     H_    0.174644 0.381835 0.603895 0.094232
H13   H     H_    0.399148 0.714862 0.501884 0.116456
H14   H     H_    0.408739 0.548371 0.474020 0.103814
H15   H     H_    0.298526 0.784369 0.410397 0.130499
H16   H     H_    0.592952 0.090540 0.437005 0.130219
H17   H     H_    0.408415 0.117115 0.302761 0.108505
H18   H     H_    0.434241 0.300948 0.349866 0.110711
H19   H     H_    0.498935 0.432380 0.540557 0.095188
H20   H     H_    0.539429 0.379838 0.684608 0.117018
H21   H     H_    0.513726 0.196123 0.638947 0.114015
H22   H     H_    0.557749 0.142957 0.080283 0.095802
H23   H     H_    0.333013 0.176485 0.850430 0.104206
H24   H     H_    0.742495 0.256409 0.114779 0.107741
H25   H     H_    0.900925 0.372056 0.303473 0.113066
H26   H     H_    0.686319 0.270844 0.426084 0.124924
H27   H     H_    0.530666 0.146940 0.235446 0.104164
H28   H     H_    0.821783 0.506879 0.454059 0.130523
H29   H     H_    0.138666 0.520354 0.717957 0.121082
H30   H     H_    0.424818 0.929069 0.914892 0.122801
H31   H     H_    0.358259 0.019768 0.020551 0.110395
H32   H     H_    0.164970 0.923053 0.971833 0.114800
H33   H     H_    0.670719 0.019882 0.342872 0.106160
H34   H     H_    0.037533 0.736470 0.815555 0.121209
H35   H     H_    0.497569 0.484366 0.814008 0.109145
H36   H     H_    0.519415 0.359125 0.940647 0.127252
H37   H     H_    0.664090 0.640672 0.972142 0.118218
H38   H     H_    0.647815 0.502388 0.086137 0.119804
H39   H     H_    0.495857 0.408703 0.099091 0.095350
H40   H     H_    0.467056 0.273153 0.161952 0.122885
H41   H     H_    0.285266 0.160441 0.132048 0.107996
H42   H     H_    0.159666 0.322226 0.976595 0.114343
H43   H     H_    0.342633 0.433497 0.006580 0.116344
H44   H     H_    0.329097 0.350759 0.674576 0.087414
H45   H     H_    0.166398 0.206536 0.200348 0.124459
H46   H     H_    0.826550 0.020841 0.846508 0.127855
H47   H     H_    0.770210 0.824322 0.882395 0.115206
H48   H     H_    0.587294 0.705190 0.847927 0.101264
H49   H     H_    0.500273 0.786011 0.934573 0.117268
H50   H     H_    0.592312 0.986946 0.047876 0.117574
H51   H     H_    0.769214 0.107195 0.072131 0.123390
H52   H     H_    0.669502 0.853490 0.528071 0.108220
H53   H     H_    0.823018 0.194285 0.443450 0.110898
H54   H     H_    0.177975 0.110419 0.873671 0.127110
H55   H     H_    0.741142 0.623106 0.299800 0.100577
N1    N     N_R   0.941940 0.944580 0.650780 -0.041609
N2    N     N_R   0.206190 0.054080 0.497260 -0.041858
N3    N     N_R   0.056380 0.847410 0.553580 -0.040874
N4    N     N_R   0.944890 0.999100 0.292900 -0.041518
N5    N     N_R   0.058060 0.055420 0.349220 -0.039530
N6    N     N_R   0.943200 0.791100 0.497260 -0.037154
N7    N     N_R   0.795540 0.849750 0.292910 -0.044459
N8    N     N_R   0.205730 0.996760 0.553580 -0.041024
N9    N     N_R   0.056800 0.208900 0.502740 -0.039670
N10   N     N_R   0.204460 0.150250 0.707090 -0.043853
N11   N     N_R   0.794270 0.003240 0.446420 -0.038005
N12   N     N_R   0.204920 0.207570 0.650770 -0.042851
N13   N     N_R   0.793810 0.945920 0.502740 -0.039972
N14   N     N_R   0.943620 0.152590 0.446420 -0.041691
N15   N     N_R   0.055110 0.000900 0.707100 -0.040970
N16   N     N_R   0.795080 0.792430 0.349230 -0.039204
Ni1   Ni    Ni4+2 0.869690 0.869690 0.500000 0.212754
Ni2   Ni    Ni4+2 0.130310 0.130310 0.500000 0.215524
Ni3   Ni    Ni4+2 0.129250 0.998840 0.629170 0.215687
Ni4   Ni    Ni4+2 0.870750 0.001160 0.370830 0.214821
N17   N     N_2   0.313582 0.725814 0.748184 -0.118691
H56   H     H_    0.270342 0.641959 0.704308 0.167163
C83   C     C_3   0.354751 0.774499 0.691098 -0.971054
H57   H     H_    0.406016 0.742978 0.671427 0.255210
H58   H     H_    0.406576 0.864723 0.742126 0.260399
H59   H     H_    0.285442 0.751858 0.613352 0.242136

loop_
_geom_bond_atom_site_label_1
_geom_bond_atom_site_label_2
_ccdc_geom_bond_type
C66   C68   A    
C40   C41   A    
C41   H26   S    
C13   H8    S    
C41   C42   A    
C3    C23   A    
C35   C36   A    
N3    N6    A    
C13   N8    A    
C33   H19   S    
C35   H20   S    
C2    C12   A    
N11   Ni4   S    
C78   N15   A    
C20   C30   S    
C53   C54   A    
C39   H25   S    
C10   H6    S    
C26   C27   A    
C29   C30   A    
C72   H46   S    
C36   H21   S    
C18   C24   A    
N14   Ni4   S    
C36   C37   A    
N10   N12   A    
C42   H27   S    
N11   N13   A    
C77   H49   S    
C7    N3    A    
C11   C14   A    
C5    N16   A    
C55   H34   S    
C52   H30   S    
C58   C60   S    
C23   H23   S    
N7    N16   A    
C60   H37   S    
C18   C19   A    
C73   C74   A    
C65   H42   S    
C12   N9    A    
C6    N2    A    
C78   C82   A    
C43   H22   S    
C6    C15   A    
C54   C55   A    
N8    Ni3   S    
C76   H48   S    
N9    Ni2   S    
N15   Ni3   S    
C53   H31   S    
C47   C48   A    
C70   C71   A    
C51   C57   A    
C31   H17   S    
N5    Ni2   S    
C11   N7    A    
C45   N12   A    
C4    C29   S    
C19   H11   S    
C72   C73   A    
N1    Ni1   S    
C17   C70   S    
N16   Ni1   S    
C21   C22   A    
C4    C56   A    
C61   H38   S    
N17   C83   S    
C12   H12   S    
C34   N11   A    
C44   C46   A    
C77   C79   A    
C38   C39   A    
C4    C34   A    
C6    H2    S    
C67   N14   A    
C51   C52   A    
C83   H59   S    
C76   C77   A    
C2    C67   A    
C16   C46   S    
C39   C40   A    
C75   C81   A    
C15   C26   S    
C21   H13   S    
N1    N15   A    
C25   C26   A    
C63   C64   A    
C14   C61   S    
C23   N10   A    
C3    C45   A    
C58   H35   S    
C80   H51   S    
C31   C37   A    
C60   C61   D    
C83   H58   S    
C38   H24   S    
C67   H53   S    
C75   C76   A    
C62   C63   A    
C2    C49   S    
C28   H16   S    
C47   C57   S    
C11   H7    S    
C63   H41   S    
C31   C32   A    
N2    Ni2   S    
C45   H44   S    
C69   C74   A    
C9    C17   A    
N10   Ni3   S    
C5    C14   A    
C8    N4    A    
N3    Ni3   S    
N4    Ni4   S    
C48   C49   A    
C49   C50   A    
C59   H36   S    
C13   C15   A    
N17   H56   S    
C22   C24   A    
C79   C80   A    
C58   C59   D    
C42   C43   A    
C56   N13   A    
C28   C29   A    
C24   H9    S    
C73   C82   S    
C62   H40   S    
C52   C53   A    
C44   C50   A    
C25   C30   A    
C46   C47   A    
N2    N8    A    
C22   H14   S    
C7    C16   A    
C25   H15   S    
C80   C81   A    
N6    Ni1   S    
C68   H39   S    
C56   H52   S    
C9    N5    A    
C5    H55   S    
C1    H1    S    
C51   N17   S    
C8    C17   A    
C66   H43   S    
C62   C68   A    
C18   H10   S    
C64   C65   A    
C19   C20   A    
C55   C57   A    
C34   H33   S    
C38   C43   A    
C10   C16   A    
N4    N5    A    
C32   C33   A    
C1    C82   A    
C7    H3    S    
C27   C37   S    
C40   C50   S    
C79   H50   S    
C54   H32   S    
C33   C35   A    
C8    H4    S    
C10   N6    A    
N12   Ni2   S    
C69   C70   A    
C83   H57   S    
N9    N14   A    
C32   H18   S    
C71   C72   A    
C48   H29   S    
C20   C21   A    
C69   H45   S    
C65   C66   A    
N13   Ni1   S    
C27   C28   A    
C64   C74   S    
N7    Ni4   S    
C78   H54   S    
C9    H5    S    
C1    N1    A    
C75   H47   S    
C44   H28   S    
C71   C81   S    
C3    C59   S    
