data_mof_unit_59967.cif
_audit_creation_date              2013-03-05T15:41:43-0500
_audit_creation_method            fapswitch 2.2
_symmetry_space_group_name_H-M    P1
_symmetry_Int_Tables_number       1
_space_group_crystal_system       triclinic
_cell_length_a                    6.944788
_cell_length_b                    13.629431
_cell_length_c                    20.401877
_cell_angle_alpha                 102.120279
_cell_angle_beta                  90.215284
_cell_angle_gamma                 90.461248
_cell_volume                      1887.97236934

loop_
_atom_site_label
_atom_site_type_symbol
_atom_site_description
_atom_site_fract_x
_atom_site_fract_y
_atom_site_fract_z
_atom_type_partial_charge
O1    O     O_R   0.506860 0.599390 0.449240 -0.559417
O2    O     O_R   0.180220 0.594600 0.586780 -0.565393
O3    O     O_R   0.004500 0.400610 0.550760 -0.558221
C1    C     C_R   0.349175 0.615979 0.613503 0.835189
O4    O     O_R   0.177490 0.611290 0.451970 -0.562752
O5    O     O_R   0.001750 0.417420 0.414990 -0.561193
C2    C     C_R   0.346427 0.637958 0.435240 0.824629
O6    O     O_R   0.509610 0.582580 0.585010 -0.559171
O7    O     O_3   0.337420 0.436370 0.488020 -0.277349
V1    V     V_3+5 0.064680 0.511800 0.502220 1.135037
O8    O     O_R   0.671710 0.405400 0.413220 -0.564905
C3    C     C_R   0.839645 0.384088 0.386518 0.837646
O9    O     O_R   0.674440 0.388710 0.548030 -0.564678
C4    C     C_R   0.843396 0.362075 0.564878 0.824215
V2    V     V_3+5 0.564010 0.488200 0.497780 1.134304
O10   O     O_3   0.841140 0.563630 0.511980 -0.275247
C5    C     C_R   0.944291 0.118352 0.615416 -0.075586
H1    H     H_    0.942553 0.168059 0.522391 0.055658
H2    H     H_    0.980588 0.996019 0.699606 0.064862
H3    H     H_    0.986076 0.042902 0.591489 0.063998
C6    C     C_R   0.855869 0.285232 0.605103 -0.098349
C7    C     C_R   0.826588 0.318020 0.930811 0.266906
C8    C     C_R   0.823594 0.393906 0.894442 -0.131017
C9    C     C_R   0.852688 0.373749 0.825269 0.358957
C10   C     C_R   0.866015 0.272613 0.788590 -0.014636
C11   C     C_R   0.882037 0.195405 0.826072 -0.084802
C12   C     C_R   0.871905 0.245146 0.716679 0.064071
C13   C     C_R   0.921140 0.145275 0.685226 0.061657
C14   C     C_R   0.945666 0.072602 0.723377 -0.098609
C15   C     C_R   0.921177 0.096376 0.792251 -0.061653
C16   C     C_R   0.826664 0.311979 0.674356 -0.116288
C17   C     C_R   0.917315 0.188855 0.575873 -0.096013
C18   C     C_R   0.861066 0.218386 0.896914 -0.186214
H4    H     H_    0.766587 0.384922 0.693120 0.133163
H5    H     H_    0.808048 0.471244 0.920648 0.133491
H6    H     H_    0.937220 0.036082 0.818887 0.059381
C19   C     C_2   0.005226 0.288914 0.285125 -0.091470
C20   C     C_2   0.841966 0.315726 0.319717 -0.208676
H7    H     H_    0.142336 0.317609 0.307225 0.099411
H8    H     H_    0.703337 0.287554 0.299302 0.069881
C21   C     C_2   0.013872 0.220782 0.217527 -0.077017
C22   C     C_2   0.858823 0.183113 0.180405 -0.161462
H9    H     H_    0.156780 0.201751 0.197646 0.096926
H10   H     H_    0.714647 0.201388 0.198703 0.065402
C23   C     C_2   0.204341 0.790812 0.782160 -0.102361
C24   C     C_2   0.363276 0.815397 0.820045 -0.208606
H11   H     H_    0.066661 0.821313 0.801249 0.096598
H12   H     H_    0.501726 0.785197 0.802243 0.077823
C25   C     C_2   0.202967 0.722418 0.714618 -0.105672
C26   C     C_2   0.361218 0.684151 0.680302 -0.217145
H13   H     H_    0.061764 0.703622 0.692224 0.105110
H14   H     H_    0.504318 0.702481 0.700637 0.075812
C27   C     C_R   0.375122 0.888770 0.387434 -0.072836
H15   H     H_    0.370868 0.838659 0.480326 0.052945
H16   H     H_    0.387714 0.013967 0.304216 0.066250
H17   H     H_    0.384423 0.967109 0.412490 0.063318
C28   C     C_R   0.355760 0.714736 0.395069 -0.072342
C29   C     C_R   0.344089 0.684342 0.071041 -0.091984
C30   C     C_R   0.335146 0.608275 0.106803 -0.001244
C31   C     C_R   0.339519 0.631001 0.176654 -0.065296
C32   C     C_R   0.352872 0.731719 0.212874 0.038831
C33   C     C_R   0.361296 0.809426 0.175772 0.013025
C34   C     C_R   0.357975 0.757942 0.284502 0.046510
C35   C     C_R   0.370483 0.860887 0.317153 0.068124
C36   C     C_R   0.378180 0.935415 0.279617 -0.106858
C37   C     C_R   0.373862 0.910310 0.210117 -0.097791
C38   C     C_R   0.351077 0.685725 0.325143 -0.109242
C39   C     C_R   0.367569 0.816033 0.426149 -0.104247
C40   C     C_R   0.357038 0.784565 0.104771 -0.091357
H18   H     H_    0.341779 0.606340 0.304355 0.050532
H19   H     H_    0.340774 0.665028 0.016733 0.062674
H20   H     H_    0.331944 0.567806 0.200563 0.076914
H21   H     H_    0.324745 0.530825 0.080162 0.130446
H22   H     H_    0.380356 0.971098 0.183485 0.065842
O11   O     O_R   0.203230 0.917310 0.915020 -0.567281
O12   O     O_R   0.535500 0.888690 0.048040 -0.565310
O13   O     O_R   0.711080 0.082610 0.085000 -0.559675
C41   C     C_R   0.366571 0.861960 0.064739 0.813130
O14   O     O_R   0.532630 0.905370 0.913230 -0.570008
O15   O     O_R   0.708190 0.099410 0.949230 -0.557548
C42   C     C_R   0.364201 0.884120 0.886550 0.832470
O16   O     O_R   0.206120 0.900510 0.050790 -0.566489
O17   O     O_3   0.375360 0.063570 0.011990 -0.262536
V3    V     V_3+5 0.648170 0.988200 0.997780 1.158821
O18   O     O_R   0.038240 0.111390 0.951940 -0.548809
C43   C     C_R   0.869496 0.138198 0.935256 0.919714
O19   O     O_R   0.041120 0.094710 0.086750 -0.554769
C44   C     C_R   0.872677 0.115447 0.113619 0.895232
V4    V     V_3+5 0.148810 0.011930 0.002180 1.169270
O20   O     O_3   0.871750 0.936430 0.988010 -0.288252
N1    N     N_R   0.801263 0.344488 0.002397 0.085962
O21   O     O_R   0.692652 0.419825 0.028617 -0.378619
O22   O     O_R   0.904839 0.302753 0.042086 -0.385072
O23   O     O_3   0.876488 0.455451 0.795856 -0.658647
C45   C     C_3   0.075010 0.477627 0.794370 0.149792
H23   H     H_    0.156116 0.413625 0.764338 0.037243
H24   H     H_    0.136337 0.499199 0.845939 0.044268
H25   H     H_    0.094359 0.542500 0.770020 0.078672

loop_
_geom_bond_atom_site_label_1
_geom_bond_atom_site_label_2
_geom_bond_distance
_ccdc_geom_bond_type
O19   C44   1.301497 A    
C21   C22   1.348460 D    
C45   H23   1.113405 S    
O15   V3    2.018831 S    
O12   V3    2.018935 S    
C45   H25   1.108897 S    
C23   C24   1.344198 D    
C6    C16   1.399041 A    
C19   C20   1.349644 D    
O16   V4    2.021698 S    
C22   H10   1.082465 S    
C4    C6    1.462795 S    
C13   C14   1.393330 A    
O12   C41   1.293587 A    
O5    C3    1.298935 A    
O14   V3    2.012740 S    
C27   C35   1.404305 A    
C29   H19   1.083828 S    
H15   C39   1.083473 S    
C31   H20   1.076306 S    
V2    O10   2.164222 S    
C37   H22   1.082721 S    
C5    H3    1.084007 S    
C32   C34   1.429890 A    
C27   C39   1.392028 A    
O15   C43   1.293003 A    
O8    V2    2.003740 S    
O13   C44   1.295351 A    
C25   H13   1.086014 S    
C26   H14   1.082384 S    
C7    N1    1.440769 S    
O1    V2    2.017867 S    
O7    V1    2.153825 S    
C30   H21   1.082819 S    
C1    O6    1.299407 A    
C30   C31   1.393522 A    
O9    C4    1.297278 A    
C3    C20   1.480868 S    
C21   H9    1.086170 S    
C40   C41   1.464666 S    
C32   C33   1.426220 A    
V3    O20   1.705704 S    
C28   C38   1.398293 A    
H16   C36   1.084190 S    
C34   C38   1.414518 A    
C23   H11   1.086252 S    
O17   V4    1.712157 S    
C6    C17   1.394701 A    
C24   H12   1.082607 S    
C33   C37   1.407914 A    
C12   C16   1.416662 A    
C9    C10   1.427594 A    
N1    O21   1.301634 A    
O4    C2    1.293572 A    
O18   V4    2.017963 S    
O11   C42   1.301694 A    
O13   V3    2.009143 S    
C29   C30   1.388525 A    
O18   C43   1.295690 A    
C33   C40   1.416813 A    
C1    C26   1.481126 S    
C31   C32   1.417919 A    
O2    C1    1.296880 A    
C18   C43   1.472919 S    
C14   C15   1.385595 A    
C9    O23   1.380525 S    
N1    O22   1.300867 A    
C24   C42   1.478021 S    
C41   O16   1.291719 A    
C11   C18   1.421431 A    
O17   V3    2.153889 S    
C23   C25   1.492713 S    
C8    C9    1.395772 A    
C16   H4    1.075659 S    
O3    C4    1.291153 A    
C11   C15   1.409949 A    
O6    V2    2.004032 S    
C8    H5    1.083595 S    
O9    V2    2.018042 S    
H1    C17   1.083495 S    
C28   C39   1.394657 A    
O2    V1    2.012736 S    
O14   C42   1.293028 A    
C27   H17   1.083948 S    
C7    C18   1.411290 A    
O1    C2    1.292039 A    
C5    C13   1.404364 A    
O5    V1    2.009140 S    
O8    C3    1.298119 A    
C45   H24   1.113330 S    
C29   C40   1.396556 A    
C10   C12   1.436761 A    
C15   H6    1.082393 S    
C38   H18   1.077354 S    
C35   C36   1.395419 A    
O19   V4    2.003759 S    
C10   C11   1.429574 A    
O4    V1    2.018966 S    
C19   H7    1.086132 S    
O3    V1    2.018692 S    
V1    O10   1.705767 S    
C20   H8    1.082439 S    
C36   C37   1.387183 A    
C19   C21   1.493853 S    
O23   C45   1.410854 S    
O11   V4    2.004482 S    
C34   C35   1.423036 A    
C22   C44   1.480232 S    
C25   C26   1.353406 D    
C12   C13   1.422626 A    
C5    C17   1.391614 A    
C7    C8    1.393987 A    
V4    O20   2.164193 S    
C2    C28   1.459582 S    
O7    V2    1.713368 S    
H2    C14   1.084376 S    
