data_mof_unit_12456.cif
_audit_creation_date              2012-10-26T21:00:14-0400
_audit_creation_method            fapswitch 2.2
_symmetry_space_group_name_H-M    P1
_symmetry_Int_Tables_number       1
_space_group_crystal_system       triclinic
_cell_length_a                    19.232949
_cell_length_b                    8.647938
_cell_length_c                    7.427931
_cell_angle_alpha                 103.120685
_cell_angle_beta                  94.292871
_cell_angle_gamma                 92.192834
_cell_volume                      1197.88137586

loop_
_atom_site_label
_atom_site_type_symbol
_atom_type_description
_atom_site_fract_x
_atom_site_fract_y
_atom_site_fract_z
_atom_type_partial_charge
C1    C     C_R   0.498177 0.199552 0.453007 0.541740
C2    C     C_R   0.815498 0.429032 0.366527 -0.158276
C3    C     C_R   0.147171 0.556285 0.506008 -0.016490
C4    C     C_R   0.853790 0.551076 0.497873 -0.004251
C5    C     C_R   0.183094 0.583213 0.356875 0.253312
C6    C     C_R   0.818855 0.656317 0.630540 0.242588
C7    C     C_R   0.254509 0.558982 0.356471 -0.175705
C8    C     C_R   0.746000 0.638823 0.626582 -0.173548
C9    C     C_R   0.291287 0.514302 0.505577 -0.040734
C10   C     C_R   0.708215 0.515626 0.496705 -0.020698
C11   C     C_R   0.930280 0.562023 0.498727 0.346076
C12   C     C_R   0.502265 0.800481 0.546955 0.536340
C13   C     C_R   0.071137 0.564490 0.502618 0.342919
C14   C     C_3   0.291856 0.266760 0.749305 0.024726
C15   C     C_3   0.227234 0.182349 0.801016 -0.274673
C16   C     C_3   0.235253 0.003423 0.770343 -0.485048
C17   C     C_3   0.707001 0.148178 0.316696 0.014946
C18   C     C_3   0.680117 0.002466 0.165745 -0.259435
C19   C     C_3   0.679381 0.851621 0.240054 -0.481689
C20   C     C_3   0.166328 0.779892 0.196802 0.018098
C21   C     C_3   0.116128 0.895498 0.299044 -0.265113
C22   C     C_3   0.133237 0.065711 0.283710 -0.479929
C23   C     C_2   0.497659 0.031538 0.426474 -0.168682
C24   C     C_3   0.855822 0.775873 0.932118 0.023085
C25   C     C_3   0.899026 0.918806 0.054121 -0.254142
C26   C     C_3   0.905282 0.910550 0.257636 -0.471699
C27   C     C_2   0.503414 0.968555 0.573427 -0.166421
C28   C     C_R   0.367268 0.500946 0.502216 0.550769
C29   C     C_R   0.632418 0.502238 0.498134 0.562466
C30   C     C_R   0.254877 0.486447 0.654354 0.245154
C31   C     C_R   0.743168 0.408521 0.367606 0.234326
C32   C     C_R   0.183714 0.513231 0.656162 -0.162483
Cu1   Cu    Cu3+1 0.507710 0.517380 0.684380 0.962771
Cu2   Cu    Cu3+1 0.492290 0.482620 0.315620 0.968004
H1    H     H_    0.156284 0.492654 0.771553 0.171866
H2    H     H_    0.299715 0.220562 0.599580 0.106533
H3    H     H_    0.219169 0.231952 0.949229 0.186388
H4    H     H_    0.180319 0.202322 0.714483 0.159000
H5    H     H_    0.244676 0.951586 0.623714 0.147840
H6    H     H_    0.186709 0.945060 0.802073 0.147540
H7    H     H_    0.279507 0.978994 0.862901 0.154509
H8    H     H_    0.672087 0.163461 0.431840 0.142577
H9    H     H_    0.760651 0.126244 0.370239 0.125692
H10   H     H_    0.626313 0.020157 0.111108 0.181397
H11   H     H_    0.714403 0.987907 0.049723 0.169414
H12   H     H_    0.841846 0.345868 0.265769 0.145487
H13   H     H_    0.731417 0.836452 0.306959 0.149728
H14   H     H_    0.666205 0.746635 0.123592 0.149197
H15   H     H_    0.639959 0.856752 0.342833 0.156403
H16   H     H_    0.161879 0.784772 0.048244 0.162403
H17   H     H_    0.221377 0.819333 0.250680 0.107811
H18   H     H_    0.061796 0.858617 0.238750 0.190504
H19   H     H_    0.119494 0.891838 0.447946 0.165780
H20   H     H_    0.187260 0.105686 0.344482 0.142397
H21   H     H_    0.096375 0.146522 0.360450 0.165853
H22   H     H_    0.128185 0.073377 0.136073 0.158842
H23   H     H_    0.281214 0.576948 0.238833 0.172931
H24   H     H_    0.880169 0.664643 0.949613 0.166575
H25   H     H_    0.802166 0.776448 0.978696 0.120510
H26   H     H_    0.952268 0.922695 0.005775 0.194328
H27   H     H_    0.874019 0.030076 0.041313 0.175257
H28   H     H_    0.852932 0.908469 0.310556 0.154584
H29   H     H_    0.936628 0.016536 0.341390 0.158971
H30   H     H_    0.931816 0.802415 0.274184 0.183966
H31   H     H_    0.718504 0.724484 0.721567 0.121032
H32   H     H_    0.492459 0.959450 0.285105 0.132767
H33   H     H_    0.508774 0.040656 0.714790 0.133667
H34   H     H_    0.446527 0.375824 0.947891 0.240047
H35   H     H_    0.553277 0.624483 0.052281 0.233994
H36   H     H_    0.338447 0.235981 0.828603 0.144184
N1    N     N_R   0.030426 0.510301 0.341694 -0.169583
N2    N     N_R   0.971081 0.616675 0.659579 -0.183897
N3    N     N_R   0.961258 0.508563 0.339855 -0.267730
N4    N     N_R   0.040286 0.617443 0.661723 -0.251025
N5    N     N_2   0.480680 0.456420 0.038530 -0.242372
N6    N     N_2   0.519320 0.543580 0.961470 -0.249130
O1    O     O_R   0.505010 0.286130 0.619770 -0.508474
O2    O     O_3   0.707077 0.284051 0.240821 -0.550107
O3    O     O_3   0.147331 0.621920 0.205448 -0.541697
O4    O     O_3   0.854779 0.788332 0.745504 -0.557114
O5    O     O_R   0.494990 0.713870 0.380230 -0.511191
O6    O     O_R   0.491990 0.256780 0.308370 -0.497363
O7    O     O_R   0.508010 0.743220 0.691630 -0.504535
O8    O     O_R   0.406650 0.514660 0.655750 -0.458436
O9    O     O_R   0.593350 0.485340 0.344250 -0.465243
O10   O     O_R   0.393640 0.485310 0.344340 -0.508176
O11   O     O_R   0.606360 0.514690 0.655660 -0.509754
O12   O     O_3   0.287999 0.434350 0.799828 -0.552452

loop_
_geom_bond_atom_site_label_1
_geom_bond_atom_site_label_2
_ccdc_geom_bond_type
C21   H19   S    
C28   O8    A    
C1    O1    A    
C26   H29   S    
C22   H20   S    
C2    H12   S    
H34   N5    S    
C23   H32   S    
C20   H17   S    
C14   H2    S    
C19   H13   S    
C15   C16   S    
H35   N6    S    
C18   C19   S    
Cu2   O10   S    
C26   H30   S    
C17   H8    S    
C15   H3    S    
C20   H16   S    
C10   C31   A    
C24   O4    S    
Cu2   O5    S    
C23   C27   D    
C5    O3    S    
C29   O9    A    
C3    C13   S    
Cu2   N5    S    
C8    H31   S    
C21   C22   S    
C14   H36   S    
C25   C26   S    
C17   C18   S    
C12   C27   S    
C32   H1    S    
C24   C25   S    
C4    C6    A    
C11   N3    A    
C5    C7    A    
C11   N2    A    
C6    C8    A    
C13   N1    A    
C1    O6    A    
C12   O7    A    
C2    C31   A    
Cu2   O9    S    
C2    C4    A    
N5    N6    D    
C17   H9    S    
C15   H4    S    
C18   H10   S    
C19   H15   S    
Cu1   N6    S    
C6    O4    S    
Cu1   Cu2   S    
C25   H27   S    
C13   N4    A    
C4    C11   S    
Cu1   O7    S    
C9    C30   A    
C16   H6    S    
C24   H24   S    
N2    N4    A    
C25   H26   S    
C1    C23   S    
C28   O10   A    
C30   O12   S    
C18   H11   S    
C31   O2    S    
N1    N3    A    
C7    C9    A    
C20   O3    S    
C19   H14   S    
C3    C5    A    
C22   H22   S    
C22   H21   S    
Cu1   O11   S    
C14   O12   S    
C30   C32   A    
C10   C29   S    
Cu1   O1    S    
C24   H25   S    
C17   O2    S    
C12   O5    A    
C26   H28   S    
C3    C32   A    
Cu1   O8    S    
C29   O11   A    
C27   H33   S    
C16   H5    S    
C20   C21   S    
C8    C10   A    
C14   C15   S    
Cu2   O6    S    
C16   H7    S    
C7    H23   S    
C21   H18   S    
C9    C28   S    
