data_mof_unit_66564.cif
_audit_creation_date              2012-12-11T16:30:37-0500
_audit_creation_method            fapswitch 2.2
_symmetry_space_group_name_H-M    P1
_symmetry_Int_Tables_number       1
_space_group_crystal_system       triclinic
_cell_length_a                    6.929883
_cell_length_b                    14.422838
_cell_length_c                    16.031579
_cell_angle_alpha                 90.000538
_cell_angle_beta                  89.781243
_cell_angle_gamma                 89.999604
_cell_volume                      1602.32187511

loop_
_atom_site_label
_atom_site_type_symbol
_atom_type_description
_atom_site_fract_x
_atom_site_fract_y
_atom_site_fract_z
_atom_type_partial_charge
O1    O     O_R   0.611670 0.415650 0.164070 -0.533357
O2    O     O_R   0.388330 0.915650 0.835930 -0.533357
O3    O     O_R   0.940950 0.405490 0.337780 -0.541223
O4    O     O_R   0.059050 0.905490 0.662220 -0.541295
O5    O     O_R   0.111350 0.584350 0.338470 -0.541358
O6    O     O_R   0.888650 0.084350 0.661530 -0.541471
C1    C     C_R   0.772099 0.383863 0.367496 0.717523
C2    C     C_R   0.227902 0.883871 0.632495 0.717522
O7    O     O_R   0.941380 0.404630 0.164680 -0.542553
O8    O     O_R   0.058620 0.904630 0.835320 -0.542539
O9    O     O_R   0.111780 0.583470 0.164130 -0.536982
O10   O     O_R   0.888220 0.083470 0.835870 -0.536974
C3    C     C_R   0.772878 0.382468 0.136130 0.704520
C4    C     C_R   0.227123 0.882473 0.863874 0.704534
O11   O     O_R   0.611240 0.416530 0.338400 -0.541690
O12   O     O_R   0.388760 0.916530 0.661600 -0.541639
O13   O     O_3   0.778020 0.558680 0.251290 -0.374870
O14   O     O_3   0.221980 0.058680 0.748710 -0.374898
V1    V     V_3+5 0.052840 0.489110 0.251260 1.428193
V2    V     V_3+5 0.947160 0.989110 0.748740 1.428006
O15   O     O_R   0.441500 0.594510 0.164760 -0.543400
O16   O     O_R   0.558500 0.094510 0.835240 -0.543384
C5    C     C_R   0.272914 0.616254 0.135850 0.699561
C6    C     C_R   0.727084 0.116251 0.864152 0.699593
O17   O     O_R   0.441080 0.595370 0.337860 -0.542708
O18   O     O_R   0.558920 0.095370 0.662140 -0.542653
C7    C     C_R   0.271284 0.619766 0.365431 0.652766
C8    C     C_R   0.728719 0.119771 0.634572 0.652612
V3    V     V_3+5 0.552850 0.510890 0.251270 1.417309
V4    V     V_3+5 0.447150 0.010890 0.748730 1.417372
O19   O     O_3   0.277800 0.441320 0.251250 -0.363969
O20   O     O_3   0.722200 0.941320 0.748750 -0.363957
C9    C     C_3   0.045933 0.729119 0.447081 -0.104641
C10   C     C_3   0.954205 0.228901 0.552740 -0.104651
H1    H     H_    0.953219 0.668767 0.463829 0.123975
H2    H     H_    0.046598 0.168449 0.535950 0.124113
C11   C     C_3   0.034703 0.798491 0.521209 -0.288708
C12   C     C_3   0.965427 0.298223 0.478575 -0.288370
H3    H     H_    0.936993 0.769088 0.569790 0.120604
H4    H     H_    0.062686 0.268663 0.429901 0.120605
H5    H     H_    0.967372 0.865133 0.502336 0.195333
H6    H     H_    0.033273 0.364779 0.497347 0.195411
H7    H     H_    0.358657 0.807549 0.356332 0.148919
H8    H     H_    0.642370 0.307667 0.643763 0.148886
C13   C     C_3   0.393149 0.776323 0.417668 -0.348133
C14   C     C_3   0.607380 0.276485 0.582465 -0.348163
C15   C     C_3   0.322989 0.648622 0.518659 -0.353878
C16   C     C_3   0.676413 0.148713 0.481395 -0.353823
C17   C     C_3   0.257833 0.692392 0.434804 0.058558
C18   C     C_3   0.742188 0.192399 0.565196 0.058238
H9    H     H_    0.473610 0.622801 0.512688 0.166163
H10   H     H_    0.525704 0.123051 0.487505 0.166650
H11   H     H_    0.230340 0.587836 0.533866 0.164578
H12   H     H_    0.768718 0.087837 0.466091 0.163981
C19   C     C_3   0.237914 0.815612 0.559724 0.061858
C20   C     C_3   0.762099 0.315605 0.440265 0.061653
C21   C     C_3   0.380678 0.849401 0.489443 -0.080974
C22   C     C_3   0.619870 0.349560 0.510686 -0.080972
C23   C     C_3   0.312577 0.720186 0.591060 -0.371781
C24   C     C_3   0.686754 0.220277 0.408994 -0.371620
H13   H     H_    0.215274 0.693118 0.640687 0.149387
H14   H     H_    0.783600 0.193101 0.359250 0.149379
H15   H     H_    0.458134 0.728185 0.619275 0.170566
H16   H     H_    0.541060 0.228454 0.380951 0.170551
H17   H     H_    0.544729 0.751582 0.412511 0.122529
H18   H     H_    0.455703 0.251925 0.587769 0.122675
H19   H     H_    0.527055 0.854465 0.517541 0.073390
H20   H     H_    0.473372 0.354808 0.482728 0.073444
H21   H     H_    0.089236 0.569162 0.760280 0.145131
H22   H     H_    0.910803 0.069159 0.239719 0.145151
C25   C     C_R   0.307785 0.940469 0.032835 -0.245495
C26   C     C_R   0.692224 0.440467 0.967173 -0.245477
C27   C     C_R   0.346303 0.971391 0.113846 0.033751
C28   C     C_R   0.653689 0.471389 0.886164 0.033908
C29   C     C_R   0.362143 0.906667 0.178348 -0.079994
C30   C     C_R   0.637808 0.406663 0.821665 -0.080306
C31   C     C_R   0.337114 0.812436 0.162524 -0.169547
C32   C     C_R   0.662828 0.312431 0.837488 -0.169737
C33   C     C_R   0.295026 0.779892 0.081510 0.064321
C34   C     C_R   0.704952 0.279888 0.918498 0.064446
C35   C     C_R   0.281111 0.845091 0.015220 0.063905
C36   C     C_R   0.718888 0.345087 0.984787 0.063904
C37   C     C_R   0.262808 0.684250 0.066327 -0.178964
C38   C     C_R   0.737185 0.184246 0.933678 -0.178984
C39   C     C_R   0.215066 0.653912 0.984814 0.044483
C40   C     C_R   0.784940 0.153909 0.015189 0.044473
C41   C     C_R   0.201505 0.719106 0.918384 0.058228
C42   C     C_R   0.798508 0.219103 0.081619 0.058224
C43   C     C_R   0.236298 0.814551 0.933421 -0.169676
C44   C     C_R   0.763709 0.314547 0.066584 -0.169683
C45   C     C_R   0.183022 0.558859 0.967586 -0.180504
C46   C     C_R   0.816986 0.058855 0.032415 -0.180504
C47   C     C_R   0.138481 0.529018 0.887260 -0.121243
C48   C     C_R   0.861537 0.029014 0.112740 -0.121261
C49   C     C_R   0.124167 0.592721 0.822539 -0.055170
C50   C     C_R   0.875862 0.092718 0.177460 -0.055179
C51   C     C_R   0.155279 0.686716 0.837584 -0.100097
C52   C     C_R   0.844750 0.186713 0.162418 -0.100113
H23   H     H_    0.295015 0.992096 0.984136 0.106740
H24   H     H_    0.705019 0.492095 0.015870 0.106726
H25   H     H_    0.392353 0.928990 0.241453 0.152085
H26   H     H_    0.607567 0.428986 0.758563 0.151850
H27   H     H_    0.348897 0.765396 0.214701 0.103691
H28   H     H_    0.650999 0.265388 0.785315 0.103594
H29   H     H_    0.193723 0.506466 0.015645 0.120295
H30   H     H_    0.806279 0.006462 0.984355 0.120293
H31   H     H_    0.115040 0.456028 0.875184 0.142858
H32   H     H_    0.884978 0.956023 0.124814 0.142876
H33   H     H_    0.143426 0.733543 0.785206 0.088112
H34   H     H_    0.856617 0.233540 0.214796 0.088102
C53   C     C_2   0.960049 0.770060 0.368331 0.306458
H35   H     H_    0.858838 0.729440 0.332035 0.072745
O21   O     O_2   0.004636 0.847361 0.343867 -0.532416
C54   C     C_2   0.040571 0.269799 0.631413 0.306393
H36   H     H_    0.141363 0.229010 0.667769 0.073083
O22   O     O_2   0.996795 0.347252 0.655762 -0.532360
C55   C     C_2   0.365765 0.071918 0.130200 0.377110
H37   H     H_    0.354996 0.121094 0.079153 0.053089
O23   O     O_2   0.392962 0.101167 0.200675 -0.541438
C56   C     C_2   0.634247 0.571916 0.869809 0.377046
H38   H     H_    0.645036 0.621094 0.920856 0.053100
O24   O     O_2   0.607046 0.601165 0.799335 -0.541497
C57   C     C_2   0.339317 0.944918 0.454171 0.368243
H39   H     H_    0.433255 0.972235 0.405730 0.059987
O25   O     O_2   0.205351 0.992569 0.479044 -0.552159
C58   C     C_2   0.661906 0.445025 0.545925 0.368379
H40   H     H_    0.568372 0.472449 0.594463 0.060145
O26   O     O_2   0.795974 0.492523 0.520919 -0.552088

loop_
_geom_bond_atom_site_label_1
_geom_bond_atom_site_label_2
_ccdc_geom_bond_type
C12   H4    S    
C58   H40   S    
C52   H34   S    
O11   V3    S    
C19   C23   S    
C3    C44   S    
O13   V3    S    
C45   H29   S    
C53   H35   S    
O4    C2    A    
V1    O19   S    
C54   H36   S    
C39   C45   A    
C57   H39   S    
C15   C17   S    
C16   H12   S    
C48   H32   S    
C5    C37   S    
C38   C40   A    
C14   H18   S    
O3    C1    A    
C55   O23   D    
C26   H24   S    
C32   C34   A    
C57   O25   D    
C45   C47   A    
C9    C17   S    
C24   H14   S    
O7    C3    A    
O9    V1    S    
O13   V1    S    
O5    C7    A    
C8    C18   S    
O7    V1    S    
O6    C8    A    
O8    V2    S    
C50   C52   A    
O3    V1    S    
C9    C53   S    
V4    O20   S    
C10   H2    S    
C34   C38   A    
C15   H11   S    
C35   C43   A    
C16   C18   S    
C2    O12   A    
C14   C22   S    
O17   V3    S    
C27   C29   A    
C1    C20   S    
C21   H19   S    
V3    O19   S    
C2    C19   S    
C46   C48   A    
C56   O24   D    
C16   C24   S    
C31   C33   A    
C30   H26   S    
C10   C54   S    
C10   C18   S    
C23   H13   S    
C40   C42   A    
C32   H28   S    
C27   C55   S    
C34   C36   A    
O8    C4    A    
C33   C35   A    
C15   H9    S    
C1    O11   A    
H8    C14   S    
C25   H23   S    
C9    C11   S    
C20   C24   S    
C11   C19   S    
H22   C50   S    
C4    C43   S    
C21   C57   S    
C51   H33   S    
C13   C17   S    
C22   H20   S    
C13   C21   S    
O10   V2    S    
O1    V3    S    
C53   O21   D    
C48   C50   A    
H7    C13   S    
C29   C31   A    
C28   C30   A    
O14   V4    S    
C26   C28   A    
C37   C39   A    
C42   C44   A    
C22   C58   S    
O15   C5    A    
C13   H17   S    
O16   C6    A    
C31   H27   S    
O1    C3    A    
O6    V2    S    
C56   H38   S    
C25   C27   A    
V2    O20   S    
C46   H30   S    
C14   C18   S    
C58   O26   D    
O16   V4    S    
C10   C12   S    
C23   H15   S    
C30   C32   A    
H21   C49   S    
C54   O22   D    
C49   C51   A    
C12   H6    S    
O5    V1    S    
O17   C7    A    
C28   C56   S    
O10   C6    A    
O18   C8    A    
C36   C44   A    
C24   H16   S    
O2    V4    S    
C19   C21   S    
C6    C38   S    
C11   H3    S    
C40   C46   A    
C55   H37   S    
C47   H31   S    
C33   C37   A    
O15   V3    S    
O9    C5    A    
C9    H1    S    
C20   C22   S    
O14   V2    S    
C11   H5    S    
O2    C4    A    
C42   C52   A    
C15   C23   S    
O4    V2    S    
C39   C41   A    
C16   H10   S    
C12   C20   S    
C47   C49   A    
C29   H25   S    
C41   C43   A    
C25   C35   A    
O12   V4    S    
C26   C36   A    
C7    C17   S    
C41   C51   A    
O18   V4    S    
