data_mof_unit_48178.cif
_audit_creation_date              2012-12-10T17:21:09-0500
_audit_creation_method            fapswitch 2.2
_symmetry_space_group_name_H-M    P1
_symmetry_Int_Tables_number       1
_space_group_crystal_system       triclinic
_cell_length_a                    10.120038
_cell_length_b                    10.661026
_cell_length_c                    10.750797
_cell_angle_alpha                 90.142282
_cell_angle_beta                  95.400801
_cell_angle_gamma                 81.554544
_cell_volume                      1142.156396

loop_
_atom_site_label
_atom_site_type_symbol
_atom_type_description
_atom_site_fract_x
_atom_site_fract_y
_atom_site_fract_z
_atom_type_partial_charge
C1    C     C_R   0.443914 0.513202 0.267018 0.940102
C2    C     C_3   0.502519 0.878719 0.511008 0.033528
C3    C     C_3   0.618247 0.916499 0.607012 -0.005389
C4    C     C_3   0.364987 0.948359 0.554279 -0.031600
C5    C     C_2   0.412344 0.536569 0.134711 -0.381057
C6    C     C_2   0.512189 0.553230 0.066850 -0.151100
C7    C     C_2   0.588260 0.510226 0.865389 -0.397604
C8    C     C_2   0.489396 0.557254 0.933503 -0.164168
C9    C     C_2   0.073637 0.487656 0.491241 -0.133483
C10   C     C_2   0.929251 0.503776 0.515509 -0.142321
C11   C     C_R   0.499632 0.257988 0.501846 0.868750
C12   C     C_R   0.556208 0.496573 0.732975 0.929554
C13   C     C_R   0.502808 0.741643 0.508747 0.802725
C14   C     C_3   0.524287 0.068357 0.375302 -0.419118
C15   C     C_3   0.516599 0.924989 0.374098 -0.011487
C16   C     C_3   0.613106 0.061642 0.603526 -0.417355
C17   C     C_3   0.361880 0.092098 0.541083 -0.418173
C18   C     C_3   0.499406 0.122078 0.505729 0.073123
H1    H     H_    0.624776 0.084539 0.350384 0.166085
H2    H     H_    0.595018 0.101034 0.697531 0.135780
H3    H     H_    0.592786 0.892942 0.701582 0.100646
H4    H     H_    0.387410 0.587353 0.891911 0.186948
H5    H     H_    0.614681 0.551668 0.108536 0.184756
H6    H     H_    0.689915 0.479953 0.907437 0.149798
H7    H     H_    0.310142 0.537927 0.092606 0.147862
H8    H     H_    0.895929 0.563991 0.590973 0.162847
H9    H     H_    0.109713 0.420248 0.421846 0.160056
H10   H     H_    0.877815 0.391768 0.377458 0.157716
H11   H     H_    0.449525 0.120927 0.304155 0.167744
H12   H     H_    0.120004 0.615082 0.616538 0.158686
H13   H     H_    0.611409 0.875596 0.343181 0.188513
H14   H     H_    0.711055 0.087329 0.581629 0.201571
H15   H     H_    0.336399 0.141849 0.628814 0.196368
H16   H     H_    0.281205 0.129747 0.467192 0.160841
H17   H     H_    0.281233 0.922093 0.489476 0.181454
N1    N     N_2   0.157300 0.551950 0.551120 -0.196084
N2    N     N_2   0.842730 0.448000 0.448950 -0.197866
O1    O     O_R   0.568940 0.489540 0.307530 -0.607651
O2    O     O_R   0.348880 0.522880 0.340350 -0.612689
O3    O     O_R   0.610030 0.298130 0.483570 -0.618957
O4    O     O_R   0.389960 0.331470 0.516390 -0.622336
O5    O     O_R   0.651120 0.477120 0.659650 -0.616769
O6    O     O_R   0.431060 0.510460 0.692470 -0.609195
O7    O     O_R   0.610040 0.668530 0.483610 -0.610258
O8    O     O_R   0.389970 0.701870 0.516430 -0.628391
Zn1   Zn    Zn3+2 0.646940 0.477740 0.478080 0.918795
Zn2   Zn    Zn3+2 0.353060 0.522260 0.521920 0.918572
C19   C     C_3   0.336360 0.913371 0.689566 -0.382240
C20   C     C_3   0.186540 0.936566 0.706450 -0.904383
H18   H     H_    0.143557 0.036830 0.684502 0.263314
H19   H     H_    0.133006 0.873289 0.644453 0.255398
H20   H     H_    0.171170 0.915481 0.804721 0.246554
H21   H     H_    0.374013 0.812468 0.713238 0.217980
H22   H     H_    0.388383 0.969940 0.760397 0.202713
C21   C     C_3   0.403977 0.893754 0.274634 -0.421161
C22   C     C_3   0.443334 0.901810 0.141157 -0.895374
H23   H     H_    0.461960 0.998903 0.118891 0.257852
H24   H     H_    0.535073 0.833424 0.129074 0.260437
H25   H     H_    0.360805 0.877644 0.074022 0.256703
H26   H     H_    0.382173 0.796111 0.288357 0.221683
H27   H     H_    0.309224 0.959442 0.282452 0.208627
C23   C     C_3   0.764579 0.845590 0.609603 -0.376205
C24   C     C_3   0.834990 0.848258 0.489904 -0.855204
H28   H     H_    0.804593 0.776205 0.423078 0.268597
H29   H     H_    0.816630 0.943634 0.445458 0.248319
H30   H     H_    0.944762 0.822603 0.513049 0.229450
H31   H     H_    0.826582 0.888512 0.684497 0.193173
H32   H     H_    0.767851 0.746190 0.640815 0.204004

loop_
_geom_bond_atom_site_label_1
_geom_bond_atom_site_label_2
_ccdc_geom_bond_type
C17   C18   S    
C19   H22   S    
C9    N1    D    
C8    H4    S    
C21   C22   S    
C24   H29   S    
C11   C18   S    
C15   H13   S    
C23   C24   S    
H12   N1    S    
C13   O8    A    
C16   H14   S    
C9    C10   S    
C14   C18   S    
C2    C4    S    
C22   H25   S    
C23   H32   S    
C16   H2    S    
C20   H20   S    
C10   H8    S    
C2    C3    S    
O4    Zn2   S    
C4    H17   S    
C7    C8    D    
C21   H26   S    
C13   O7    A    
O1    Zn1   S    
O3    Zn1   S    
C2    C15   S    
C5    C6    D    
C17   H15   S    
H10   N2    S    
C10   N2    D    
C1    C5    S    
C4    C17   S    
C1    O1    A    
C16   C18   S    
C19   C20   S    
O7    Zn1   S    
C11   O4    A    
C12   O6    A    
O8    Zn2   S    
C4    C19   S    
C19   H21   S    
C5    H7    S    
C7    C12   S    
C24   H30   S    
C3    H3    S    
C17   H16   S    
C1    O2    A    
C14   H11   S    
C12   O5    A    
C11   O3    A    
C21   H27   S    
C22   H23   S    
C9    H9    S    
N1    Zn2   S    
O2    Zn2   S    
C20   H18   S    
O5    Zn1   S    
C3    C23   S    
C2    C13   S    
C14   C15   S    
C6    C8    S    
N2    Zn1   S    
C6    H5    S    
O6    Zn2   S    
C14   H1    S    
C23   H31   S    
C3    C16   S    
C7    H6    S    
C22   H24   S    
C24   H28   S    
C20   H19   S    
C15   C21   S    
