data_mof_unit_42603.cif
_audit_creation_date              2012-10-26T20:06:31-0400
_audit_creation_method            fapswitch 2.2
_symmetry_space_group_name_H-M    P1
_symmetry_Int_Tables_number       1
_space_group_crystal_system       triclinic
_cell_length_a                    10.846091
_cell_length_b                    9.628354
_cell_length_c                    14.331663
_cell_angle_alpha                 90.423877
_cell_angle_beta                  92.04373
_cell_angle_gamma                 93.158586
_cell_volume                      1493.36565539

loop_
_atom_site_label
_atom_site_type_symbol
_atom_type_description
_atom_site_fract_x
_atom_site_fract_y
_atom_site_fract_z
_atom_type_partial_charge
C1    C     C_R   0.262116 0.495474 0.497931 0.616112
C2    C     C_1   0.501346 0.500491 0.957287 0.075145
C3    C     C_R   0.054645 0.437394 0.421805 0.118228
C4    C     C_R   0.947076 0.558518 0.577061 0.190159
C5    C     C_R   0.928668 0.465313 0.417182 0.122327
C6    C     C_R   0.071977 0.528565 0.581842 0.196820
C7    C     C_R   0.873509 0.513796 0.497871 -0.044913
C8    C     C_R   0.127405 0.483904 0.500849 -0.050358
C9    C     C_R   0.449727 0.071481 0.425641 0.388845
C10   C     C_R   0.550256 0.931124 0.573800 0.371452
C11   C     C_R   0.551180 0.077487 0.573539 0.361584
C12   C     C_R   0.738222 0.504207 0.501603 0.605255
C13   C     C_R   0.446915 0.922615 0.426589 0.316408
C14   C     C_R   0.498995 0.499512 0.331257 0.614130
C15   C     C_R   0.501497 0.500538 0.668750 0.603451
C16   C     C_1   0.499274 0.498833 0.228849 0.120068
C17   C     C_1   0.502172 0.501370 0.771157 0.091481
C18   C     C_1   0.499847 0.499014 0.143410 0.064329
C19   C     C_1   0.501997 0.501224 0.856608 0.048607
C20   C     C_1   0.500668 0.499742 0.042737 0.075861
Cu1   Cu    Cu3+1 0.500000 0.640660 0.500000 1.107941
Cu2   Cu    Cu3+1 0.500000 0.359340 0.500000 1.138353
H1    H     H_    0.193048 0.485447 0.259003 0.348062
H2    H     H_    0.863459 0.904222 0.625691 0.388260
H3    H     H_    0.777818 0.263710 0.339331 0.351005
H4    H     H_    0.257145 0.349352 0.754317 0.367397
H5    H     H_    0.372299 0.076007 0.299977 0.380291
H6    H     H_    0.646061 0.791592 0.626098 0.396375
H7    H     H_    0.661182 0.223564 0.623742 0.351621
H8    H     H_    0.336556 0.775812 0.377740 0.364387
N1    N     N_R   0.500000 0.852070 0.500000 -0.293025
N2    N     N_R   0.500000 0.147930 0.500000 -0.271433
O1    O     O_R   0.319640 0.618740 0.499990 -0.522559
O2    O     O_2   0.020024 0.252610 0.274826 -0.164927
O3    O     O_3   0.228515 0.398990 0.282086 -0.506345
O4    O     O_2   0.783107 0.628436 0.702772 -0.287419
O5    O     O_2   0.990050 0.741890 0.723200 -0.155881
O6    O     O_3   0.854683 0.820771 0.584628 -0.528368
O7    O     O_2   0.764240 0.594058 0.308689 -0.260830
O8    O     O_2   0.933999 0.496739 0.229421 -0.178017
O9    O     O_3   0.758797 0.325960 0.286677 -0.458788
O10   O     O_2   0.234179 0.638387 0.712214 -0.229315
O11   O     O_2   0.061051 0.489790 0.768295 -0.189174
O12   O     O_R   0.680360 0.381260 0.500010 -0.556375
O13   O     O_3   0.236889 0.370516 0.688187 -0.524313
O14   O     O_3   0.399922 0.141522 0.350941 -0.571053
O15   O     O_3   0.605132 0.871938 0.649996 -0.591306
O16   O     O_3   0.609357 0.146125 0.648613 -0.609112
O17   O     O_3   0.388994 0.852069 0.352176 -0.678378
O18   O     O_R   0.680360 0.618740 0.500010 -0.443097
O19   O     O_R   0.319640 0.381260 0.499990 -0.391447
O20   O     O_R   0.500000 0.618810 0.376050 -0.477985
O21   O     O_R   0.500000 0.381190 0.623950 -0.474068
O22   O     O_R   0.500000 0.618810 0.623950 -0.465859
O23   O     O_R   0.500000 0.381190 0.376050 -0.408254
O24   O     O_2   0.168893 0.203081 0.398015 -0.198356
S1    S     S_3+6 0.115807 0.318208 0.342105 0.100657
S2    S     S_3+6 0.893296 0.687056 0.652651 0.085530
S3    S     S_3+6 0.846351 0.473537 0.307399 0.089628
S4    S     S_3+6 0.151324 0.510759 0.691710 0.081187

loop_
_geom_bond_atom_site_label_1
_geom_bond_atom_site_label_2
_ccdc_geom_bond_type
O2    S1    D    
H2    O6    S    
C5    C7    A    
H6    O15   S    
Cu2   O23   S    
C1    C8    S    
C1    O19   A    
C18   C20   S    
O5    S2    D    
H4    O13   S    
O3    S1    S    
O7    S3    D    
C14   O23   A    
C1    O1    A    
C9    O14   S    
O13   S4    S    
O8    S3    D    
Cu1   Cu2   S    
O10   S4    D    
Cu1   N1    S    
C11   O16   S    
C7    C12   S    
Cu2   N2    S    
O11   S4    D    
C4    C7    A    
C13   O17   S    
C15   O21   A    
H5    O14   S    
C4    C6    A    
Cu1   O18   S    
C17   C19   T    
H8    O17   S    
C11   N2    A    
Cu2   O21   S    
O4    S2    D    
Cu1   O22   S    
H1    O3    S    
C14   C16   S    
Cu2   O19   S    
Cu1   O1    S    
C10   C11   A    
C5    S3    S    
H7    O16   S    
C4    S2    S    
C15   O22   A    
C6    S4    S    
C14   O20   A    
O24   S1    D    
O9    S3    S    
C16   C18   T    
C3    C8    A    
H3    O9    S    
C10   O15   S    
C15   C17   S    
C9    C13   A    
C12   O12   A    
C6    C8    A    
C9    N2    A    
C3    C5    A    
C2    C19   S    
O6    S2    S    
C2    C20   T    
C10   N1    A    
C13   N1    A    
Cu1   O20   S    
Cu2   O12   S    
C12   O18   A    
C3    S1    S    
