data_mof_unit_19435.cif
_audit_creation_date              2012-12-10T22:11:11-0500
_audit_creation_method            fapswitch 2.2
_symmetry_space_group_name_H-M    P1
_symmetry_Int_Tables_number       1
_space_group_crystal_system       triclinic
_cell_length_a                    12.141098
_cell_length_b                    12.293536
_cell_length_c                    22.96176
_cell_angle_alpha                 90.697075
_cell_angle_beta                  90.646621
_cell_angle_gamma                 90.513138
_cell_volume                      3426.59040577

loop_
_atom_site_label
_atom_site_type_symbol
_atom_type_description
_atom_site_fract_x
_atom_site_fract_y
_atom_site_fract_z
_atom_type_partial_charge
C1    C     C_R   0.658557 0.997829 0.578661 0.931912
C2    C     C_R   0.100601 0.873306 0.825977 -0.205610
C3    C     C_R   0.900023 0.209632 0.133999 -0.193332
C4    C     C_R   0.099338 0.790944 0.866224 -0.193152
C5    C     C_R   0.142401 0.910587 0.305353 -0.269609
C6    C     C_R   0.851734 0.087558 0.697336 -0.272664
C7    C     C_R   0.223261 0.909678 0.348056 -0.283523
C8    C     C_R   0.768506 0.087850 0.655949 -0.287552
C9    C     C_R   0.832361 0.098917 0.300711 -0.121674
C10   C     C_R   0.167769 0.901099 0.699409 -0.099418
C11   C     C_R   0.753848 0.097475 0.343743 -0.219344
C12   C     C_R   0.341930 0.002386 0.420905 0.924707
C13   C     C_R   0.246482 0.902703 0.656467 -0.214836
C14   C     C_3   0.991621 0.006262 0.247535 -0.070051
C15   C     C_3   0.007726 0.993243 0.752267 -0.068962
C16   C     C_R   0.653767 0.001615 0.420349 0.866071
C17   C     C_R   0.346154 0.998382 0.579629 0.862561
C18   C     C_R   0.088882 0.007765 0.290635 0.031693
C19   C     C_R   0.910715 0.991958 0.708916 0.034460
C20   C     C_R   0.253719 0.005686 0.377282 -0.122063
C21   C     C_R   0.746869 0.995188 0.621954 -0.121156
C22   C     C_R   0.892422 0.004406 0.287470 0.136326
C23   C     C_R   0.892331 0.776546 0.145543 -0.192205
C24   C     C_R   0.106941 0.995297 0.712314 0.130778
C25   C     C_R   0.734451 0.002158 0.374652 -0.020212
C26   C     C_R   0.265203 0.997780 0.625230 -0.022520
C27   C     C_R   0.994089 0.102272 0.206377 0.212274
C28   C     C_R   0.005481 0.896768 0.793088 0.211716
C29   C     C_R   0.998186 0.266111 0.123403 -0.029550
C30   C     C_R   0.001681 0.733289 0.876264 -0.026906
C31   C     C_R   0.991292 0.909548 0.205517 0.090782
C32   C     C_R   0.008299 0.089713 0.794650 0.092414
C33   C     C_R   0.990662 0.749566 0.118147 -0.024277
C34   C     C_R   0.106949 0.225107 0.853333 -0.192269
C35   C     C_R   0.009412 0.249920 0.882071 -0.023853
C36   C     C_R   0.992656 0.662490 0.075110 0.867834
C37   C     C_R   0.007359 0.337379 0.924939 0.866332
C38   C     C_R   0.999099 0.351548 0.080594 0.874268
C39   C     C_R   0.000880 0.648297 0.919323 0.872870
C40   C     C_R   0.113107 0.103522 0.323607 0.350163
C41   C     C_R   0.890210 0.897974 0.673642 0.349733
C42   C     C_R   0.200440 0.104142 0.364332 0.332233
C43   C     C_R   0.811497 0.901623 0.628253 0.337376
C44   C     C_R   0.871520 0.908984 0.319065 -0.179474
C45   C     C_R   0.088436 0.885113 0.175434 -0.168528
C46   C     C_R   0.126717 0.090322 0.680177 -0.182807
C47   C     C_R   0.792432 0.907518 0.361732 -0.190361
C48   C     C_R   0.206072 0.091975 0.637616 -0.191901
C49   C     C_R   0.093901 0.155235 0.192668 -0.083103
C50   C     C_R   0.906167 0.842163 0.805937 -0.106599
C51   C     C_R   0.095418 0.237733 0.152289 -0.208042
C52   C     C_R   0.904816 0.759912 0.846490 -0.211265
C53   C     C_R   0.892233 0.856741 0.188334 -0.178807
C54   C     C_R   0.106869 0.144853 0.810525 -0.180203
C55   C     C_R   0.912309 0.111652 0.826338 -0.167714
C56   C     C_R   0.088490 0.804903 0.132863 -0.188730
C57   C     C_R   0.912388 0.192034 0.868861 -0.189843
C58   C     C_R   0.898590 0.127031 0.174118 -0.207518
H1    H     H_    0.918389 0.835801 0.311388 0.147754
H2    H     H_    0.176313 0.918972 0.820293 0.132012
H3    H     H_    0.119666 0.833411 0.285386 0.177596
H4    H     H_    0.870236 0.163764 0.719399 0.179459
H5    H     H_    0.848457 0.175827 0.280076 0.182674
H6    H     H_    0.152110 0.824263 0.720213 0.180975
H7    H     H_    0.778852 0.833186 0.385580 0.167810
H8    H     H_    0.218928 0.166007 0.613402 0.167744
H9    H     H_    0.172795 0.278438 0.143371 0.155518
H10   H     H_    0.827848 0.718009 0.854850 0.156095
H11   H     H_    0.815496 0.735943 0.133929 0.155944
H12   H     H_    0.078665 0.162942 0.687394 0.150337
H13   H     H_    0.183277 0.267619 0.863840 0.155494
H14   H     H_    0.165143 0.786989 0.111210 0.156894
H15   H     H_    0.836510 0.208156 0.891647 0.156346
H16   H     H_    0.824520 0.227861 0.110660 0.161046
H17   H     H_    0.174486 0.773926 0.890163 0.160432
H18   H     H_    0.262476 0.833173 0.357941 0.192250
H19   H     H_    0.722182 0.161844 0.649849 0.190702
H20   H     H_    0.709445 0.171502 0.353317 0.162997
H21   H     H_    0.291590 0.828961 0.647212 0.161720
H22   H     H_    0.220729 0.261265 0.365620 0.338631
H23   H     H_    0.171479 0.132441 0.212407 0.115784
H24   H     H_    0.871185 0.780013 0.584035 0.343938
H25   H     H_    0.045352 0.235462 0.353245 0.347490
H26   H     H_    0.901598 0.740484 0.674042 0.340801
H27   H     H_    0.828864 0.863542 0.785414 0.120203
H28   H     H_    0.813779 0.878619 0.206741 0.138205
H29   H     H_    0.184967 0.124845 0.791145 0.138749
H30   H     H_    0.164523 0.928803 0.184829 0.134717
H31   H     H_    0.836888 0.066138 0.818026 0.135713
H32   H     H_    0.822388 0.082443 0.180273 0.132810
O1    O     O_R   0.621380 0.090460 0.561410 -0.644827
O2    O     O_R   0.912410 0.372520 0.941210 -0.629861
O3    O     O_R   0.905660 0.383870 0.059980 -0.630547
O4    O     O_R   0.094340 0.616130 0.940020 -0.630432
O5    O     O_R   0.092570 0.390420 0.063230 -0.626471
O6    O     O_R   0.907430 0.609580 0.936770 -0.626440
O7    O     O_R   0.900680 0.620930 0.055550 -0.626764
O8    O     O_R   0.099320 0.379070 0.944450 -0.626673
O9    O     O_3   0.233607 0.199506 0.392113 -0.754477
O10   O     O_3   0.799613 0.817192 0.588261 -0.758566
O11   O     O_3   0.049543 0.194935 0.315781 -0.804255
O12   O     O_R   0.378620 0.909540 0.438590 -0.645213
O13   O     O_3   0.948985 0.804309 0.683833 -0.803198
O14   O     O_R   0.617150 0.909540 0.438590 -0.625299
O15   O     O_R   0.382850 0.090460 0.561410 -0.627745
O16   O     O_R   0.619720 0.093230 0.440890 -0.630950
O17   O     O_R   0.380280 0.906770 0.559110 -0.630891
O18   O     O_R   0.618800 0.906770 0.559110 -0.557391
O19   O     O_R   0.381200 0.093230 0.440890 -0.551564
O20   O     O_R   0.087590 0.627480 0.058790 -0.629991
Zn1   Zn    Zn3+2 0.501730 0.123520 0.501540 0.988215
Zn2   Zn    Zn3+2 0.498270 0.876480 0.498460 0.986940
Zn3   Zn    Zn3+2 0.125690 0.504390 0.002180 0.940435
Zn4   Zn    Zn3+2 0.874310 0.495610 0.997820 0.940251

loop_
_geom_bond_atom_site_label_1
_geom_bond_atom_site_label_2
_ccdc_geom_bond_type
C13   H21   S    
C1    C21   S    
O17   Zn2   S    
C23   H11   S    
O12   Zn2   S    
C14   C31   S    
C49   C51   A    
C15   C32   S    
C15   C19   S    
C6    C19   A    
C17   C26   S    
C35   C37   S    
C17   O17   A    
C54   H29   S    
C2    H2    S    
C9    C22   A    
C11   C25   A    
C44   H1    S    
C57   H15   S    
C33   C36   S    
C34   C35   A    
O1    Zn1   S    
C3    C29   A    
C3    H16   S    
C18   C40   A    
C37   O8    A    
C4    H17   S    
C50   H27   S    
C40   O11   S    
C21   C43   A    
C28   C50   A    
C16   O14   A    
C22   C44   A    
C45   C56   A    
C23   C33   A    
C38   O5    A    
C50   C52   A    
C53   H28   S    
C14   C27   S    
C25   C47   A    
C32   C55   A    
C52   H10   S    
C44   C47   A    
C16   O16   A    
C33   C56   A    
C40   C42   A    
O15   Zn1   S    
C1    O1    A    
C41   C43   A    
O6    Zn4   S    
C32   C54   A    
C12   O19   A    
O4    Zn3   S    
C23   C53   A    
O16   Zn1   S    
C46   C48   A    
C27   C49   A    
C45   H30   S    
C43   O10   S    
C5    C7    A    
O8    Zn3   S    
C6    C8    A    
C5    C18   A    
C10   C24   A    
C10   C13   A    
O18   Zn2   S    
C29   C38   S    
C2    C4    A    
C39   O4    A    
C12   O12   A    
C11   H20   S    
C17   O15   A    
C9    C11   A    
C12   C20   S    
C8    C21   A    
C5    H3    S    
C51   H9    S    
C31   C53   A    
C58   H32   S    
O20   Zn3   S    
C36   O7    A    
C15   C24   S    
C34   C54   A    
C55   C57   A    
H22   O9    S    
C36   O20   A    
C8    H19   S    
C13   C26   A    
O14   Zn2   S    
C29   C51   A    
C16   C25   S    
C30   C52   A    
H25   O11   S    
C37   O2    A    
C56   H14   S    
C9    H5    S    
H24   O10   S    
C14   C18   S    
C10   H6    S    
C27   C58   A    
C20   C42   A    
C7    H18   S    
C26   C48   A    
C35   C57   A    
C24   C46   A    
C6    H4    S    
O19   Zn1   S    
C55   H31   S    
C42   O9    S    
C14   C22   S    
C15   C28   S    
O5    Zn3   S    
C38   O3    A    
C30   C39   S    
C49   H23   S    
O3    Zn4   S    
C39   O6    A    
C46   H12   S    
C1    O18   A    
C3    C58   A    
C41   O13   S    
C7    C20   A    
C31   C45   A    
H26   O13   S    
C2    C28   A    
C48   H8    S    
O7    Zn4   S    
O2    Zn4   S    
C34   H13   S    
C47   H7    S    
C4    C30   A    
C19   C41   A    
