data_mof_unit_67746.cif
_audit_creation_date              2013-03-05T15:39:54-0500
_audit_creation_method            fapswitch 2.2
_symmetry_space_group_name_H-M    P1
_symmetry_Int_Tables_number       1
_space_group_crystal_system       triclinic
_cell_length_a                    12.123357
_cell_length_b                    12.676513
_cell_length_c                    8.080284
_cell_angle_alpha                 91.845951
_cell_angle_beta                  90.444919
_cell_angle_gamma                 88.175992
_cell_volume                      1240.49179535

loop_
_atom_site_label
_atom_site_type_symbol
_atom_site_description
_atom_site_fract_x
_atom_site_fract_y
_atom_site_fract_z
_atom_type_partial_charge
O1    O     O_R   0.375700 0.885870 0.609240 -0.580581
O2    O     O_R   0.624300 0.114130 0.390760 -0.575641
O3    O     O_R   0.624300 0.885870 0.390760 -0.575869
O4    O     O_R   0.375700 0.114130 0.609240 -0.574210
O5    O     O_R   0.875700 0.385870 0.609240 -0.580595
O6    O     O_R   0.124300 0.614130 0.390760 -0.575655
O7    O     O_R   0.124300 0.385870 0.390760 -0.575753
O8    O     O_R   0.875700 0.614130 0.609240 -0.574162
O9    O     O_R   0.402280 0.885870 0.324040 -0.538149
O10   O     O_R   0.597720 0.114130 0.675960 -0.524493
O11   O     O_R   0.597720 0.885870 0.675960 -0.558548
O12   O     O_R   0.402280 0.114130 0.324040 -0.573870
O13   O     O_R   0.902280 0.385870 0.324040 -0.538073
O14   O     O_R   0.097720 0.614130 0.675960 -0.524461
O15   O     O_R   0.097720 0.385870 0.675960 -0.558681
O16   O     O_R   0.902280 0.614130 0.324040 -0.573915
C1    C     C_R   0.355172 0.852148 0.457792 0.924346
C2    C     C_R   0.644716 0.147957 0.542143 0.929874
C3    C     C_R   0.638757 0.847288 0.536413 0.916921
C4    C     C_R   0.361571 0.152965 0.463662 0.922645
C5    C     C_R   0.855176 0.352145 0.457795 0.924403
C6    C     C_R   0.144711 0.647960 0.542139 0.929925
C7    C     C_R   0.138759 0.347289 0.536414 0.916797
C8    C     C_R   0.861570 0.652965 0.463663 0.922604
Zn1   Zn    Zn3+2 0.482250 0.000000 0.690430 1.244720
Zn2   Zn    Zn3+2 0.517750 0.000000 0.309570 1.242902
Zn3   Zn    Zn3+2 0.982250 0.500000 0.690430 1.244686
Zn4   Zn    Zn3+2 0.017750 0.500000 0.309570 1.242990
C9    C     C_2   0.300597 0.249522 0.466495 0.083475
C10   C     C_2   0.699804 0.750856 0.533508 0.132371
C11   C     C_2   0.716491 0.235451 0.563409 0.042902
C12   C     C_2   0.283235 0.764784 0.436286 0.045092
C13   C     C_2   0.800597 0.749523 0.466502 0.083459
C14   C     C_2   0.199807 0.250858 0.533512 0.132360
C15   C     C_2   0.216476 0.735460 0.563393 0.042975
C16   C     C_2   0.783253 0.264771 0.436302 0.045235
N1    N     N_2   0.541470 0.000000 0.055820 0.128763
N2    N     N_2   0.458530 0.000000 0.944180 0.116403
N3    N     N_2   0.041470 0.500000 0.055820 0.128742
N4    N     N_2   0.958530 0.500000 0.944180 0.116380
S1    S     S_3+6 0.882187 0.862894 0.455478 0.064847
O17   O     O_2   0.922033 0.874362 0.281526 -0.211113
O18   O     O_2   0.822994 0.962160 0.516209 -0.305402
O19   O     O_3   0.992339 0.845412 0.575841 -0.543679
H1    H     H_    0.050192 0.882223 0.517020 0.415415
S2    S     S_3+6 0.118021 0.137669 0.543788 0.090419
O20   O     O_2   0.176760 0.038526 0.481266 -0.284915
O21   O     O_2   0.078881 0.125886 0.718060 -0.203728
O22   O     O_3   0.007371 0.155969 0.424669 -0.533097
H2    H     H_    0.949744 0.118658 0.483198 0.411066
S3    S     S_3+6 0.200901 0.804163 0.761538 0.141499
O23   O     O_2   0.303749 0.786071 0.861599 -0.193264
O24   O     O_2   0.184266 0.919339 0.735443 -0.202363
O25   O     O_3   0.090832 0.767764 0.869862 -0.421187
H3    H     H_    0.066216 0.831408 0.935672 0.421072
S4    S     S_3+6 0.798729 0.196273 0.237877 0.142625
O26   O     O_2   0.815760 0.081119 0.263532 -0.195690
O27   O     O_2   0.695729 0.214223 0.138054 -0.184798
O28   O     O_3   0.908626 0.232908 0.129378 -0.428097
H4    H     H_    0.932660 0.169580 0.062290 0.421592
S5    S     S_3+6 0.382186 0.362892 0.455438 0.064821
O29   O     O_2   0.422018 0.374354 0.281477 -0.211166
O30   O     O_2   0.323001 0.462163 0.516171 -0.305335
O31   O     O_3   0.492351 0.345411 0.575775 -0.543796
H5    H     H_    0.550215 0.382161 0.516883 0.415397
S6    S     S_3+6 0.618013 0.637670 0.543756 0.090325
O32   O     O_2   0.676744 0.538533 0.481193 -0.284908
O33   O     O_2   0.578885 0.625867 0.718029 -0.203451
O34   O     O_3   0.507355 0.655995 0.424660 -0.533954
H6    H     H_    0.449722 0.618705 0.483209 0.411137
S7    S     S_3+6 0.700886 0.304185 0.761534 0.141338
O35   O     O_2   0.803736 0.286176 0.861628 -0.194320
O36   O     O_2   0.684200 0.419348 0.735367 -0.202273
O37   O     O_3   0.590840 0.267754 0.869882 -0.421148
H7    H     H_    0.566011 0.331466 0.935337 0.421048
S8    S     S_3+6 0.298700 0.696296 0.237847 0.142717
O38   O     O_2   0.315776 0.581144 0.263506 -0.196019
O39   O     O_2   0.195672 0.714190 0.138068 -0.184585
O40   O     O_3   0.408541 0.733005 0.129271 -0.428263
H8    H     H_    0.433542 0.669347 0.063833 0.421626
S9    S     S_3+6 0.658424 0.926713 0.002318 0.201191
O41   O     O_2   0.733437 0.918429 0.147273 -0.211081
O42   O     O_2   0.627906 0.816075 0.952479 -0.267673
O43   O     O_3   0.729765 0.985631 0.855566 -0.488621
H9    H     H_    0.801964 0.946796 0.850859 0.399506
S10   S     S_3+6 0.341187 0.072247 0.998265 0.227566
O44   O     O_2   0.265672 0.081977 0.854120 -0.163277
O45   O     O_2   0.279143 0.018554 0.130190 -0.234166
O46   O     O_3   0.375019 0.195996 0.053512 -0.500551
H10   H     H_    0.305103 0.229729 0.093218 0.407616
S11   S     S_3+6 0.158426 0.426719 0.002318 0.201300
O47   O     O_2   0.233437 0.418447 0.147276 -0.210979
O48   O     O_2   0.127914 0.316079 0.952486 -0.267591
O49   O     O_3   0.229766 0.485635 0.855564 -0.488416
H11   H     H_    0.301924 0.446736 0.850750 0.399479
S12   S     S_3+6 0.841180 0.572234 0.998264 0.227496
O50   O     O_2   0.765665 0.581946 0.854115 -0.163304
O51   O     O_2   0.779144 0.518539 0.130196 -0.234281
O52   O     O_3   0.874995 0.695990 0.053503 -0.500498
H12   H     H_    0.805079 0.729709 0.093237 0.407579

loop_
_geom_bond_atom_site_label_1
_geom_bond_atom_site_label_2
_geom_bond_distance
_ccdc_geom_bond_type
O16   Zn4   1.982222 S    
S6    O33   1.502942 D    
O2    C2    1.307542 A    
S1    O17   1.502770 D    
S8    O40   1.686237 S    
O4    Zn1   2.030061 S    
C5    C16   1.436649 S    
C6    C15   1.436533 S    
S2    O22   1.659598 S    
O11   C3    1.309903 A    
N2    S10   1.718846 S    
S8    O39   1.496568 D    
S10   O45   1.502389 D    
S6    O34   1.659606 S    
O11   Zn1   1.982223 S    
O6    C6    1.307514 A    
S12   O52   1.679692 S    
S4    O26   1.488655 D    
S5    O30   1.499152 D    
O25   H3    0.991077 S    
O6    Zn4   2.058347 S    
S12   O51   1.502386 D    
O13   Zn4   2.051552 S    
O3    C3    1.297495 A    
C14   S2    1.774345 S    
O14   Zn3   2.051551 S    
S5    O29   1.502769 D    
O15   C7    1.309902 A    
S6    O32   1.499854 D    
O28   H4    0.991325 S    
O16   C8    1.310024 A    
O5    Zn3   2.058348 S    
O1    Zn1   2.058348 S    
S1    O18   1.499151 D    
N1    S9    1.720506 S    
O34   H6    0.987944 S    
N4    S12   1.718838 S    
N3    S11   1.720489 S    
S9    O42   1.503458 D    
O9    Zn2   2.051552 S    
S9    O41   1.481645 D    
S2    O21   1.502943 D    
C4    C9    1.409248 S    
C9    S5    1.775348 S    
O37   H7    0.991009 S    
S3    O23   1.496347 D    
C12   C15   1.380119 D    
O43   H9    0.990870 S    
N3    N4    1.345630 D    
S7    O36   1.489050 D    
S10   O44   1.481711 D    
Zn4   N3    2.072649 S    
C9    C14   1.339765 D    
O7    Zn4   2.030062 S    
O12   Zn2   1.982222 S    
S3    O24   1.489041 D    
S5    O31   1.659273 S    
N1    N2    1.345630 D    
C16   S4    1.806782 S    
Zn1   N2    2.072650 S    
S11   O48   1.503458 D    
O15   Zn3   1.982223 S    
O52   H12   0.988218 S    
Zn3   N4    2.072650 S    
C7    C14   1.408341 S    
S12   O50   1.481715 D    
O12   C4    1.310016 A    
O13   C5    1.316000 A    
O2    Zn2   2.058347 S    
S8    O38   1.488695 D    
C10   S6    1.774329 S    
O10   Zn1   2.051551 S    
O9    C1    1.315988 A    
C15   S3    1.806090 S    
S1    O19   1.659278 S    
S11   O47   1.481633 D    
S9    O43   1.681097 S    
O19   H1    0.987867 S    
C1    C12   1.436662 S    
S2    O20   1.499849 D    
C10   C13   1.339762 D    
O3    Zn2   2.030062 S    
S10   O46   1.679688 S    
C12   S8    1.806809 S    
S7    O37   1.686137 S    
Zn2   N1    2.072649 S    
O1    C1    1.307883 A    
C8    C13   1.409254 S    
S4    O28   1.686157 S    
S3    O25   1.686122 S    
C13   S1    1.775344 S    
O31   H5    0.987859 S    
O14   C6    1.316310 A    
S7    O35   1.496352 D    
S11   O49   1.681091 S    
O10   C2    1.316296 A    
O7    C7    1.297498 A    
C11   S7    1.806154 S    
O8    C8    1.297765 A    
S4    O27   1.496574 D    
O49   H11   0.990845 S    
O40   H8    0.990994 S    
O4    C4    1.297771 A    
O5    C5    1.307865 A    
O22   H2    0.987944 S    
O8    Zn3   2.030061 S    
C11   C16   1.380120 D    
C2    C11   1.436559 S    
O46   H10   0.988216 S    
C3    C10   1.408339 S    
