data_mof_unit_36183.cif
_audit_creation_date              2012-12-10T21:29:43-0500
_audit_creation_method            fapswitch 2.2
_symmetry_space_group_name_H-M    P1
_symmetry_Int_Tables_number       1
_space_group_crystal_system       triclinic
_cell_length_a                    10.533081
_cell_length_b                    16.148437
_cell_length_c                    16.963332
_cell_angle_alpha                 89.029438
_cell_angle_beta                  91.201306
_cell_angle_gamma                 91.982554
_cell_volume                      2882.60002973

loop_
_atom_site_label
_atom_site_type_symbol
_atom_type_description
_atom_site_fract_x
_atom_site_fract_y
_atom_site_fract_z
_atom_type_partial_charge
C1    C     C_R   0.500192 0.489568 0.652591 0.865127
C2    C     C_R   0.546927 0.526002 0.100334 0.327382
C3    C     C_R   0.551330 0.403974 0.856401 -0.195728
C4    C     C_R   0.533896 0.598136 0.143023 -0.195275
C5    C     C_R   0.538871 0.408359 0.774906 -0.219582
C6    C     C_R   0.518338 0.593373 0.223955 -0.222581
C7    C     C_R   0.435890 0.761675 0.462096 -0.060132
C8    C     C_R   0.554771 0.238091 0.543275 -0.058862
C9    C     C_R   0.439695 0.849181 0.463056 -0.282932
C10   C     C_R   0.554847 0.150765 0.540291 -0.282970
C11   C     C_R   0.527983 0.891692 0.513020 0.288547
C12   C     C_R   0.502592 0.510306 0.347401 0.867095
C13   C     C_R   0.483998 0.108833 0.480635 0.283560
C14   C     C_R   0.608414 0.844922 0.559962 -0.292797
C15   C     C_R   0.416794 0.156029 0.426270 -0.282687
C16   C     C_R   0.739784 0.499908 0.487918 0.895648
C17   C     C_R   0.260944 0.500082 0.513271 0.899452
C18   C     C_R   0.600515 0.758026 0.559868 0.301681
C19   C     C_R   0.413258 0.242537 0.432350 0.297746
C20   C     C_R   0.888387 0.343144 0.465365 0.062304
C21   C     C_R   0.112291 0.656464 0.542173 0.055358
C22   C     C_R   0.937600 0.271374 0.499781 -0.211660
C23   C     C_R   0.506861 0.483278 0.737774 -0.024622
C24   C     C_R   0.059506 0.729120 0.512094 -0.210344
C25   C     C_R   0.041383 0.277079 0.551768 -0.189633
C26   C     C_R   0.955512 0.724709 0.460298 -0.192780
C27   C     C_R   0.103400 0.353517 0.563691 -0.109330
C28   C     C_R   0.897087 0.648131 0.443848 -0.129770
C29   C     C_R   0.055984 0.426207 0.528226 0.071318
C30   C     C_R   0.945335 0.574450 0.477004 0.069198
C31   C     C_R   0.938565 0.422543 0.488094 0.036524
C32   C     C_R   0.062805 0.577679 0.517137 0.040332
C33   C     C_R   0.125303 0.502096 0.529852 -0.252224
C34   C     C_R   0.515980 0.515894 0.262610 -0.029247
C35   C     C_R   0.876358 0.498166 0.473958 -0.247134
C36   C     C_3   0.689501 0.714418 0.616785 -0.374437
C37   C     C_3   0.664395 0.735828 0.702472 -0.902436
C38   C     C_3   0.332190 0.287493 0.371534 -0.371923
C39   C     C_3   0.197866 0.249009 0.361991 -0.918903
C40   C     C_1   0.799813 0.332896 0.399702 0.181172
C41   C     C_1   0.204408 0.664871 0.606097 0.181243
C42   C     C_R   0.484965 0.552948 0.782478 -0.232098
C43   C     C_R   0.532287 0.443653 0.220170 -0.226170
C44   C     C_R   0.497728 0.548745 0.863539 -0.164680
C45   C     C_R   0.548383 0.448425 0.139681 -0.159701
C46   C     C_R   0.532789 0.474114 0.900971 0.329950
H1    H     H_    0.916110 0.780927 0.436063 0.148637
H2    H     H_    0.813436 0.646616 0.405578 0.152807
H3    H     H_    0.532786 0.383348 0.248934 0.170795
H4    H     H_    0.457246 0.610500 0.754968 0.181608
H5    H     H_    0.559536 0.391291 0.108446 0.150217
H6    H     H_    0.478868 0.603576 0.896646 0.151670
H7    H     H_    0.576194 0.346096 0.884981 0.139412
H8    H     H_    0.532608 0.657899 0.113082 0.139642
H9    H     H_    0.555983 0.353691 0.741080 0.157912
H10   H     H_    0.507129 0.650045 0.255968 0.161926
H11   H     H_    0.611076 0.269937 0.588202 0.145570
H12   H     H_    0.078910 0.221562 0.578689 0.147784
H13   H     H_    0.368684 0.729494 0.423324 0.149525
H14   H     H_    0.701029 0.799449 0.715741 0.252796
H15   H     H_    0.561050 0.731855 0.713965 0.271402
H16   H     H_    0.713560 0.691924 0.742845 0.259131
H17   H     H_    0.682771 0.647236 0.612820 0.272088
H18   H     H_    0.789229 0.732998 0.602897 0.194646
H19   H     H_    0.197927 0.194170 0.323427 0.251926
H20   H     H_    0.159736 0.229793 0.420052 0.280696
H21   H     H_    0.133773 0.294765 0.334117 0.263065
H22   H     H_    0.319631 0.351884 0.386818 0.274245
H23   H     H_    0.609921 0.116991 0.583894 0.159140
H24   H     H_    0.379524 0.287007 0.313677 0.188729
H25   H     H_    0.374286 0.882664 0.425369 0.159237
H26   H     H_    0.677308 0.876928 0.597955 0.152911
H27   H     H_    0.364719 0.124280 0.379383 0.158087
H28   H     H_    0.897765 0.210759 0.484754 0.146518
H29   H     H_    0.097872 0.789342 0.529602 0.145276
H30   H     H_    0.188196 0.355917 0.600964 0.147375
N1    N     N_2   0.542815 0.466060 0.983485 -0.208410
N2    N     N_2   0.548741 0.533683 0.017632 -0.207702
N3    N     N_R   0.515300 0.716920 0.509720 -0.108287
N4    N     N_R   0.484700 0.283080 0.490280 -0.110951
N5    N     N_2   0.538991 0.979989 0.520662 -0.181518
N6    N     N_2   0.473937 0.020544 0.472553 -0.182151
N7    N     N_1   0.729240 0.324313 0.347052 -0.220187
N8    N     N_1   0.277769 0.672199 0.657415 -0.221857
O1    O     O_R   0.494530 0.422540 0.612660 -0.634551
O2    O     O_R   0.505470 0.577460 0.387340 -0.629602
O3    O     O_R   0.504350 0.561840 0.618900 -0.621358
O4    O     O_R   0.495650 0.438160 0.381100 -0.641572
O5    O     O_R   0.678310 0.430340 0.496890 -0.606237
O6    O     O_R   0.321690 0.569660 0.503110 -0.608521
O7    O     O_R   0.688140 0.569650 0.503130 -0.645268
O8    O     O_R   0.311860 0.430350 0.496870 -0.631798
Zn1   Zn    Zn3+2 0.493440 0.406980 0.495830 0.935144
Zn2   Zn    Zn3+2 0.506560 0.593020 0.504170 0.937057

loop_
_geom_bond_atom_site_label_1
_geom_bond_atom_site_label_2
_ccdc_geom_bond_type
C1    O3    A    
C38   H24   S    
C27   C29   A    
C14   C18   A    
C37   H16   S    
N1    N2    D    
C11   N5    S    
C15   C19   A    
C23   C42   A    
C17   C33   S    
C30   C35   A    
C36   C37   S    
C24   C26   A    
C16   C35   S    
C38   C39   S    
C20   C40   S    
C11   C14   A    
C45   H5    S    
O3    Zn2   S    
C29   C33   A    
O2    Zn2   S    
O1    Zn1   S    
C18   N3    A    
C22   C25   A    
C36   H17   S    
C44   H6    S    
C16   O5    A    
C39   H19   S    
C40   N7    T    
C17   O8    A    
C14   H26   S    
C7    H13   S    
C44   C46   A    
O6    Zn2   S    
C2    C45   A    
C1    O1    A    
C21   C32   A    
C12   O4    A    
N3    Zn2   S    
C4    C6    A    
C6    H10   S    
C43   H3    S    
C41   N8    T    
C13   N6    S    
N5    N6    D    
C6    C34   A    
C2    C4    A    
C2    N2    S    
C19   C38   S    
C8    H11   S    
C9    C11   A    
C5    C23   A    
C43   C45   A    
C26   H1    S    
C42   H4    S    
C21   C41   S    
C15   H27   S    
C20   C22   A    
C1    C23   S    
C13   C15   A    
C39   H20   S    
C31   C35   A    
C25   H12   S    
C22   H28   S    
C12   C34   S    
C27   H30   S    
C7    N3    A    
C7    C9    A    
O4    Zn1   S    
C28   H2    S    
C4    H8    S    
C39   H21   S    
C5    H9    S    
C17   O6    A    
C9    H25   S    
C38   H22   S    
C3    C5    A    
C10   C13   A    
C46   N1    S    
C37   H15   S    
C24   H29   S    
C25   C27   A    
C3    C46   A    
C26   C28   A    
C12   O2    A    
C32   C33   A    
C28   C30   A    
C42   C44   A    
C29   C31   A    
C36   H18   S    
O7    Zn2   S    
C30   C32   A    
C3    H7    S    
O8    Zn1   S    
O5    Zn1   S    
C19   N4    A    
C37   H14   S    
C10   H23   S    
C16   O7    A    
C8    C10   A    
C21   C24   A    
C8    N4    A    
N4    Zn1   S    
C34   C43   A    
C18   C36   S    
C20   C31   A    
