data_mof_unit_23800.cif
_audit_creation_date              2012-12-10T18:10:46-0500
_audit_creation_method            fapswitch 2.2
_symmetry_space_group_name_H-M    P1
_symmetry_Int_Tables_number       1
_space_group_crystal_system       triclinic
_cell_length_a                    12.600911
_cell_length_b                    13.164322
_cell_length_c                    15.736708
_cell_angle_alpha                 90.750928
_cell_angle_beta                  102.80399
_cell_angle_gamma                 82.231548
_cell_volume                      2521.78676709

loop_
_atom_site_label
_atom_site_type_symbol
_atom_type_description
_atom_site_fract_x
_atom_site_fract_y
_atom_site_fract_z
_atom_type_partial_charge
C1    C     C_R   0.438815 0.690873 0.484063 0.850487
C2    C     C_3   0.382033 0.559484 0.026500 0.042109
C3    C     C_3   0.492542 0.501224 0.081372 0.327086
C4    C     C_3   0.513971 0.390070 0.049880 -0.380846
C5    C     C_3   0.511816 0.390878 0.951432 -0.395902
C6    C     C_1   0.494006 0.500459 0.173284 -0.137441
C7    C     C_1   0.501957 0.502430 0.826114 -0.113692
C8    C     C_1   0.502845 0.501679 0.750880 -0.187326
C9    C     C_R   0.722586 0.051530 0.479045 -0.247387
C10   C     C_R   0.597072 0.197359 0.507982 -0.111416
C11   C     C_R   0.292044 0.838635 0.469738 -0.198147
C12   C     C_R   0.501025 0.500407 0.661546 0.910537
C13   C     C_R   0.258681 0.943642 0.464984 -0.149796
C14   C     C_R   0.334284 0.010500 0.461684 -0.194009
C15   C     C_R   0.444352 0.972399 0.459037 0.088851
C16   C     C_R   0.471510 0.866600 0.447709 0.084238
C17   C     C_R   0.529579 0.034611 0.470278 0.074781
C18   C     C_R   0.635388 0.993231 0.459188 0.156418
C19   C     C_R   0.653204 0.893207 0.430651 -0.252980
C20   C     C_R   0.571224 0.831083 0.423055 -0.205396
C21   C     C_R   0.513940 0.135246 0.497291 -0.275717
C22   C     C_R   0.704797 0.152886 0.505705 -0.005494
C23   C     C_R   0.561418 0.308093 0.510706 0.859696
C24   C     C_R   0.399423 0.799461 0.463978 -0.115413
C25   C     C_R   0.087639 0.347614 0.378711 -0.313053
C26   C     C_R   0.797430 0.633406 0.598965 0.006361
C27   C     C_R   0.900339 0.667939 0.616519 0.134856
C28   C     C_R   0.982147 0.616727 0.578163 -0.288147
C29   C     C_R   0.960797 0.534664 0.520845 -0.004346
C30   C     C_R   0.853865 0.506346 0.503171 0.217312
C31   C     C_R   0.040595 0.480481 0.479733 0.004086
C32   C     C_R   0.010412 0.402216 0.419587 0.192183
C33   C     C_R   0.903728 0.378429 0.401365 -0.278988
C34   C     C_R   0.498904 0.499746 0.338455 0.891054
C35   C     C_R   0.827056 0.429138 0.443300 -0.163206
C36   C     C_R   0.150137 0.499610 0.496320 -0.050736
C37   C     C_R   0.194323 0.370390 0.397966 0.005364
C38   C     C_3   0.386632 0.559651 0.928453 -0.386227
C39   C     C_3   0.592119 0.557527 0.970094 -0.409740
C40   C     C_3   0.588061 0.557759 0.067403 -0.452697
C41   C     C_1   0.496039 0.499949 0.249001 -0.189018
C42   C     C_3   0.498354 0.502696 0.916989 0.322901
H1    H     H_    0.380901 0.640917 0.047219 0.102831
H2    H     H_    0.319254 0.523874 0.886732 0.187559
H3    H     H_    0.596070 0.352947 0.085856 0.164668
H4    H     H_    0.731629 0.861887 0.416944 0.151702
H5    H     H_    0.804777 0.017394 0.475371 0.137782
H6    H     H_    0.436459 0.167212 0.511031 0.167845
H7    H     H_    0.234470 0.788301 0.479744 0.153733
H8    H     H_    0.303765 0.091193 0.460013 0.130716
H9    H     H_    0.175227 0.973552 0.467952 0.141121
H10   H     H_    0.376437 0.640311 0.904287 0.136841
H11   H     H_    0.587578 0.754720 0.398709 0.180103
H12   H     H_    0.255433 0.329033 0.367116 0.134482
H13   H     H_    0.879926 0.318580 0.355934 0.148890
H14   H     H_    0.065803 0.287787 0.332736 0.141507
H15   H     H_    0.181283 0.556430 0.541360 0.126435
H16   H     H_    0.731676 0.669492 0.627417 0.160061
H17   H     H_    0.060777 0.644399 0.592874 0.134925
H18   H     H_    0.747961 0.404252 0.429183 0.209495
H19   H     H_    0.673096 0.517766 0.962295 0.179577
H20   H     H_    0.584162 0.637860 0.945801 0.170547
H21   H     H_    0.577060 0.638287 0.089840 0.168552
H22   H     H_    0.668035 0.519881 0.106554 0.185307
H23   H     H_    0.443099 0.351242 0.915624 0.169636
H24   H     H_    0.589465 0.347386 0.940132 0.169153
H25   H     H_    0.453779 0.342621 0.064623 0.173360
N1    N     N_R   0.222200 0.444690 0.455710 -0.101815
N2    N     N_R   0.776960 0.554780 0.543830 -0.153734
O1    O     O_R   0.366740 0.627160 0.478850 -0.617654
O2    O     O_R   0.544830 0.662520 0.507140 -0.624878
O3    O     O_R   0.410920 0.482310 0.608710 -0.611773
O4    O     O_R   0.589010 0.517670 0.637000 -0.611356
O5    O     O_R   0.455170 0.337480 0.492860 -0.617837
O6    O     O_R   0.633260 0.372840 0.521150 -0.623514
O7    O     O_R   0.410990 0.482330 0.363000 -0.611090
O8    O     O_R   0.589080 0.517690 0.391290 -0.640717
Zn1   Zn    Zn3+2 0.381090 0.476390 0.481110 0.936653
Zn2   Zn    Zn3+2 0.618910 0.523610 0.518890 0.927215
C43   C     C_3   0.273639 0.528616 0.045209 -0.387952
C44   C     C_3   0.224616 0.440523 0.992542 -0.863909
H26   H     H_    0.177278 0.468372 0.926997 0.246453
H27   H     H_    0.287516 0.376253 0.984992 0.257799
H28   H     H_    0.166142 0.410694 0.026158 0.244725
H29   H     H_    0.284950 0.510137 0.115494 0.214426
H30   H     H_    0.209640 0.596965 0.032150 0.195084
C45   C     C_1   0.799250 0.204708 0.537308 0.168252
N3    N     N_1   0.875962 0.244555 0.564212 -0.202269
C46   C     C_3   0.927194 0.758489 0.674168 -0.417396
C47   C     C_3   0.829961 0.819225 0.703968 -0.890092
H31   H     H_    0.764194 0.848189 0.646767 0.269266
H32   H     H_    0.797110 0.770825 0.746623 0.252764
H33   H     H_    0.857709 0.886123 0.742021 0.256371
H34   H     H_    0.991372 0.730552 0.732661 0.209419
H35   H     H_    0.962226 0.812432 0.637677 0.209527

loop_
_geom_bond_atom_site_label_1
_geom_bond_atom_site_label_2
_ccdc_geom_bond_type
C33   H13   S    
C5    C42   S    
O1    Zn1   S    
C19   C20   A    
C25   H14   S    
C45   N3    T    
C3    C6    S    
C44   H28   S    
O2    Zn2   S    
C44   H26   S    
C19   H4    S    
C7    C8    T    
C10   C22   A    
C26   C27   A    
C29   C30   A    
C40   H21   S    
C30   C35   A    
C28   C29   A    
O7    Zn1   S    
C38   C42   S    
C34   O8    A    
C9    C22   A    
C38   H10   S    
C15   C16   A    
C37   N1    A    
C11   C24   A    
C18   C19   A    
C7    C42   S    
C46   H34   S    
C43   H30   S    
C25   C37   A    
C13   H9    S    
C6    C41   T    
O3    Zn1   S    
C16   C20   A    
C21   H6    S    
C25   C32   A    
C12   O3    A    
C16   C24   A    
C12   O4    A    
C34   C41   S    
C44   H27   S    
C39   C42   S    
C4    H3    S    
O8    Zn2   S    
C10   C21   A    
N1    Zn1   S    
C39   H19   S    
C5    H23   S    
C36   H15   S    
C39   C40   S    
C20   H11   S    
C17   C21   A    
C35   H18   S    
C46   H35   S    
C38   H2    S    
C43   H29   S    
C11   H7    S    
C2    C38   S    
C47   H32   S    
C31   C32   A    
C2    H1    S    
C8    C12   S    
C17   C18   A    
O4    Zn2   S    
C1    O2    A    
C22   C45   S    
C26   H16   S    
C37   H12   S    
C3    C40   S    
C9    H5    S    
N2    Zn2   S    
C23   O5    A    
C3    C4    S    
C30   N2    A    
C47   H33   S    
C28   H17   S    
C15   C17   A    
C39   H20   S    
C14   C15   A    
C23   O6    A    
C43   C44   S    
C4    H25   S    
C36   N1    A    
C10   C23   S    
C1    O1    A    
C40   H22   S    
C32   C33   A    
C2    C3    S    
C29   C31   A    
C5    H24   S    
C11   C13   A    
C47   H31   S    
C14   H8    S    
C33   C35   A    
C27   C46   S    
C2    C43   S    
C9    C18   A    
C4    C5    S    
C1    C24   S    
O5    Zn1   S    
C27   C28   A    
C26   N2    A    
C31   C36   A    
C46   C47   S    
C13   C14   A    
O6    Zn2   S    
C34   O7    A    
