data_mof_unit_50418.cif
_audit_creation_date              2012-12-11T18:06:49-0500
_audit_creation_method            fapswitch 2.2
_symmetry_space_group_name_H-M    P1
_symmetry_Int_Tables_number       1
_space_group_crystal_system       triclinic
_cell_length_a                    8.203758
_cell_length_b                    12.794353
_cell_length_c                    26.974294
_cell_angle_alpha                 96.891697
_cell_angle_beta                  93.055893
_cell_angle_gamma                 81.013298
_cell_volume                      2774.58385575

loop_
_atom_site_label
_atom_site_type_symbol
_atom_type_description
_atom_site_fract_x
_atom_site_fract_y
_atom_site_fract_z
_atom_type_partial_charge
Ba1   Ba    Ba6+2 0.859560 0.448380 0.523550 1.640507
Ba2   Ba    Ba6+2 0.330270 0.551530 0.476440 1.642961
C1    C     C_3   0.659081 0.077693 0.658270 -0.388977
C2    C     C_R   0.883521 0.594504 0.175083 0.571749
C3    C     C_2   0.750902 0.559469 0.271361 -0.094041
C4    C     C_3   0.201486 0.210143 0.659787 0.302312
C5    C     C_3   0.732571 0.600665 0.325821 -0.064909
C6    C     C_1   0.986679 0.480719 0.342404 0.034637
C7    C     C_2   0.028048 0.474816 0.294569 -0.108882
C8    C     C_2   0.901637 0.513337 0.255051 0.187656
C9    C     C_R   0.021899 0.504427 0.100298 -0.080531
C10   C     C_R   0.080590 0.417504 0.127226 -0.035164
C11   C     C_R   0.180500 0.329466 0.102814 -0.061935
C12   C     C_3   0.679616 0.180866 0.638197 0.310721
C13   C     C_R   0.921977 0.592900 0.124566 -0.020966
C14   C     C_2   0.848035 0.536708 0.359716 -0.285383
C15   C     C_2   0.357843 0.479067 0.640787 -0.280506
C16   C     C_3   0.218754 0.170512 0.711463 -0.060259
C17   C     C_R   0.211917 0.414873 0.974524 0.019286
C18   C     C_R   0.035866 0.588887 0.971060 0.020401
C19   C     C_R   0.144504 0.501717 0.947567 0.049693
C20   C     C_R   0.322899 0.331653 0.949572 -0.099678
C21   C     C_R   0.363987 0.333006 0.900137 -0.065303
C22   C     C_R   0.296596 0.417220 0.872951 -0.037118
C23   C     C_3   0.482674 0.722271 0.627663 0.300038
C24   C     C_R   0.186279 0.501590 0.896549 -0.078672
C25   C     C_R   0.118201 0.586158 0.869186 -0.035098
C26   C     C_R   0.161212 0.585631 0.818994 0.585343
C27   C     C_R   0.337025 0.418343 0.822557 0.564866
C28   C     C_3   0.201119 0.221056 0.415508 0.346305
C29   C     C_2   0.467357 0.485096 0.729146 -0.072425
C30   C     C_3   0.507688 0.488999 0.675072 -0.049694
C31   C     C_1   0.211720 0.523585 0.656624 0.044402
C32   C     C_2   0.173695 0.522849 0.703895 -0.117295
C33   C     C_2   0.308073 0.501619 0.743415 0.198409
C34   C     C_3   0.446689 0.766160 0.681572 -0.373124
C35   C     C_R   0.167319 0.414330 0.025216 0.019714
C36   C     C_R   0.062779 0.503136 0.049094 0.049451
C37   C     C_R   0.998724 0.590979 0.022398 0.020415
C38   C     C_R   0.223171 0.327822 0.053220 -0.099587
C39   C     C_R   0.862922 0.679672 0.098103 -0.060298
C40   C     C_3   0.209083 0.102304 0.399481 -0.016688
C41   C     C_R   0.967396 0.671308 0.942015 -0.100979
C42   C     C_R   0.008078 0.669947 0.892499 -0.062882
C43   C     C_R   0.900166 0.678959 0.048425 -0.103858
C44   C     C_R   0.757392 0.820385 0.477943 -0.271700
C45   C     C_3   0.010101 0.776913 0.339546 0.357986
C46   C     C_R   0.431535 0.188128 0.519225 -0.290769
C47   C     C_R   0.408346 0.009967 0.535094 -0.099522
C48   C     C_R   0.345292 0.117572 0.538375 -0.009332
C49   C     C_R   0.575446 0.151652 0.493089 0.063372
C50   C     C_R   0.638588 0.040554 0.487371 -0.055465
C51   C     C_R   0.554124 0.969446 0.509498 -0.055985
C52   C     C_3   0.985295 0.776670 0.580796 0.278097
C53   C     C_R   0.616665 0.859370 0.504908 0.051730
C54   C     C_R   0.845601 0.888926 0.458153 -0.016045
C55   C     C_R   0.784737 0.998126 0.461586 -0.099245
C56   C     C_3   0.018150 0.800502 0.286011 -0.364136
C57   C     C_3   0.996895 0.894587 0.591219 -0.341068
C58   C     C_3   0.695744 0.312785 0.375970 0.315242
C59   C     C_3   0.695388 0.287162 0.319457 -0.364225
C60   C     C_3   0.118375 0.062300 0.311217 -0.143199
C61   C     C_3   0.015360 0.279339 0.767857 -0.170742
C62   C     C_3   0.481855 0.826095 0.343868 0.308782
C63   C     C_3   0.553372 0.867997 0.300589 -0.426891
C64   C     C_R   0.037540 0.419998 0.177868 0.597960
H1    H     H_    0.799190 0.169054 0.619317 0.100365
H2    H     H_    0.649618 0.014446 0.626714 0.089150
H3    H     H_    0.573748 0.265826 0.305404 0.132157
H4    H     H_    0.793678 0.219480 0.308740 0.126836
H5    H     H_    0.717987 0.357190 0.301840 0.070378
H6    H     H_    0.577006 0.198870 0.610707 -0.008203
H7    H     H_    0.545480 0.088861 0.679837 0.123497
H8    H     H_    0.367608 0.697978 0.609600 0.031283
H9    H     H_    0.581334 0.652093 0.627074 0.034823
H10   H     H_    0.353505 0.839349 0.682551 0.136700
H11   H     H_    0.396989 0.706753 0.700847 0.077552
H12   H     H_    0.331594 0.070727 0.383495 0.045902
H13   H     H_    0.561664 0.785752 0.701684 0.126241
H14   H     H_    0.765706 0.051890 0.683255 0.122698
H15   H     H_    0.306815 0.213452 0.735531 0.126611
H16   H     H_    0.082922 0.696979 0.342843 0.080170
H17   H     H_    0.878811 0.777039 0.347735 -0.075809
H18   H     H_    0.144569 0.811727 0.277651 0.148926
H19   H     H_    0.986391 0.731946 0.260661 0.130129
H20   H     H_    0.580397 0.811381 0.373383 -0.034274
H21   H     H_    0.387456 0.889012 0.361289 0.086693
H22   H     H_    0.611371 0.939249 0.314580 0.082596
H23   H     H_    0.197705 0.061253 0.432801 0.059469
H24   H     H_    0.454568 0.890116 0.272354 0.129135
H25   H     H_    0.127476 0.290796 0.662184 0.080207
H26   H     H_    0.648018 0.805802 0.282437 0.149582
H27   H     H_    0.154448 0.445583 0.284355 0.140163
H28   H     H_    0.568087 0.474988 0.756765 0.100798
H29   H     H_    0.449740 0.266967 0.883169 0.122033
H30   H     H_    0.382585 0.264148 0.967358 0.068632
H31   H     H_    0.299243 0.256295 0.037781 0.067863
H32   H     H_    0.650016 0.582565 0.245338 0.126673
H33   H     H_    0.786854 0.749642 0.115852 0.122651
H34   H     H_    0.060745 0.743851 0.548001 0.076393
H35   H     H_    0.879499 0.738328 0.956075 0.068779
H36   H     H_    0.326784 0.215728 0.647886 -0.066828
H37   H     H_    0.951872 0.735577 0.872366 0.122857
H38   H     H_    0.045598 0.538095 0.714246 0.127661
H39   H     H_    0.851021 0.750228 0.031874 0.068265
H40   H     H_    0.832872 0.557595 0.399583 0.079711
H41   H     H_    0.370332 0.437088 0.603392 0.075468
H42   H     H_    0.339479 0.958993 0.551763 0.102841
H43   H     H_    0.855291 0.048705 0.445494 0.095366
H44   H     H_    0.805310 0.736234 0.475480 0.055600
H45   H     H_    0.934361 0.928374 0.626189 0.125416
H46   H     H_    0.381768 0.272034 0.522628 0.070792
H47   H     H_    0.271874 0.084684 0.707424 0.102233
H48   H     H_    0.323281 0.238162 0.430304 -0.061533
H49   H     H_    0.108765 0.245399 0.444766 0.050963
H50   H     H_    0.985256 0.045671 0.373870 0.216889
H51   H     H_    0.004279 0.060739 0.287302 0.088463
H52   H     H_    0.197702 0.984130 0.304831 0.098725
H53   H     H_    0.184990 0.124641 0.300260 0.144739
H54   H     H_    0.855768 0.766299 0.572433 -0.000214
H55   H     H_    0.930239 0.872995 0.279213 0.109084
H56   H     H_    0.937754 0.937297 0.560044 0.087190
H57   H     H_    0.227171 0.260799 0.122147 0.118789
H58   H     H_    0.965578 0.159447 0.711481 0.245979
H59   H     H_    0.886679 0.283787 0.779749 0.137283
H60   H     H_    0.024314 0.350540 0.749008 0.114793
H61   H     H_    0.098307 0.278667 0.801698 0.112947
H62   H     H_    0.128332 0.906041 0.595793 0.125983
H63   H     H_    0.818306 0.331830 0.389457 0.003460
H64   H     H_    0.599888 0.382799 0.385295 0.080215
N1    N     N_R   0.941051 0.508647 0.201947 -0.419309
N2    N     N_R   0.268361 0.501688 0.795765 -0.425206
N3    N     N_2   0.075869 0.084502 0.363178 -0.391925
N4    N     N_2   0.060260 0.182823 0.734634 -0.415302
O1    O     O_2   0.907040 0.557650 0.617910 -0.465067
O2    O     O_2   0.188876 0.881470 0.463740 -0.483720
O3    O     O_3   0.077253 0.854686 0.371789 -0.601364
O4    O     O_3   0.139040 0.557570 0.557730 -0.497447
O5    O     O_3   0.571310 0.369620 0.475470 -0.486675
O6    O     O_2   0.348200 0.764910 0.523260 -0.469278
O7    O     O_3   0.535975 0.801772 0.603939 -0.648438
O8    O     O_2   0.422268 0.531756 0.324326 -0.493031
O9    O     O_3   0.403606 0.737589 0.325792 -0.578776
O10   O     O_2   0.084305 0.342366 0.200080 -0.605411
O11   O     O_2   0.431926 0.344167 0.802419 -0.608422
O12   O     O_3   0.662820 0.223713 0.396969 -0.640980
O13   O     O_2   0.799249 0.673878 0.195155 -0.630737
O14   O     O_2   0.104978 0.661085 0.796250 -0.597712
O15   O     O_3   0.684960 0.360550 0.588460 -0.484609
O16   O     O_2   0.850407 0.414135 0.671804 -0.504453
O17   O     O_3   0.039702 0.728568 0.623788 -0.624851
O18   O     O_3   0.675296 0.263304 0.677758 -0.596203
O19   O     O_2   0.841490 0.235060 0.476710 -0.475143
O20   O     O_3   0.099640 0.305100 0.564190 -0.482188
O21   O     O_2   0.005859 0.117669 0.534684 -0.492909
O22   O     O_3   0.124929 0.138454 0.626199 -0.618579
O23   O     O_2   0.282660 0.442310 0.382060 -0.448764
O24   O     O_3   0.050670 0.442340 0.442260 -0.505599
O25   O     O_3   0.504750 0.639360 0.411530 -0.461435
O26   O     O_3   0.158374 0.273625 0.373327 -0.621810
O27   O     O_3   0.618400 0.630290 0.524520 -0.475677
O28   O     O_3   0.090070 0.694820 0.435810 -0.485951
P1    P     P_3+3 0.072810 0.589830 0.610360 0.996229
P2    P     P_3+3 0.661990 0.251250 0.462170 0.976042
P3    P     P_3+3 0.144032 0.168006 0.565311 0.936943
P4    P     P_3+3 0.116900 0.410080 0.389630 0.990152
P5    P     P_3+3 0.049618 0.832239 0.433116 0.945660
P6    P     P_3+3 0.680391 0.384025 0.653490 0.968241
P7    P     P_3+3 0.534227 0.764764 0.539384 0.938472
P8    P     P_3+3 0.516586 0.622960 0.346539 0.965836

loop_
_geom_bond_atom_site_label_1
_geom_bond_atom_site_label_2
_ccdc_geom_bond_type
C59   H4    S    
C63   H26   S    
C19   C24   A    
O6    P7    D    
O25   P8    S    
C52   H54   S    
C1    H2    S    
Ba2   O28   S    
C28   O26   S    
C24   C25   A    
C15   C31   D    
C40   N3    S    
Ba2   O5    S    
C60   N3    S    
O5    P2    S    
C17   C19   A    
C22   C24   A    
C23   H8    S    
C35   C38   A    
C34   H11   S    
C15   H41   S    
C27   O11   D    
C36   C37   A    
C11   H57   S    
C27   N2    Am   
C64   O10   D    
C4    H25   S    
C16   H15   S    
C54   C55   A    
C16   H47   S    
C32   C33   S    
C45   H16   S    
C22   C27   A    
C60   H51   S    
C34   H10   S    
C8    N1    S    
C9    C13   A    
C25   C42   A    
C46   C49   A    
C55   H43   S    
Ba1   P2    S    
C6    C7    D    
C11   C38   A    
C44   C53   A    
C57   H45   S    
C12   H1    S    
C39   H33   S    
O20   P3    S    
Ba1   O15   S    
O4    P1    S    
O26   P4    S    
C47   H42   S    
C17   C35   A    
C7    C8    S    
Ba2   P4    S    
C62   H21   S    
Ba1   O5    S    
C14   H40   S    
C37   C43   A    
O27   P7    S    
C59   H5    S    
C57   H56   S    
C46   C48   A    
Ba1   O27   S    
C6    C14   D    
C52   H34   S    
O15   P6    S    
C58   O12   S    
C1    H14   S    
Ba2   O27   S    
C62   H20   S    
O18   P6    S    
C42   H37   S    
C43   H39   S    
C2    N1    Am   
C52   C57   S    
C51   C53   A    
C63   H24   S    
C4    C16   S    
C26   O14   D    
C62   O9    S    
O19   P2    D    
C49   C50   A    
Ba2   O4    S    
C61   N4    S    
C17   C20   A    
C13   C39   A    
C58   H64   S    
C38   H31   S    
C3    C5    S    
C18   C37   A    
Ba2   O25   S    
H50   N3    S    
C57   H62   S    
C2    O13   D    
C10   C64   A    
C32   H38   S    
C58   C59   S    
C23   H9    S    
C58   H63   S    
C9    C36   A    
C41   C42   A    
C41   H35   S    
C35   C36   A    
C56   H18   S    
C29   C30   S    
C21   C22   A    
O16   P6    D    
C45   O3    S    
C48   P3    S    
O7    P7    S    
C31   C32   D    
C49   P2    S    
C10   C11   A    
Ba1   O19   S    
C1    C12   S    
C60   H53   S    
C61   H59   S    
Ba2   O24   S    
C6    P4    S    
C5    C14   S    
C46   H46   S    
C40   H12   S    
C45   H17   S    
C30   P6    S    
C20   H30   S    
C12   O18   S    
C56   H19   S    
C7    H27   S    
O3    P5    S    
C18   C41   A    
C50   C51   A    
O24   P4    S    
C63   H22   S    
C64   N1    Am   
C28   H48   S    
C59   H3    S    
Ba1   O24   S    
C56   H55   S    
C31   P1    S    
C18   C19   A    
C12   H6    S    
C23   O7    S    
O9    P8    S    
C34   H13   S    
O23   P4    D    
C28   H49   S    
O1    P1    D    
C52   O17   S    
O2    P5    D    
C29   H28   S    
O17   P1    S    
H58   N4    S    
C40   H23   S    
Ba2   O6    S    
C62   C63   S    
C2    C13   A    
C44   H44   S    
C3    C8    D    
C45   C56   S    
O12   P2    S    
O22   P3    S    
O21   P3    D    
Ba2   O23   S    
C47   C51   A    
Ba1   Ba2   S    
C54   P5    S    
C21   H29   S    
C16   N4    S    
C29   C33   D    
C4    H36   S    
Ba1   O20   S    
C1    H7    S    
C4    O22   S    
C60   H52   S    
C61   H60   S    
C50   C55   A    
C23   C34   S    
O28   P5    S    
C3    H32   S    
Ba1   P1    S    
C47   C48   A    
C5    P8    S    
C44   C54   A    
C25   C26   A    
C15   C30   S    
C39   C43   A    
C20   C21   A    
C28   C40   S    
C26   N2    Am   
Ba1   O1    S    
C33   N2    S    
C53   P7    S    
C61   H61   S    
Ba1   O4    S    
O8    P8    D    
C9    C10   A    
