data_mof_unit_52029.cif
_audit_creation_date              2012-12-10T22:11:16-0500
_audit_creation_method            fapswitch 2.2
_symmetry_space_group_name_H-M    P1
_symmetry_Int_Tables_number       1
_space_group_crystal_system       triclinic
_cell_length_a                    12.117758
_cell_length_b                    12.307789
_cell_length_c                    22.957163
_cell_angle_alpha                 91.045126
_cell_angle_beta                  90.292129
_cell_angle_gamma                 90.594897
_cell_volume                      3423.0937616

loop_
_atom_site_label
_atom_site_type_symbol
_atom_type_description
_atom_site_fract_x
_atom_site_fract_y
_atom_site_fract_z
_atom_type_partial_charge
C1    C     C_R   0.656029 0.998179 0.579702 0.875421
C2    C     C_R   0.343978 0.001821 0.420295 0.878253
C3    C     C_R   0.903451 0.759807 0.158382 0.242886
C4    C     C_R   0.096533 0.240258 0.841600 0.246513
C5    C     C_R   0.081003 0.906517 0.163897 -0.187110
C6    C     C_R   0.919021 0.093499 0.836102 -0.187999
C7    C     C_R   0.077108 0.829207 0.119537 0.246938
C8    C     C_R   0.922917 0.170795 0.880466 0.247949
C9    C     C_R   0.903474 0.126530 0.174254 -0.155766
C10   C     C_R   0.096500 0.873580 0.825802 -0.156377
C11   C     C_R   0.902962 0.207552 0.133446 -0.146184
C12   C     C_R   0.097005 0.792550 0.866608 -0.145381
C13   C     C_R   0.165978 0.916647 0.294034 -0.161858
C14   C     C_R   0.833985 0.083339 0.705982 -0.155098
C15   C     C_R   0.245530 0.913880 0.337539 -0.162810
C16   C     C_R   0.754424 0.086095 0.662481 -0.159507
C17   C     C_R   0.834662 0.097058 0.301470 -0.177305
C18   C     C_R   0.165487 0.903029 0.698606 -0.171918
C19   C     C_R   0.754568 0.092303 0.343858 -0.227365
C20   C     C_R   0.245590 0.907745 0.656218 -0.224595
C21   C     C_3   0.999116 0.010705 0.248000 -0.040034
C22   C     C_3   0.000912 0.989341 0.751996 -0.037807
C23   C     C_R   0.657647 0.001171 0.422171 0.905494
C24   C     C_R   0.342352 0.998808 0.577820 0.912581
C25   C     C_R   0.100810 0.009935 0.287332 0.104275
C26   C     C_R   0.899223 0.990090 0.712656 0.097022
C27   C     C_R   0.261276 0.003906 0.374762 -0.027519
C28   C     C_R   0.738741 0.996099 0.625230 -0.033348
C29   C     C_R   0.903793 0.007877 0.291193 0.054117
C30   C     C_R   0.096256 0.992174 0.708813 0.031732
C31   C     C_R   0.745269 0.001321 0.379294 -0.157387
C32   C     C_R   0.254703 0.998581 0.620669 -0.173585
C33   C     C_R   0.997379 0.109985 0.209244 0.108914
C34   C     C_R   0.002644 0.890062 0.790763 0.111114
C35   C     C_R   0.997688 0.271201 0.125420 -0.022403
C36   C     C_R   0.002314 0.728828 0.874587 -0.022463
C37   C     C_R   0.995646 0.914897 0.204789 0.000673
C38   C     C_R   0.004358 0.085159 0.795196 -0.001872
C39   C     C_R   0.989888 0.752225 0.117563 -0.183696
C40   C     C_R   0.010118 0.247797 0.882433 -0.186128
C41   C     C_R   0.992406 0.663162 0.075022 0.925685
C42   C     C_R   0.007595 0.336842 0.924979 0.926778
C43   C     C_R   0.998791 0.352745 0.081018 0.866378
C44   C     C_R   0.001209 0.647263 0.918983 0.867569
C45   C     C_R   0.117782 0.099522 0.325539 -0.165421
C46   C     C_R   0.882309 0.900530 0.674423 -0.161761
C47   C     C_R   0.198309 0.097221 0.368072 -0.134929
C48   C     C_R   0.801780 0.902823 0.631889 -0.131747
C49   C     C_R   0.896087 0.918049 0.328108 -0.234618
C50   C     C_R   0.103890 0.081920 0.671823 -0.216221
C51   C     C_R   0.819930 0.914374 0.372842 0.419527
C52   C     C_R   0.179855 0.085352 0.626998 0.456997
C53   C     C_R   0.092820 0.173930 0.199820 -0.186822
C54   C     C_R   0.907232 0.826046 0.800145 -0.185651
C55   C     C_R   0.092322 0.254415 0.158763 -0.168963
C56   C     C_R   0.907720 0.745557 0.841204 -0.166120
C57   C     C_R   0.904822 0.843195 0.199712 -0.211654
C58   C     C_R   0.095155 0.156894 0.800256 -0.201216
H1    H     H_    0.209104 0.167483 0.396705 0.197288
H2    H     H_    0.791035 0.832591 0.603229 0.201146
H3    H     H_    0.952606 0.851314 0.322347 0.174553
H4    H     H_    0.047451 0.148786 0.677527 0.203935
H5    H     H_    0.170223 0.159584 0.221747 0.153065
H6    H     H_    0.829853 0.840333 0.778181 0.153130
H7    H     H_    0.833472 0.850594 0.227370 0.186544
H8    H     H_    0.166481 0.149536 0.772577 0.186584
H9    H     H_    0.149691 0.963503 0.165430 0.182568
H10   H     H_    0.850354 0.036488 0.834577 0.182535
H11   H     H_    0.830957 0.074985 0.178118 0.158716
H12   H     H_    0.168989 0.925174 0.821972 0.158554
H13   H     H_    0.152709 0.843587 0.268020 0.155599
H14   H     H_    0.847193 0.156380 0.732018 0.159843
H15   H     H_    0.842647 0.172104 0.278191 0.163915
H16   H     H_    0.157603 0.828046 0.721948 0.166478
H17   H     H_    0.166818 0.302074 0.152387 0.168760
H18   H     H_    0.833248 0.697843 0.847545 0.169170
H19   H     H_    0.829613 0.218106 0.107061 0.186984
H20   H     H_    0.170319 0.782044 0.893026 0.187059
H21   H     H_    0.294018 0.841106 0.342363 0.168305
H22   H     H_    0.705877 0.158836 0.657681 0.169532
H23   H     H_    0.700184 0.161070 0.349222 0.185865
H24   H     H_    0.300105 0.839061 0.650932 0.187800
H25   H     H_    0.066356 0.170781 0.323004 0.155287
H26   H     H_    0.933782 0.829302 0.676940 0.159332
O1    O     O_R   0.621380 0.090460 0.561410 -0.624849
O2    O     O_R   0.378620 0.909540 0.438590 -0.624048
O3    O     O_R   0.617150 0.909540 0.438590 -0.550677
O4    O     O_R   0.382850 0.090460 0.561410 -0.550814
O5    O     O_R   0.619720 0.093230 0.440890 -0.635298
O6    O     O_R   0.380280 0.906770 0.559110 -0.633115
O7    O     O_R   0.618800 0.906770 0.559110 -0.605474
O8    O     O_R   0.381200 0.093230 0.440890 -0.605907
O9    O     O_R   0.087590 0.627480 0.058790 -0.588755
O10   O     O_R   0.912410 0.372520 0.941210 -0.587896
O11   O     O_R   0.905660 0.383870 0.059980 -0.601393
O12   O     O_R   0.094340 0.616130 0.940020 -0.601149
O13   O     O_R   0.092570 0.390420 0.063230 -0.629903
O14   O     O_R   0.907430 0.609580 0.936770 -0.629634
O15   O     O_R   0.900680 0.620930 0.055550 -0.575343
O16   O     O_R   0.099320 0.379070 0.944450 -0.576452
Zn1   Zn    Zn3+2 0.501730 0.123520 0.501540 1.068675
Zn2   Zn    Zn3+2 0.498270 0.876480 0.498460 1.073584
Zn3   Zn    Zn3+2 0.125690 0.504390 0.002180 1.074507
Zn4   Zn    Zn3+2 0.874310 0.495610 0.997820 1.075382
S1    S     S_3+6 0.828854 0.804444 0.421618 0.049073
O17   O     O_2   0.821941 0.846317 0.483357 -0.274724
O18   O     O_2   0.735255 0.725671 0.410105 -0.289066
O19   O     O_3   0.949284 0.739035 0.413473 -0.528257
H27   H     H_    0.936043 0.684822 0.381711 0.359364
S2    S     S_3+6 0.170430 0.194823 0.578018 0.036715
O20   O     O_2   0.262898 0.274498 0.590198 -0.273991
O21   O     O_2   0.178341 0.152583 0.516365 -0.315288
O22   O     O_3   0.049315 0.258773 0.586321 -0.556957
H28   H     H_    0.050734 0.317589 0.557443 0.393278
Br1   Br    Br    0.782536 0.657588 0.163011 -0.465394
Br2   Br    Br    0.217431 0.342500 0.836975 -0.452489
Br3   Br    Br    0.190250 0.840220 0.061200 -0.466512
Br4   Br    Br    0.809814 0.159739 0.938822 -0.465910

loop_
_geom_bond_atom_site_label_1
_geom_bond_atom_site_label_2
_ccdc_geom_bond_type
C16   C28   A    
C17   H15   S    
C56   H18   S    
C5    C37   A    
C17   C29   A    
C7    Br3   S    
C5    H9    S    
C19   C31   A    
O9    Zn3   S    
O4    Zn1   S    
C8    Br4   S    
C39   C41   S    
C29   C49   A    
S1    O18   D    
C44   O12   A    
C9    H11   S    
C20   H24   S    
C21   C33   S    
C22   C38   S    
O19   H27   S    
C45   C47   A    
S2    O20   D    
C32   C52   A    
C11   H19   S    
C38   C58   A    
C15   C27   A    
C58   H8    S    
O6    Zn2   S    
C4    C40   A    
C49   C51   A    
C12   H20   S    
C1    C28   S    
C50   C52   A    
C6    C38   A    
C2    C27   S    
C18   C30   A    
C12   C36   A    
C35   C43   S    
C55   H17   S    
C6    H10   S    
O15   Zn4   S    
C30   C50   A    
O10   Zn4   S    
C1    O7    A    
C23   O3    A    
C9    C33   A    
C13   C25   A    
C45   H25   S    
C44   O14   A    
C48   H2    S    
C46   C48   A    
C53   C55   A    
C33   C53   A    
C22   C34   S    
S1    O19   S    
C54   C56   A    
C49   H3    S    
C35   C55   A    
C57   H7    S    
C5    C7    A    
C6    C8    A    
C13   H13   S    
C21   C29   S    
O16   Zn3   S    
C16   H22   S    
C23   C31   S    
C24   C32   S    
C36   C56   A    
C42   O16   A    
O3    Zn2   S    
C24   O4    A    
C43   O11   A    
C52   S2    S    
C51   S1    S    
C23   O5    A    
C10   C34   A    
C14   C26   A    
C2    O8    A    
C9    C11   A    
S2    O22   S    
O13   Zn3   S    
C10   C12   A    
O8    Zn1   S    
C46   H26   S    
C10   H12   S    
C34   C54   A    
C13   C15   A    
C50   H4    S    
C14   C16   A    
C36   C44   S    
C1    O1    A    
O7    Zn2   S    
O2    Zn2   S    
C25   C45   A    
O1    Zn1   S    
O11   Zn4   S    
O22   H28   S    
C20   C32   A    
C27   C47   A    
C21   C25   S    
C28   C48   A    
C22   C30   S    
O5    Zn1   S    
C42   O10   A    
C14   H14   S    
C4    Br2   S    
C43   O13   A    
C31   C51   A    
C24   O6    A    
C41   O15   A    
C15   H21   S    
S1    O17   D    
C41   O9    A    
C11   C35   A    
C3    Br1   S    
C53   H5    S    
C54   H6    S    
O14   Zn4   S    
C40   C42   S    
C17   C19   A    
C3    C57   A    
C2    O2    A    
C18   C20   A    
S2    O21   D    
C26   C46   A    
C47   H1    S    
C21   C37   S    
C18   H16   S    
C22   C26   S    
O12   Zn3   S    
C4    C58   A    
C7    C39   A    
C8    C40   A    
C19   H23   S    
C37   C57   A    
C3    C39   A    
