data_mof_unit_31799.cif
_audit_creation_date              2012-12-10T20:06:29-0500
_audit_creation_method            fapswitch 2.2
_symmetry_space_group_name_H-M    P1
_symmetry_Int_Tables_number       1
_space_group_crystal_system       triclinic
_cell_length_a                    19.228861
_cell_length_b                    18.465522
_cell_length_c                    10.622081
_cell_angle_alpha                 89.587453
_cell_angle_beta                  89.412222
_cell_angle_gamma                 89.782924
_cell_volume                      3771.27020564

loop_
_atom_site_label
_atom_site_type_symbol
_atom_type_description
_atom_site_fract_x
_atom_site_fract_y
_atom_site_fract_z
_atom_type_partial_charge
C1    C     C_R   0.365560 0.500265 0.500249 0.825638
C2    C     C_R   0.634219 0.499859 0.503125 0.878904
C3    C     C_R   0.852273 0.501993 0.532269 0.192002
C4    C     C_R   0.146277 0.506594 0.518597 0.178876
C5    C     C_R   0.813043 0.556060 0.590985 -0.211768
C6    C     C_R   0.183066 0.568615 0.482839 -0.105662
C7    C     C_R   0.741293 0.555524 0.580680 -0.186302
C8    C     C_R   0.254914 0.566198 0.475676 -0.246979
C9    C     C_R   0.708953 0.499533 0.515235 -0.036874
C10   C     C_R   0.290213 0.501598 0.504034 -0.021860
C11   C     C_R   0.964233 0.491096 0.637895 -0.265795
C12   C     C_R   0.036174 0.491772 0.634325 -0.260772
C13   C     C_R   0.070988 0.508508 0.521710 -0.069850
C14   C     C_R   0.927130 0.507377 0.529019 -0.071939
C15   C     C_R   0.034024 0.525069 0.411537 0.347499
C16   C     C_R   0.961206 0.527520 0.416526 0.397939
C17   C     C_R   0.557731 0.726016 0.460192 -0.004941
C18   C     C_R   0.442469 0.726233 0.540456 -0.005525
C19   C     C_R   0.559140 0.802005 0.460732 -0.243456
C20   C     C_R   0.441463 0.802251 0.541126 -0.242677
C21   C     C_R   0.500405 0.841190 0.501212 0.169101
C22   C     C_R   0.499079 0.500325 0.260369 0.955037
C23   C     C_R   0.498420 0.499719 0.739625 0.981669
C24   C     C_R   0.449933 0.961831 0.432516 0.424897
C25   C     C_R   0.551008 0.961122 0.568373 0.427262
C26   C     C_R   0.449435 0.038076 0.434772 -0.281251
C27   C     C_R   0.551496 0.037392 0.565365 -0.286944
C28   C     C_R   0.500445 0.076882 0.499932 -0.010637
C29   C     C_R   0.500447 0.922354 0.500749 -0.133015
C30   C     C_R   0.562581 0.197547 0.488328 -0.286201
C31   C     C_R   0.437887 0.197670 0.511437 -0.281574
C32   C     C_R   0.561236 0.273606 0.487850 0.018360
C33   C     C_R   0.438905 0.273721 0.511881 0.004996
C34   C     C_R   0.500313 0.158223 0.499898 0.177875
C35   C     C_R   0.378186 0.554769 0.133013 -0.123833
C36   C     C_R   0.377631 0.554100 0.870842 -0.133784
C37   C     C_R   0.320509 0.581037 0.068346 -0.146227
C38   C     C_R   0.320211 0.580676 0.937405 -0.141239
C39   C     C_R   0.436853 0.527757 0.935172 0.030020
C40   C     C_R   0.437219 0.528257 0.066767 0.037464
C41   C     C_R   0.496612 0.501188 0.128197 -0.297946
C42   C     C_R   0.495231 0.498761 0.871815 -0.291290
C43   C     C_R   0.554568 0.473607 0.063463 0.368208
C44   C     C_R   0.551837 0.468016 0.934295 0.341974
C45   C     C_R   0.748283 0.443068 0.463099 -0.257474
C46   C     C_R   0.253137 0.439446 0.539661 -0.197918
C47   C     C_R   0.820166 0.444969 0.469858 -0.105162
C48   C     C_R   0.181158 0.442091 0.547515 -0.210600
H1    H     H_    0.602954 0.696328 0.427690 0.129775
H2    H     H_    0.397136 0.696679 0.572597 0.127584
H3    H     H_    0.605408 0.830014 0.428258 0.159864
H4    H     H_    0.395287 0.830454 0.573759 0.159577
H5    H     H_    0.409809 0.066895 0.382550 0.163677
H6    H     H_    0.591041 0.065675 0.617478 0.164824
H7    H     H_    0.609515 0.302871 0.477515 0.132957
H8    H     H_    0.390493 0.303062 0.521961 0.127466
H9    H     H_    0.375764 0.555130 0.234705 0.135804
H10   H     H_    0.374684 0.553531 0.769256 0.131130
H11   H     H_    0.275831 0.601394 0.120048 0.130338
H12   H     H_    0.275184 0.600520 0.887248 0.133396
H13   H     H_    0.723594 0.399150 0.413575 0.153435
H14   H     H_    0.279678 0.389315 0.562704 0.146115
H15   H     H_    0.850852 0.402917 0.425021 0.132620
H16   H     H_    0.152572 0.393866 0.574479 0.137773
H17   H     H_    0.838128 0.599834 0.640228 0.133034
H18   H     H_    0.156074 0.618639 0.460593 0.144552
H19   H     H_    0.711114 0.598593 0.623667 0.154493
H20   H     H_    0.282742 0.614707 0.447660 0.151947
H21   H     H_    0.937384 0.476636 0.724634 0.171988
H22   H     H_    0.064843 0.478747 0.718899 0.173174
N1    N     N_R   0.500000 0.689440 0.500000 -0.087508
N2    N     N_R   0.500000 0.310560 0.500000 -0.091981
O1    O     O_R   0.398180 0.560840 0.499970 -0.644876
O2    O     O_R   0.601820 0.560840 0.500030 -0.635813
O3    O     O_R   0.398180 0.439210 0.499910 -0.637121
O4    O     O_R   0.601820 0.439210 0.500090 -0.630007
O5    O     O_R   0.500000 0.560830 0.316760 -0.634529
O6    O     O_R   0.500000 0.560830 0.683240 -0.620762
O7    O     O_R   0.500000 0.439200 0.316700 -0.584890
O8    O     O_R   0.500000 0.439200 0.683300 -0.615190
Zn1   Zn    Zn3+2 0.500000 0.581210 0.500000 0.934632
Zn2   Zn    Zn3+2 0.500000 0.418790 0.500000 0.952618
O9    O     O_3   0.612548 0.448347 0.126876 -0.646146
C49   C     C_3   0.657650 0.506669 0.153129 0.088845
H23   H     H_    0.686178 0.492122 0.239823 0.164546
H24   H     H_    0.629842 0.558511 0.173608 0.115002
C50   C     C_3   0.710646 0.517757 0.045960 -0.308661
H25   H     H_    0.732602 0.464535 0.017175 0.246984
H26   H     H_    0.684514 0.542908 0.963674 0.237294
C51   C     C_3   0.769919 0.566819 0.086124 -0.989647
H27   H     H_    0.749332 0.620210 0.116841 0.264736
H28   H     H_    0.806362 0.575435 0.005688 0.266332
H29   H     H_    0.798917 0.541123 0.164594 0.299036
O10   O     O_3   0.607947 0.440353 0.866959 -0.650761
C52   C     C_3   0.605997 0.363924 0.872323 0.128930
H30   H     H_    0.554383 0.343167 0.842333 0.144527
H31   H     H_    0.616732 0.344183 0.969456 0.175871
C53   C     C_3   0.661878 0.333801 0.783656 -0.322975
H32   H     H_    0.652560 0.354118 0.686641 0.242401
H33   H     H_    0.713832 0.352996 0.813647 0.223029
C54   C     C_3   0.661531 0.251161 0.783159 -1.000043
H34   H     H_    0.673535 0.229631 0.878431 0.269288
H35   H     H_    0.701540 0.231115 0.715688 0.267356
H36   H     H_    0.609924 0.230787 0.753885 0.271904
O11   O     O_3   0.398852 0.926248 0.366745 -0.643322
C55   C     C_3   0.424894 0.909542 0.245510 0.082161
H37   H     H_    0.474596 0.878402 0.250835 0.145496
H38   H     H_    0.433835 0.960210 0.190149 0.133254
C56   C     C_3   0.371516 0.863271 0.177548 -0.304654
H39   H     H_    0.358848 0.814862 0.236178 0.230561
H40   H     H_    0.323049 0.895256 0.163960 0.220048
C57   C     C_3   0.398971 0.838230 0.049692 -0.980835
H41   H     H_    0.413763 0.885490 0.990024 0.260026
H42   H     H_    0.358009 0.807179 0.000971 0.269020
H43   H     H_    0.444921 0.802424 0.062341 0.270368
O12   O     O_3   0.601725 0.924784 0.635317 -0.642316
C58   C     C_3   0.576009 0.910721 0.758059 0.082096
H44   H     H_    0.527273 0.878252 0.755205 0.145778
H45   H     H_    0.565472 0.962450 0.808405 0.132832
C59   C     C_3   0.630542 0.867650 0.831022 -0.300585
H46   H     H_    0.643932 0.817500 0.778608 0.229513
H47   H     H_    0.678427 0.900699 0.839760 0.221687
C60   C     C_3   0.604037 0.846856 0.962254 -0.991763
H48   H     H_    0.588972 0.895959 0.016029 0.262105
H49   H     H_    0.645629 0.817783 0.014124 0.267181
H50   H     H_    0.558436 0.810492 0.955012 0.269969
H51   H     H_    0.611971 0.169783 0.477892 0.143371
H52   H     H_    0.388627 0.169971 0.522016 0.138638
O13   O     O_3   0.069185 0.541699 0.300801 -0.664340
C61   C     C_3   0.075835 0.478417 0.227935 0.101029
H53   H     H_    0.023712 0.458933 0.198649 0.166599
H54   H     H_    0.102854 0.434696 0.281699 0.135356
C62   C     C_3   0.118989 0.496148 0.110156 -0.318617
H55   H     H_    0.093389 0.540674 0.056748 0.222135
H56   H     H_    0.171405 0.514734 0.138610 0.227318
C63   C     C_3   0.126970 0.430449 0.024860 -0.983649
H57   H     H_    0.153475 0.385570 0.075683 0.269120
H58   H     H_    0.158750 0.445337 0.940754 0.268055
H59   H     H_    0.075210 0.411848 0.993020 0.261942
O14   O     O_3   0.922855 0.541297 0.309068 -0.661453
C64   C     C_3   0.926570 0.615543 0.275241 0.104993
H60   H     H_    0.917600 0.619385 0.172255 0.173163
H61   H     H_    0.978427 0.640247 0.291773 0.159562
C65   C     C_3   0.870078 0.659224 0.343929 -0.381346
H62   H     H_    0.819294 0.631086 0.337124 0.248145
H63   H     H_    0.883779 0.663725 0.444846 0.211812
C66   C     C_3   0.862959 0.735275 0.288425 -0.966713
H64   H     H_    0.913046 0.764721 0.294964 0.265748
H65   H     H_    0.822509 0.765732 0.341642 0.268761
H66   H     H_    0.847209 0.732503 0.188244 0.265585

loop_
_geom_bond_atom_site_label_1
_geom_bond_atom_site_label_2
_ccdc_geom_bond_type
C50   H25   S    
C9    C45   A    
C54   H34   S    
C43   O9    S    
C66   H64   S    
C49   C50   S    
C57   H42   S    
C27   H6    S    
C60   H48   S    
C32   N2    A    
C23   C42   S    
C46   H14   S    
C66   H65   S    
C24   C26   A    
C22   O7    A    
C36   H10   S    
C64   H61   S    
C47   H15   S    
C11   C14   A    
C60   H49   S    
C22   C41   S    
C55   H37   S    
C15   C16   A    
O12   C58   S    
C45   H13   S    
C4    C13   S    
C24   C29   A    
C33   N2    A    
C64   H60   S    
C52   H30   S    
C10   C46   A    
C62   C63   S    
C31   C33   A    
C23   O8    A    
C32   H7    S    
C2    O2    A    
C59   C60   S    
C33   H8    S    
C28   C34   S    
C54   H35   S    
C58   C59   S    
C41   C43   A    
C16   O14   S    
C42   C44   A    
C31   H52   S    
C65   C66   S    
O1    Zn1   S    
C57   H41   S    
C59   H47   S    
C39   C42   A    
C45   C47   A    
C25   C29   A    
C46   C48   A    
C52   C53   S    
C30   C34   A    
C1    O3    A    
C25   O12   S    
C66   H66   S    
C44   O10   S    
C49   H23   S    
C5    H17   S    
C64   C65   S    
C17   H1    S    
C39   C40   A    
C5    C7    A    
C63   H57   S    
C60   H50   S    
C6    C8    A    
C21   C29   S    
C63   H59   S    
C61   H54   S    
C43   C44   A    
C37   C38   A    
C51   H28   S    
O9    C49   S    
C15   O13   S    
O5    Zn1   S    
C20   C21   A    
C52   H31   S    
C63   H58   S    
C31   C34   A    
O14   C64   S    
C37   H11   S    
C3    C14   S    
C38   H12   S    
C65   H63   S    
C40   C41   A    
C17   N1    A    
C54   H36   S    
C53   H33   S    
C13   C15   A    
C62   H55   S    
C14   C16   A    
C56   C57   S    
C4    C6    A    
O2    Zn1   S    
O4    Zn2   S    
C36   C38   A    
C26   H5    S    
C2    O4    A    
C59   H46   S    
C18   H2    S    
C51   H29   S    
O13   C61   S    
C4    C48   A    
C35   C37   A    
C18   N1    A    
C7    C9    A    
C12   H22   S    
C30   H51   S    
C19   C21   A    
C36   C39   A    
C1    C10   S    
C22   O5    A    
C49   H24   S    
C65   H62   S    
C3    C5    A    
O7    Zn2   S    
C11   C12   A    
C11   H21   S    
O3    Zn2   S    
C8    H20   S    
C25   C27   A    
C53   C54   S    
O11   C55   S    
C26   C28   A    
C35   H9    S    
C1    O1    A    
C58   H45   S    
C61   H53   S    
C20   H4    S    
C58   H44   S    
C30   C32   A    
O6    Zn1   S    
C51   H27   S    
C55   H38   S    
C56   H40   S    
C3    C47   A    
C17   C19   A    
O8    Zn2   S    
C35   C40   A    
C18   C20   A    
C23   O6    A    
O10   C52   S    
C48   H16   S    
C7    H19   S    
C61   C62   S    
C19   H3    S    
C6    H18   S    
C12   C13   A    
C8    C10   A    
C53   H32   S    
C50   C51   S    
C27   C28   A    
C62   H56   S    
C50   H26   S    
C24   O11   S    
C56   H39   S    
C2    C9    S    
C57   H43   S    
N2    Zn2   S    
N1    Zn1   S    
C55   C56   S    
