data_mof_unit_40962.cif
_audit_creation_date              2012-12-10T18:58:45-0500
_audit_creation_method            fapswitch 2.2
_symmetry_space_group_name_H-M    P1
_symmetry_Int_Tables_number       1
_space_group_crystal_system       triclinic
_cell_length_a                    13.072755
_cell_length_b                    10.868001
_cell_length_c                    9.598461
_cell_angle_alpha                 89.490203
_cell_angle_beta                  95.851113
_cell_angle_gamma                 93.000517
_cell_volume                      1354.72544557

loop_
_atom_site_label
_atom_site_type_symbol
_atom_type_description
_atom_site_fract_x
_atom_site_fract_y
_atom_site_fract_z
_atom_type_partial_charge
C1    C     C_R   0.495530 0.262497 0.499752 0.815952
C2    C     C_R   0.026133 0.499348 0.570358 0.039182
C3    C     C_R   0.971109 0.505105 0.436392 0.035526
C4    C     C_R   0.864147 0.499129 0.422826 -0.122990
C5    C     C_R   0.864594 0.479467 0.674183 -0.114091
C6    C     C_R   0.971425 0.482164 0.688606 -0.103036
C7    C     C_R   0.491983 0.062161 0.623331 -0.063795
C8    C     C_R   0.488214 0.128876 0.498399 -0.065341
C9    C     C_R   0.472812 0.065301 0.371103 -0.186569
C10   C     C_R   0.464683 0.937109 0.369251 0.388260
C11   C     C_R   0.483428 0.870126 0.495851 -0.095425
C12   C     C_R   0.300496 0.504448 0.474034 0.905444
C13   C     C_R   0.493756 0.934478 0.623065 -0.088413
C14   C     C_3   0.424299 0.923281 0.738899 0.250930
C15   C     C_3   0.418009 0.062483 0.732800 0.213360
C16   C     C_R   0.581673 0.552527 0.084178 0.064332
C17   C     C_R   0.424760 0.436782 0.063677 0.503763
C18   C     C_R   0.424575 0.437360 0.916916 0.479778
C19   C     C_R   0.582083 0.551299 0.936967 0.057784
C20   C     C_3   0.623102 0.681423 0.932583 0.191043
C21   C     C_3   0.620199 0.684580 0.090982 0.175160
C22   C     C_R   0.493239 0.736936 0.498327 0.881073
C23   C     C_R   0.698809 0.496876 0.526056 0.842352
C24   C     C_R   0.810622 0.491682 0.541554 -0.064592
C25   C     C_R   0.187061 0.511431 0.460294 -0.185059
C26   C     C_R   0.022970 0.519467 0.317214 -0.181035
C27   C     C_R   0.129744 0.523972 0.327538 0.349884
C28   C     C_R   0.134364 0.507792 0.582777 0.362183
Cu1   Cu    Cu3+1 0.499990 0.499980 0.640670 1.027748
Cu2   Cu    Cu3+1 0.500010 0.500020 0.359330 1.034642
H1    H     H_    0.822805 0.501393 0.319350 0.200268
H2    H     H_    0.464909 0.893694 0.839529 0.089617
H3    H     H_    0.452043 0.109432 0.830403 0.098113
H4    H     H_    0.568059 0.741814 0.874948 0.103127
H5    H     H_    0.562282 0.745960 0.122405 0.162185
H6    H     H_    0.824421 0.467504 0.766964 0.198443
H7    H     H_    0.980106 0.528211 0.215016 0.207910
H8    H     H_    0.009932 0.469929 0.792645 0.188153
H9    H     H_    0.461184 0.115025 0.272883 0.187305
N1    N     N_R   0.500660 0.500930 0.148010 -0.285902
N2    N     N_R   0.500660 0.500890 0.852110 -0.299520
O1    O     O_R   0.500000 0.319640 0.618810 -0.616493
O2    O     O_R   0.500010 0.319680 0.381230 -0.634002
O3    O     O_R   0.348990 0.499960 0.599490 -0.520340
O4    O     O_R   0.349000 0.500000 0.361910 -0.547198
O5    O     O_R   0.499990 0.680320 0.618770 -0.571167
O6    O     O_R   0.500000 0.680360 0.381190 -0.537436
O7    O     O_R   0.651000 0.500000 0.638090 -0.560239
O8    O     O_R   0.651010 0.500040 0.400510 -0.563292
Cl1   Cl    Cl    0.294116 0.115144 0.666726 -0.456574
O9    O     O_3   0.345624 0.368970 0.116485 -0.618113
H10   H     H_    0.369966 0.339031 0.209814 0.358256
O10   O     O_3   0.345423 0.370477 0.843290 -0.589913
H11   H     H_    0.371170 0.341088 0.758144 0.378345
Cl2   Cl    Cl    0.747886 0.693600 0.871298 -0.503139
Cl3   Cl    Cl    0.741489 0.707793 0.193362 -0.513175
Cl4   Cl    Cl    0.184957 0.554672 0.169863 -0.447144
O11   O     O_3   0.189519 0.513643 0.713261 -0.612637
H12   H     H_    0.156068 0.570968 0.771971 0.366668
Cl5   Cl    Cl    0.413824 0.868525 0.209780 -0.558986
Cl6   Cl    Cl    0.306512 0.833113 0.693756 -0.451170

loop_
_geom_bond_atom_site_label_1
_geom_bond_atom_site_label_2
_ccdc_geom_bond_type
C21   Cl3   S    
C10   Cl5   S    
C23   C24   S    
C6    H8    S    
C26   H7    S    
Cu1   Cu2   S    
C21   H5    S    
C28   O11   S    
Cu1   O1    S    
C25   C27   A    
C1    C8    S    
C9    C10   A    
C12   C25   S    
C11   C22   S    
C19   C20   S    
C7    C13   A    
Cu1   O5    S    
C20   H4    S    
C17   O9    S    
C7    C15   S    
C22   O6    A    
Cu2   N1    S    
C7    C8    A    
C12   O3    A    
O10   H11   S    
C25   C28   A    
C11   C13   A    
C26   C27   A    
C2    C6    A    
C5    C24   A    
C16   N1    A    
C20   Cl2   S    
C22   O5    A    
Cu2   O8    S    
C15   H3    S    
C17   C18   A    
C2    C3    A    
C16   C19   A    
Cu1   O3    S    
C5    C6    A    
C4    C24   A    
Cu2   O2    S    
C23   O8    A    
C4    H1    S    
C10   C11   A    
Cu1   O7    S    
C15   Cl1   S    
O9    H10   S    
C5    H6    S    
Cu2   O6    S    
C9    H9    S    
C1    O1    A    
C20   C21   S    
C27   Cl4   S    
C18   N2    A    
C14   C15   S    
C12   O4    A    
C2    C28   A    
C23   O7    A    
Cu2   O4    S    
C18   O10   S    
Cu1   N2    S    
O11   H12   S    
C13   C14   S    
C14   Cl6   S    
C16   C21   S    
C1    O2    A    
C3    C26   A    
C3    C4    A    
C19   N2    A    
C14   H2    S    
C8    C9    A    
C17   N1    A    
