data_mof_unit_18679.cif
_audit_creation_date              2012-12-11T17:09:36-0500
_audit_creation_method            fapswitch 2.2
_symmetry_space_group_name_H-M    P1
_symmetry_Int_Tables_number       1
_space_group_crystal_system       triclinic
_cell_length_a                    14.812307
_cell_length_b                    6.949811
_cell_length_c                    13.499274
_cell_angle_alpha                 89.999172
_cell_angle_beta                  99.859993
_cell_angle_gamma                 89.999033
_cell_volume                      1369.12581079

loop_
_atom_site_label
_atom_site_type_symbol
_atom_type_description
_atom_site_fract_x
_atom_site_fract_y
_atom_site_fract_z
_atom_type_partial_charge
O1    O     O_R   0.586930 0.505770 0.416350 -0.537306
O2    O     O_R   0.413070 0.005770 0.583650 -0.537281
O3    O     O_R   0.397900 0.173100 0.389630 -0.534369
O4    O     O_R   0.602100 0.673100 0.610370 -0.534379
C1    C     C_R   0.364374 0.345405 0.362830 0.751105
C2    C     C_R   0.635626 0.845402 0.637169 0.750942
O5    O     O_R   0.585280 0.175870 0.404330 -0.545033
O6    O     O_R   0.414720 0.675870 0.595670 -0.544990
O7    O     O_R   0.601790 0.008380 0.598460 -0.536781
O8    O     O_R   0.398210 0.508380 0.401540 -0.536755
C3    C     C_R   0.615109 0.344802 0.383479 0.705293
C4    C     C_R   0.384893 0.844804 0.616524 0.705292
O9    O     O_3   0.505200 0.340120 0.563670 -0.373417
O10   O     O_3   0.494800 0.840120 0.436330 -0.373435
V1    V     V_3+5 0.499040 0.064180 0.488190 1.461283
V2    V     V_3+5 0.500960 0.564180 0.511810 1.461328
C5    C     C_R   0.317168 0.004130 0.754346 0.050979
C6    C     C_R   0.682910 0.504294 0.245762 0.051126
C7    C     C_R   0.316899 0.853675 0.685255 -0.104798
C8    C     C_R   0.683103 0.353672 0.314747 -0.104785
C9    C     C_R   0.245079 0.720004 0.677202 -0.199336
C10   C     C_R   0.754872 0.219872 0.322732 -0.199327
H1    H     H_    0.237616 0.617269 0.616750 0.148390
H2    H     H_    0.762289 0.117006 0.383122 0.148205
C11   C     C_R   0.177189 0.731791 0.738588 -0.044571
C12   C     C_R   0.822777 0.231704 0.261366 -0.044394
C13   C     C_R   0.181495 0.877553 0.812707 -0.135523
C14   C     C_R   0.818503 0.377549 0.187293 -0.135483
C15   C     C_R   0.252708 0.012740 0.819351 0.051212
C16   C     C_R   0.747358 0.512891 0.180736 0.051180
C17   C     C_3   0.241400 0.225121 0.805232 -0.257676
C18   C     C_3   0.758825 0.725203 0.195041 -0.257767
C19   C     C_3   0.308600 0.215139 0.731943 -0.252133
C20   C     C_3   0.691649 0.715223 0.268349 -0.252184
H3    H     H_    0.170144 0.265243 0.772171 0.153518
H4    H     H_    0.830124 0.764981 0.228113 0.153621
H5    H     H_    0.373980 0.294989 0.754526 0.135514
H6    H     H_    0.626332 0.795343 0.245859 0.135579
C21   C     C_1   0.783519 0.877124 0.782842 -0.140355
C22   C     C_1   0.216481 0.377121 0.217158 -0.140261
C23   C     C_1   0.716176 0.860089 0.716801 -0.146516
C24   C     C_1   0.283824 0.360092 0.283199 -0.146534
O11   O     O_R   0.101720 0.231700 0.098560 -0.536497
O12   O     O_R   0.898280 0.731700 0.901440 -0.536497
O13   O     O_R   0.914700 0.558980 0.095690 -0.544610
O14   O     O_R   0.085300 0.058980 0.904310 -0.544587
C25   C     C_R   0.886552 0.389743 0.118468 0.698091
C26   C     C_R   0.113448 0.889744 0.881532 0.698060
O15   O     O_R   0.102080 0.561590 0.110390 -0.536512
O16   O     O_R   0.897920 0.061590 0.889610 -0.536485
O17   O     O_R   0.086950 0.728940 0.916330 -0.535961
O18   O     O_R   0.913050 0.228940 0.083670 -0.535902
C27   C     C_R   0.135979 0.391923 0.137479 0.751542
C28   C     C_R   0.864020 0.891926 0.862521 0.751602
O19   O     O_3   0.994770 0.394510 0.936380 -0.366323
O20   O     O_3   0.005230 0.894510 0.063620 -0.366314
V3    V     V_3+5 0.000970 0.670520 0.011800 1.497365
V4    V     V_3+5 0.999030 0.170520 0.988200 1.497451
C29   C     C_1   0.097771 0.608909 0.715299 0.302227
N1    N     N_1   0.033803 0.511366 0.696352 -0.336550
C30   C     C_1   0.902205 0.108844 0.284664 0.302139
N2    N     N_1   0.966186 0.011334 0.303622 -0.336673
C31   C     C_1   0.276963 0.331364 0.897951 0.343493
N3    N     N_1   0.304769 0.415367 0.970824 -0.373003
C32   C     C_1   0.723322 0.831856 0.102428 0.343592
N4    N     N_1   0.695569 0.916205 0.029649 -0.372969
C33   C     C_1   0.264026 0.250269 0.627046 0.354337
N5    N     N_1   0.228986 0.274767 0.544559 -0.367247
C34   C     C_1   0.736293 0.749969 0.373260 0.354077
N6    N     N_1   0.771390 0.774215 0.455745 -0.367026

loop_
_geom_bond_atom_site_label_1
_geom_bond_atom_site_label_2
_ccdc_geom_bond_type
C13   C26   S    
C1    C24   S    
C14   C25   S    
C13   C15   A    
C5    C15   A    
O1    C3    A    
O2    C4    A    
C2    O7    A    
C21   C23   T    
O5    C3    A    
O13   V3    S    
O16   C28   A    
C18   H4    S    
C7    C9    A    
C12   C30   S    
C21   C28   S    
O15   V3    S    
O20   V3    S    
C17   H3    S    
O11   V4    S    
O11   C27   A    
C26   O17   A    
C2    C23   S    
C17   C19   S    
C6    C16   A    
C6    C8    A    
C22   C24   T    
C29   N1    T    
O6    V2    S    
O14   V4    S    
C34   N6    T    
C5    C19   S    
O13   C25   A    
C9    H1    S    
O14   C26   A    
C3    C8    S    
C33   N5    T    
O16   V4    S    
C17   C31   S    
O4    C2    A    
O5    V1    S    
C19   H5    S    
C18   C20   S    
O4    V2    S    
O12   V3    S    
O6    C4    A    
O1    V2    S    
O2    V1    S    
C6    C20   S    
C20   C34   S    
O18   V4    S    
O17   V3    S    
C8    C10   A    
C32   N4    T    
O19   V3    S    
O10   V2    S    
O19   V4    S    
O3    V1    S    
C19   C33   S    
C9    C11   A    
C20   H6    S    
O3    C1    A    
C25   O18   A    
C11   C13   A    
C12   C14   A    
O9    V1    S    
O7    V1    S    
C1    O8    A    
C15   C17   S    
O8    V2    S    
C16   C18   S    
O15   C27   A    
C4    C7    S    
C14   C16   A    
C5    C7    A    
O20   V4    S    
C10   H2    S    
C30   N2    T    
C31   N3    T    
O12   C28   A    
C22   C27   S    
C10   C12   A    
O9    V2    S    
O10   V1    S    
C11   C29   S    
C18   C32   S    
