data_mof_unit_55550.cif
_audit_creation_date              2012-12-10T18:29:35-0500
_audit_creation_method            fapswitch 2.2
_symmetry_space_group_name_H-M    P1
_symmetry_Int_Tables_number       1
_space_group_crystal_system       triclinic
_cell_length_a                    11.563381
_cell_length_b                    15.020676
_cell_length_c                    15.217178
_cell_angle_alpha                 82.607406
_cell_angle_beta                  90.788239
_cell_angle_gamma                 104.397143
_cell_volume                      2538.32721633

loop_
_atom_site_label
_atom_site_type_symbol
_atom_type_description
_atom_site_fract_x
_atom_site_fract_y
_atom_site_fract_z
_atom_type_partial_charge
C1    C     C_R   0.483403 0.442086 0.663133 0.874902
C2    C     C_R   0.519487 0.557592 0.336960 0.874925
C3    C     C_R   0.473313 0.333819 0.938600 0.054172
C4    C     C_R   0.683304 0.615150 0.081808 0.024967
C5    C     C_R   0.613051 0.478316 0.968602 -0.014457
C6    C     C_R   0.575270 0.457635 0.057444 0.011725
C7    C     C_R   0.521241 0.363310 0.090997 0.087313
C8    C     C_R   0.714041 0.553882 0.944985 0.094862
C9    C     C_R   0.465096 0.302242 0.030652 -0.084476
C10   C     C_R   0.746046 0.624879 0.000536 -0.056222
C11   C     C_R   0.710175 0.854054 0.609803 -0.264414
C12   C     C_R   0.317040 0.155703 0.362464 -0.278641
C13   C     C_R   0.669320 0.761649 0.597959 0.100346
C14   C     C_R   0.341170 0.242025 0.391720 0.079911
C15   C     C_R   0.506730 0.794520 0.515200 -0.023994
C16   C     C_R   0.498781 0.207725 0.479347 -0.029906
C17   C     C_R   0.557555 0.892160 0.512348 0.027337
C18   C     C_R   0.481458 0.119678 0.448463 0.027659
C19   C     C_R   0.659029 0.920997 0.564562 0.063230
C20   C     C_R   0.386218 0.093262 0.390027 0.051069
C21   C     C_R   0.510317 0.961482 0.461239 0.009159
C22   C     C_R   0.551582 0.055910 0.477448 0.011889
C23   C     C_R   0.718159 0.501091 0.500211 0.896895
C24   C     C_R   0.281835 0.498923 0.499634 0.898470
C25   C     C_R   0.662979 0.083537 0.519823 -0.126000
C26   C     C_R   0.427955 0.941454 0.391622 -0.121296
C27   C     C_R   0.713441 0.015885 0.566477 -0.079959
C28   C     C_R   0.363294 0.006276 0.358391 -0.074600
C29   C     C_1   0.839279 0.502718 0.500574 -0.141935
C30   C     C_1   0.160634 0.497145 0.499161 -0.124994
C31   C     C_1   0.941007 0.501275 0.500200 0.048762
C32   C     C_1   0.058826 0.498395 0.499463 0.052154
C33   C     C_R   0.478248 0.405140 0.757563 -0.060833
C34   C     C_R   0.558762 0.589235 0.244537 -0.083017
C35   C     C_R   0.407859 0.280130 0.876317 -0.125866
C36   C     C_R   0.706174 0.685295 0.138212 -0.108552
C37   C     C_R   0.413003 0.314664 0.786643 -0.174209
C38   C     C_R   0.648401 0.670289 0.220836 -0.192737
C39   C     C_R   0.541739 0.459145 0.818769 -0.245774
C40   C     C_R   0.526248 0.525812 0.184112 -0.196795
C41   C     C_R   0.547498 0.422601 0.907823 0.080094
C42   C     C_R   0.596454 0.531519 0.108975 0.076687
H1    H     H_    0.447466 0.469928 0.197595 0.204032
H2    H     H_    0.584874 0.530835 0.797664 0.218281
H3    H     H_    0.677125 0.720125 0.267099 0.189661
H4    H     H_    0.362484 0.271566 0.740387 0.167682
H5    H     H_    0.350568 0.211887 0.895895 0.177557
H6    H     H_    0.771919 0.750220 0.121155 0.187235
H7    H     H_    0.560331 0.228387 0.530985 0.149590
H8    H     H_    0.422349 0.767327 0.485726 0.147956
H9    H     H_    0.788885 0.873385 0.649400 0.178723
H10   H     H_    0.242803 0.138310 0.318495 0.191208
N1    N     N_R   0.566020 0.731700 0.552730 -0.137387
N2    N     N_R   0.433980 0.268300 0.447270 -0.147621
O1    O     O_R   0.466720 0.383110 0.605620 -0.618286
O2    O     O_R   0.533280 0.616890 0.394380 -0.608006
O3    O     O_R   0.509090 0.531900 0.639510 -0.569315
O4    O     O_R   0.490910 0.468100 0.360490 -0.597406
O5    O     O_R   0.644370 0.425610 0.483050 -0.606781
O6    O     O_R   0.355630 0.574390 0.516950 -0.611587
O7    O     O_R   0.686740 0.574390 0.516930 -0.600196
O8    O     O_R   0.313260 0.425610 0.483070 -0.598329
Zn1   Zn    Zn3+2 0.471710 0.400660 0.477370 0.980777
Zn2   Zn    Zn3+2 0.528290 0.599340 0.522630 0.998660
C43   C     C_2   0.389815 0.209244 0.065046 0.893579
O9    O     O_2   0.407849 0.139656 0.039950 -0.580934
O10   O     O_R   0.299378 0.201957 0.127552 -0.794277
H11   H     H_    0.251940 0.135709 0.144829 0.356397
C44   C     C_2   0.843227 0.708806 0.972261 0.901400
O11   O     O_2   0.928889 0.731017 0.019878 -0.612965
O12   O     O_R   0.836696 0.761876 0.890706 -0.792616
H12   H     H_    0.908258 0.816928 0.878408 0.360085
C45   C     C_2   0.739440 0.179862 0.499758 0.916646
O13   O     O_2   0.787099 0.222344 0.559443 -0.591427
O14   O     O_R   0.755362 0.222042 0.412009 -0.788764
H13   H     H_    0.808750 0.287302 0.406608 0.349038
C46   C     C_2   0.422729 0.860648 0.343103 0.933697
O15   O     O_2   0.326539 0.808706 0.328936 -0.600438
O16   O     O_R   0.528616 0.843963 0.314255 -0.768858
H14   H     H_    0.513077 0.788173 0.280839 0.347537
C47   C     C_3   0.546380 0.323098 0.185222 -0.362439
C48   C     C_3   0.679807 0.346883 0.204601 -0.794949
H15   H     H_    0.730508 0.327015 0.152022 0.268960
H16   H     H_    0.714319 0.421849 0.209418 0.257461
H17   H     H_    0.694756 0.308065 0.268860 0.286448
H18   H     H_    0.497319 0.344817 0.236819 0.239971
H19   H     H_    0.517052 0.246342 0.195197 0.230309
C49   C     C_3   0.804041 0.546193 0.875823 -0.418205
C50   C     C_3   0.911469 0.518076 0.919928 -0.799068
H20   H     H_    0.961145 0.571554 0.959799 0.277707
H21   H     H_    0.881528 0.451117 0.963641 0.266246
H22   H     H_    0.973304 0.509544 0.868238 0.256761
H23   H     H_    0.766164 0.492432 0.832853 0.222151
H24   H     H_    0.835021 0.612728 0.832209 0.260573
C51   C     C_2   0.828354 0.044773 0.612458 0.950303
O17   O     O_2   0.830585 0.078284 0.681733 -0.568050
O18   O     O_R   0.933020 0.032407 0.576584 -0.756226
H25   H     H_    0.005376 0.054374 0.613821 0.355705
C52   C     C_2   0.274295 0.983421 0.288072 0.935906
O19   O     O_2   0.167745 0.969767 0.304919 -0.576739
O20   O     O_R   0.312932 0.975251 0.203521 -0.749323
H26   H     H_    0.244273 0.958088 0.161729 0.366463
C53   C     C_2   0.257285 0.299385 0.366172 0.990937
O21   O     O_2   0.161723 0.282781 0.406130 -0.595424
O22   O     O_R   0.282499 0.367718 0.293059 -0.823497
H27   H     H_    0.216809 0.401385 0.281619 0.340922
C54   C     C_2   0.752692 0.703579 0.624177 0.982306
O23   O     O_2   0.855785 0.728762 0.595838 -0.605494
O24   O     O_R   0.717101 0.622300 0.682309 -0.819737
H28   H     H_    0.779976 0.585503 0.687723 0.317621

loop_
_geom_bond_atom_site_label_1
_geom_bond_atom_site_label_2
_ccdc_geom_bond_type
C21   C26   A    
C4    C36   A    
O20   H26   S    
C45   O14   S    
C45   O13   D    
C27   C51   S    
C51   O17   D    
C7    C47   S    
C13   C54   S    
C35   H5    S    
C47   C48   S    
C1    C33   S    
C39   C41   A    
C46   O15   D    
C23   O5    A    
C11   C19   A    
C33   C39   A    
C34   C40   A    
C15   N1    A    
C35   C37   A    
C5    C6    A    
N1    Zn2   S    
N2    Zn1   S    
C15   C17   A    
C15   H8    S    
C44   O12   S    
C38   H3    S    
C40   H1    S    
C31   C32   S    
C43   O10   S    
C22   C25   A    
O1    Zn1   S    
C54   O23   D    
O2    Zn2   S    
C50   H21   S    
C19   C27   A    
C18   C20   A    
C47   H18   S    
C37   H4    S    
C2    C34   S    
C40   C42   A    
C34   C38   A    
C21   C22   A    
C54   O24   S    
C12   H10   S    
O18   H25   S    
C6    C7    A    
C13   N1    A    
C46   O16   S    
C49   H24   S    
C26   C46   S    
O10   H11   S    
C16   H7    S    
C20   C28   A    
C33   C37   A    
C8    C49   S    
O7    Zn2   S    
O14   H13   S    
O8    Zn1   S    
C3    C9    A    
C1    O3    A    
C52   O19   D    
C3    C35   A    
C24   O6    A    
C12   C20   A    
C9    C43   S    
C51   O18   S    
C53   O22   S    
C50   H22   S    
C47   H19   S    
C28   C52   S    
C16   C18   A    
C14   N2    A    
C12   C14   A    
C48   H15   S    
C48   H16   S    
C4    C10   A    
C23   C29   S    
O3    Zn2   S    
O4    Zn1   S    
C7    C9    A    
C5    C41   A    
C49   H23   S    
C3    C41   A    
C24   O8    A    
C52   O20   S    
C18   C22   A    
O5    Zn1   S    
C5    C8    A    
C2    O4    A    
C39   H2    S    
C25   C27   A    
C48   H17   S    
O22   H27   S    
C26   C28   A    
O6    Zn2   S    
C16   N2    A    
C36   C38   A    
C1    O1    A    
O12   H12   S    
C29   C31   T    
C2    O2    A    
O24   H28   S    
C30   C32   T    
C11   C13   A    
C14   C53   S    
C4    C42   A    
C17   C19   A    
C36   H6    S    
C25   C45   S    
C44   O11   D    
C24   C30   S    
C11   H9    S    
O16   H14   S    
C10   C44   S    
C23   O7    A    
C49   C50   S    
C8    C10   A    
C43   O9    D    
C6    C42   A    
C53   O21   D    
C50   H20   S    
C17   C21   A    
