data_mof_unit_59835.cif
_audit_creation_date              2012-12-11T17:00:17-0500
_audit_creation_method            fapswitch 2.2
_symmetry_space_group_name_H-M    P1
_symmetry_Int_Tables_number       1
_space_group_crystal_system       triclinic
_cell_length_a                    6.961376
_cell_length_b                    13.560464
_cell_length_c                    20.272445
_cell_angle_alpha                 103.045992
_cell_angle_beta                  90.229296
_cell_angle_gamma                 90.307989
_cell_volume                      1864.260406

loop_
_atom_site_label
_atom_site_type_symbol
_atom_type_description
_atom_site_fract_x
_atom_site_fract_y
_atom_site_fract_z
_atom_type_partial_charge
O1    O     O_R   0.506770 0.599700 0.449550 -0.539358
O2    O     O_R   0.179980 0.595740 0.587960 -0.545640
O3    O     O_R   0.004580 0.400300 0.550450 -0.537489
C1    C     C_R   0.348450 0.617754 0.615062 0.693312
O4    O     O_R   0.177380 0.611700 0.452380 -0.541114
O5    O     O_R   0.001970 0.416370 0.413900 -0.541881
C2    C     C_R   0.345767 0.638249 0.435599 0.692722
O6    O     O_R   0.509390 0.583630 0.586100 -0.537714
O7    O     O_3   0.337530 0.435890 0.487530 -0.369893
V1    V     V_3+5 0.064660 0.511890 0.502310 1.409109
O8    O     O_R   0.671950 0.404260 0.412040 -0.541376
C3    C     C_R   0.840373 0.383098 0.384663 0.693436
O9    O     O_R   0.674540 0.388300 0.547620 -0.539906
C4    C     C_R   0.843305 0.361662 0.564262 0.697975
V2    V     V_3+5 0.564030 0.488110 0.497690 1.413809
O10   O     O_3   0.841030 0.564110 0.512470 -0.371858
C5    C     C_R   0.873381 0.109318 0.610353 -0.159167
H1    H     H_    0.867688 0.159269 0.517201 0.103204
H2    H     H_    0.888521 0.983695 0.693210 0.117829
H3    H     H_    0.883193 0.030315 0.584470 0.111841
C6    C     C_R   0.851943 0.284507 0.604087 -0.031326
C7    C     C_R   0.848106 0.317079 0.930718 -0.170850
C8    C     C_R   0.838431 0.393448 0.895307 -0.119489
C9    C     C_R   0.841120 0.370130 0.824760 -0.158403
C10   C     C_R   0.853719 0.268482 0.787464 0.076437
C11   C     C_R   0.863405 0.190482 0.824214 0.070675
C12   C     C_R   0.856960 0.241625 0.715100 0.071993
C13   C     C_R   0.869733 0.137776 0.681377 0.143968
C14   C     C_R   0.878826 0.062956 0.718594 -0.206982
C15   C     C_R   0.875652 0.088704 0.788809 -0.196817
C16   C     C_R   0.848136 0.314098 0.674756 -0.213297
C17   C     C_R   0.864562 0.182343 0.571955 -0.176252
C18   C     C_R   0.860560 0.215956 0.895942 -0.073820
H4    H     H_    0.838401 0.394145 0.696343 0.090439
H5    H     H_    0.845656 0.336858 0.985578 0.100310
H6    H     H_    0.833008 0.433628 0.801198 0.105895
H7    H     H_    0.882924 0.027769 0.815195 0.107971
C19   C     C_R   0.710418 0.181377 0.227297 0.119696
C20   C     C_R   0.866954 0.183379 0.184422 -0.114322
C21   C     C_R   0.022312 0.247402 0.210684 -0.186958
H8    H     H_    0.145092 0.252432 0.179225 0.136833
C22   C     C_R   0.014900 0.310944 0.276060 -0.177532
H9    H     H_    0.132644 0.362844 0.293077 0.130184
C23   C     C_R   0.851529 0.312674 0.317135 -0.112756
C24   C     C_R   0.702889 0.244410 0.292047 0.104438
C25   C     C_3   0.495495 0.266005 0.284785 -0.414352
C26   C     C_3   0.503853 0.198120 0.214348 -0.407639
H10   H     H_    0.469857 0.346832 0.284672 0.164361
H11   H     H_    0.404716 0.234615 0.320239 0.174741
H12   H     H_    0.483623 0.239431 0.173292 0.166754
H13   H     H_    0.416754 0.128165 0.209091 0.169151
C27   C     C_R   0.500413 0.679280 0.730087 0.101620
C28   C     C_R   0.351982 0.683837 0.684198 -0.109817
C29   C     C_R   0.196113 0.748095 0.708050 -0.176095
H14   H     H_    0.077137 0.753585 0.674684 0.128603
C30   C     C_R   0.197488 0.810819 0.773747 -0.172247
H15   H     H_    0.080618 0.863042 0.788831 0.125472
C31   C     C_R   0.355015 0.811440 0.817531 -0.109443
C32   C     C_R   0.502413 0.741944 0.794911 0.100306
C33   C     C_3   0.713503 0.759633 0.792425 -0.399233
C34   C     C_3   0.711136 0.691182 0.721897 -0.406893
H16   H     H_    0.793638 0.727201 0.830008 0.171323
H17   H     H_    0.748229 0.839818 0.792735 0.166514
H18   H     H_    0.789399 0.619019 0.718727 0.166130
H19   H     H_    0.744682 0.731524 0.681283 0.168532
C35   C     C_R   0.304957 0.889012 0.388354 -0.160195
H20   H     H_    0.302963 0.839530 0.481616 0.103147
H21   H     H_    0.273128 0.012505 0.304637 0.123969
H22   H     H_    0.280000 0.967206 0.413682 0.112661
C36   C     C_R   0.351071 0.715589 0.395824 -0.031454
C37   C     C_R   0.391630 0.682717 0.069426 -0.167693
C38   C     C_R   0.403549 0.606698 0.105090 -0.120202
C39   C     C_R   0.389280 0.629730 0.175446 -0.159019
C40   C     C_R   0.360483 0.730556 0.212204 0.077830
C41   C     C_R   0.342472 0.807669 0.174995 0.069686
C42   C     C_R   0.349953 0.757584 0.284491 0.072632
C43   C     C_R   0.318602 0.860481 0.317540 0.142630
C44   C     C_R   0.298417 0.934103 0.279802 -0.206940
C45   C     C_R   0.309521 0.908145 0.209736 -0.199614
C46   C     C_R   0.367915 0.686160 0.325375 -0.215675
C47   C     C_R   0.319149 0.816778 0.427163 -0.174547
C48   C     C_R   0.360842 0.782943 0.103567 -0.077214
H23   H     H_    0.389821 0.606725 0.304240 0.089944
H24   H     H_    0.407992 0.663471 0.014884 0.101547
H25   H     H_    0.401971 0.566751 0.199335 0.103548
H26   H     H_    0.426748 0.529238 0.078044 0.117192
H27   H     H_    0.290534 0.967629 0.182773 0.118090
O11   O     O_R   0.203450 0.916320 0.913910 -0.541582
O12   O     O_R   0.535520 0.888300 0.047620 -0.538152
O13   O     O_R   0.710860 0.083650 0.086100 -0.537563
C49   C     C_R   0.367012 0.861422 0.064203 0.688876
O14   O     O_R   0.532860 0.904250 0.912040 -0.542497
O15   O     O_R   0.708190 0.099710 0.949550 -0.537850
C50   C     C_R   0.364198 0.882637 0.884796 0.697237
O16   O     O_R   0.206120 0.900260 0.050460 -0.538904
O17   O     O_3   0.375280 0.064080 0.012470 -0.371607
V3    V     V_3+5 0.648180 0.988110 0.997690 1.416235
O18   O     O_R   0.038220 0.111740 0.952370 -0.540382
C51   C     C_R   0.869436 0.138257 0.935675 0.686992
O19   O     O_R   0.040880 0.095790 0.087940 -0.546558
C52   C     C_R   0.872709 0.117655 0.115107 0.694291
V4    V     V_3+5 0.148800 0.011950 0.002300 1.407847
O20   O     O_3   0.871820 0.935920 0.987530 -0.370288
H28   H     H_    0.828643 0.471605 0.922771 0.117917

loop_
_geom_bond_atom_site_label_1
_geom_bond_atom_site_label_2
_ccdc_geom_bond_type
O17   V4    S    
C1    C28   S    
C39   C40   A    
C1    O6    A    
C2    C36   S    
C45   H27   S    
C43   C44   A    
C23   C24   A    
C7    H5    S    
C6    C16   A    
C25   H11   S    
C9    H6    S    
C40   C42   A    
C33   H17   S    
C4    C6    S    
C13   C14   A    
H20   C47   S    
C27   C34   S    
O5    C3    A    
C19   C20   A    
C35   H22   S    
V2    O10   S    
C5    H3    S    
C30   H15   S    
C33   H16   S    
C7    C18   A    
C36   C47   A    
C19   C24   A    
C29   H14   S    
O8    V2    S    
C8    C9    A    
O1    V2    S    
O12   C49   A    
O7    V1    S    
O15   C51   A    
O13   V3    S    
O16   V4    S    
C37   C48   A    
C21   C22   A    
C32   C33   S    
O9    C4    A    
C22   C23   A    
C46   H23   S    
O19   V4    S    
O14   V3    S    
C20   C52   S    
C26   H12   S    
C29   C30   A    
H21   C44   S    
C6    C17   A    
O11   C50   A    
C40   C41   A    
C12   C16   A    
C9    C10   A    
C20   C21   A    
O4    C2    A    
C44   C45   A    
C26   H13   S    
C10   C11   A    
O18   V4    S    
C36   C46   A    
C48   C49   S    
C15   H7    S    
O12   V3    S    
C33   C34   S    
C18   C51   S    
C34   H18   S    
O2    C1    A    
O13   C52   A    
C14   C15   A    
C27   C32   A    
C34   H19   S    
C11   C18   A    
O11   V4    S    
C8    H28   S    
O17   V3    S    
O14   C50   A    
C16   H4    S    
C42   C43   A    
C39   H25   S    
C19   C26   S    
V3    O20   S    
O3    C4    A    
C21   H8    S    
C11   C15   A    
O6    V2    S    
O9    V2    S    
H1    C17   S    
C22   H9    S    
O2    V1    S    
O15   V3    S    
C27   C28   A    
C37   H24   S    
C31   C50   S    
C35   C43   A    
C25   C26   S    
O1    C2    A    
C5    C13   A    
C42   C46   A    
C38   C39   A    
O5    V1    S    
C38   H26   S    
O8    C3    A    
C41   C48   A    
C28   C29   A    
C10   C12   A    
C31   C32   A    
O4    V1    S    
C3    C23   S    
O3    V1    S    
V1    O10   S    
C35   C47   A    
O19   C52   A    
C30   C31   A    
O7    V2    S    
V4    O20   S    
C49   O16   A    
C25   H10   S    
C24   C25   S    
C37   C38   A    
O18   C51   A    
C12   C13   A    
C5    C17   A    
C7    C8    A    
C41   C45   A    
H2    C14   S    
