data_mof_unit_60882.cif
_audit_creation_date              2013-03-05T16:17:06-0500
_audit_creation_method            fapswitch 2.2
_symmetry_space_group_name_H-M    P1
_symmetry_Int_Tables_number       1
_space_group_crystal_system       triclinic
_cell_length_a                    16.100111
_cell_length_b                    17.347324
_cell_length_c                    23.503246
_cell_angle_alpha                 90.372996
_cell_angle_beta                  93.067265
_cell_angle_gamma                 97.331128
_cell_volume                      6500.73365667

loop_
_atom_site_label
_atom_site_type_symbol
_atom_site_description
_atom_site_fract_x
_atom_site_fract_y
_atom_site_fract_z
_atom_type_partial_charge
O1    O     O_R   0.420280 0.382610 0.497280 -0.545867
O2    O     O_R   0.579720 0.617390 0.502720 -0.579369
O3    O     O_R   0.563150 0.389410 0.502170 -0.590753
O4    O     O_R   0.436850 0.610590 0.497830 -0.592391
C1    C     C_R   0.488756 0.349760 0.498345 0.817252
C2    C     C_R   0.511235 0.650255 0.500824 0.816246
O5    O     O_R   0.428550 0.496580 0.415430 -0.578542
O6    O     O_R   0.571450 0.503420 0.584570 -0.541883
O7    O     O_R   0.571420 0.503370 0.420330 -0.559532
O8    O     O_R   0.428580 0.496630 0.579670 -0.560371
C3    C     C_R   0.499673 0.498350 0.391183 0.849348
C4    C     C_R   0.500329 0.501928 0.608822 0.859896
Cu1   Cu    Cu3+1 0.415410 0.495980 0.497100 1.010894
Cu2   Cu    Cu3+1 0.584590 0.504020 0.502900 1.013606
C5    C     C_R   0.528174 0.567199 0.881810 0.579738
C6    C     C_R   0.469400 0.432795 0.118142 0.575474
N1    N     N_R   0.502224 0.499997 0.851745 -0.465645
N2    N     N_R   0.495604 0.499952 0.148207 -0.465905
C7    C     C_R   0.475349 0.432163 0.878372 0.584948
C8    C     C_R   0.522447 0.567781 0.121557 0.585138
C9    C     C_R   0.476309 0.429218 0.938527 -0.128659
C10   C     C_R   0.521223 0.570764 0.061404 -0.129133
C11   C     C_R   0.500037 0.499380 0.969925 -0.048489
C12   C     C_R   0.497425 0.500615 0.030008 -0.048506
C13   C     C_R   0.526418 0.568512 0.941316 -0.059889
C14   C     C_R   0.471031 0.431492 0.058624 -0.057652
C15   C     C_R   0.452160 0.359712 0.968353 0.335760
C16   C     C_R   0.545258 0.640293 0.031580 0.335843
C17   C     C_R   0.448253 0.362127 0.027573 -0.193006
C18   C     C_R   0.549113 0.637892 0.972360 -0.192167
O9    O     O_2   0.555348 0.632703 0.854020 -0.513253
O10   O     O_2   0.442131 0.367323 0.145940 -0.520452
O11   O     O_2   0.445547 0.368870 0.846374 -0.455698
O12   O     O_2   0.552543 0.631023 0.153526 -0.455710
H1    H     H_    0.429706 0.308386 0.049458 0.221600
H2    H     H_    0.567604 0.691644 0.950474 0.221837
C19   C     C_R   0.441005 0.538088 0.238331 -0.086949
C20   C     C_R   0.558306 0.462714 0.761922 -0.085592
H3    H     H_    0.396991 0.569921 0.214897 0.163242
H4    H     H_    0.602543 0.431346 0.785563 0.165215
C21   C     C_R   0.441887 0.536551 0.297578 -0.279228
C22   C     C_R   0.558220 0.464609 0.702694 -0.245802
H5    H     H_    0.398910 0.568308 0.319281 0.169171
H6    H     H_    0.601940 0.433464 0.681208 0.178995
C23   C     C_R   0.498635 0.495683 0.328663 -0.163643
C24   C     C_R   0.501175 0.504876 0.671349 -0.148517
C25   C     C_R   0.553870 0.454130 0.299383 0.310359
C26   C     C_R   0.444768 0.545423 0.700371 0.315388
C27   C     C_R   0.553161 0.457303 0.239814 -0.144162
C28   C     C_R   0.444799 0.541980 0.759914 -0.146414
H7    H     H_    0.595000 0.425824 0.216805 0.185956
H8    H     H_    0.402154 0.572778 0.782721 0.185971
C29   C     C_R   0.496829 0.498787 0.209293 0.272603
C30   C     C_R   0.501464 0.501131 0.790678 0.270506
C31   C     C_R   0.482591 0.265179 0.493624 -0.029971
C32   C     C_R   0.517464 0.734971 0.502668 -0.024148
C33   C     C_R   0.554515 0.230516 0.483376 -0.137863
C34   C     C_R   0.446565 0.770580 0.514032 -0.138082
C35   C     C_R   0.549939 0.150358 0.479074 -0.132336
C36   C     C_R   0.451307 0.850957 0.515213 -0.134971
C37   C     C_R   0.473523 0.103451 0.485962 0.179147
C38   C     C_R   0.526909 0.896880 0.504428 0.181939
C39   C     C_R   0.400924 0.137981 0.493990 -0.155096
C40   C     C_R   0.598401 0.861549 0.494693 -0.145240
C41   C     C_R   0.405346 0.218551 0.497895 -0.167692
C42   C     C_R   0.593657 0.780890 0.493409 -0.212913
C43   C     C_2   0.468055 0.018431 0.485616 -0.204419
C44   C     C_2   0.532944 0.981792 0.503579 -0.209070
H9    H     H_    0.614447 0.265280 0.478319 0.172724
H10   H     H_    0.387445 0.736397 0.522386 0.168652
H11   H     H_    0.649132 0.754598 0.484458 0.147368
H12   H     H_    0.348777 0.244148 0.505006 0.178458
H13   H     H_    0.592866 0.014365 0.517184 0.149813
H14   H     H_    0.408230 0.985500 0.472120 0.150613
H15   H     H_    0.341260 0.102514 0.498567 0.137726
H16   H     H_    0.657368 0.896394 0.486882 0.135046
H17   H     H_    0.396037 0.876843 0.525174 0.135814
H18   H     H_    0.606248 0.125574 0.470069 0.135694
N3    N     N_R   0.711660 0.510070 0.507250 -0.225972
N4    N     N_R   0.288340 0.489930 0.492750 -0.221054
C45   C     C_R   0.747771 0.466748 0.469506 0.005059
C46   C     C_R   0.253246 0.540211 0.525781 0.011063
C47   C     C_R   0.834755 0.471251 0.469039 -0.243533
C48   C     C_R   0.166385 0.537243 0.526119 -0.240076
C49   C     C_R   0.885189 0.520065 0.508516 0.114874
C50   C     C_R   0.114744 0.481711 0.492000 0.122096
C51   C     C_R   0.846516 0.563921 0.547056 -0.354833
C52   C     C_R   0.152543 0.430203 0.458672 -0.359729
C53   C     C_R   0.758488 0.559555 0.545377 0.667664
C54   C     C_R   0.240378 0.436125 0.458351 0.642476
C55   C     C_2   0.978067 0.528878 0.509845 -0.159288
C56   C     C_2   0.021709 0.473463 0.491127 -0.154936
H19   H     H_    0.708829 0.429104 0.439233 0.205834
H20   H     H_    0.292909 0.582135 0.552660 0.199554
H21   H     H_    0.988196 0.419428 0.473846 0.149234
H22   H     H_    0.010684 0.582843 0.527684 0.145585
H23   H     H_    0.884646 0.600544 0.578449 0.150258
H24   H     H_    0.114049 0.385140 0.433630 0.143963
H25   H     H_    0.141033 0.576812 0.554157 0.156664
H26   H     H_    0.861581 0.437914 0.437324 0.160876
N5    N     N_R   0.435315 0.285372 0.940152 0.169023
O13   O     O_R   0.494907 0.257779 0.914335 -0.279769
O14   O     O_R   0.368288 0.238766 0.951020 -0.303466
N6    N     N_R   0.562024 0.714637 0.059787 0.168881
O15   O     O_R   0.502484 0.742037 0.085792 -0.280997
O16   O     O_R   0.628874 0.761406 0.048799 -0.303361
O17   O     O_3   0.278784 0.383037 0.428300 -0.563627
C57   C     C_3   0.262430 0.391691 0.369197 0.023956
H27   H     H_    0.279341 0.453137 0.356190 0.150494
H28   H     H_    0.195330 0.372633 0.356685 0.139957
C58   C     C_3   0.314929 0.340902 0.336921 -0.670081
H29   H     H_    0.295873 0.278730 0.346449 0.243648
H30   H     H_    0.305652 0.349699 0.290368 0.213838
H31   H     H_    0.382416 0.356118 0.349719 0.258324
O18   O     O_3   0.717650 0.598303 0.585069 -0.555046
C59   C     C_3   0.747662 0.678654 0.589012 0.032620
H32   H     H_    0.693060 0.711311 0.582490 0.188000
H33   H     H_    0.792642 0.699999 0.556367 0.110894
C60   C     C_3   0.786612 0.698642 0.648612 -0.750264
H34   H     H_    0.841385 0.666912 0.657562 0.238951
H35   H     H_    0.807654 0.762066 0.652196 0.214894
H36   H     H_    0.739602 0.682462 0.680807 0.271668
N7    N     N_R   0.607303 0.405402 0.328876 0.116766
O19   O     O_R   0.577751 0.358803 0.368212 -0.397132
O20   O     O_R   0.680511 0.397856 0.310183 -0.356629
N8    N     N_R   0.390664 0.593335 0.670642 0.121440
O21   O     O_R   0.419904 0.640462 0.631519 -0.388372
O22   O     O_R   0.316888 0.599579 0.688896 -0.353388

loop_
_geom_bond_atom_site_label_1
_geom_bond_atom_site_label_2
_geom_bond_distance
_ccdc_geom_bond_type
C53   O18   1.387337 S    
N5    O13   1.301376 A    
C46   H20   1.080795 S    
C15   C17   1.397242 A    
C58   H29   1.110643 S    
C39   C41   1.392553 A    
C49   C55   1.482228 S    
N7    O19   1.301253 A    
C25   C27   1.400999 A    
C57   H27   1.114835 S    
O5    C3    1.303094 A    
C28   C30   1.399410 A    
O1    C1    1.303219 A    
C7    C9    1.414429 A    
C48   C50   1.405886 A    
C54   O17   1.383079 S    
C20   C22   1.392588 A    
C32   C42   1.402907 A    
N7    O20   1.301309 A    
C34   C36   1.386676 A    
O18   C59   1.416548 S    
C50   C52   1.401069 A    
C59   H32   1.109524 S    
C36   C38   1.403072 A    
C22   C24   1.404336 A    
C23   C25   1.416563 A    
O4    Cu1   1.973847 S    
C37   C39   1.400519 A    
C16   N6    1.434053 S    
C38   C40   1.399741 A    
N2    C29   1.435088 S    
C31   C41   1.403117 A    
C55   H22   1.083425 S    
C57   H28   1.111960 S    
C27   H7    1.083232 S    
C28   H8    1.083252 S    
C11   C12   1.415114 A    
C8    O12   1.348179 S    
C26   C28   1.401074 A    
C9    C15   1.420177 A    
Cu1   N4    2.032145 S    
N5    O14   1.301138 A    
C10   C16   1.420130 A    
Cu1   Cu2   2.705601 S    
N4    C54   1.364010 A    
C21   H5    1.083447 S    
O2    C2    1.303188 A    
C22   H6    1.083482 S    
C35   H18   1.081816 S    
N6    O16   1.301146 A    
N6    O15   1.301383 A    
C45   C47   1.393276 A    
C60   H35   1.110398 S    
C6    C14   1.400610 A    
C33   C35   1.385803 A    
C24   C26   1.416991 A    
C36   H17   1.082217 S    
C35   C37   1.403403 A    
C49   C51   1.399746 A    
C43   C44   1.341420 D    
N4    C46   1.358918 A    
C7    O11   1.348151 S    
C55   C56   1.345833 D    
N3    C45   1.359336 A    
C34   H10   1.083339 S    
O6    Cu2   1.942302 S    
C44   H13   1.085262 S    
C15   N5    1.434001 S    
C56   H21   1.085013 S    
C40   C42   1.391579 A    
O7    Cu2   1.940703 S    
C45   H19   1.080501 S    
C37   C43   1.466175 S    
C25   N7    1.436839 S    
C42   H11   1.082978 S    
C20   C30   1.398006 A    
O6    C4    1.303527 A    
C40   H16   1.083528 S    
C58   H30   1.110528 S    
C43   H14   1.085916 S    
Cu2   N3    2.032147 S    
O7    C3    1.303867 A    
O3    Cu2   1.973848 S    
O8    C4    1.303732 A    
C59   H33   1.115785 S    
C4    C24   1.469425 S    
C47   C49   1.403911 A    
C52   C54   1.405182 A    
C46   C48   1.393285 A    
C47   H26   1.081282 S    
C31   C33   1.402214 A    
C10   C12   1.418161 A    
C3    C23   1.468974 S    
O4    C2    1.301045 A    
O1    Cu1   1.978224 S    
C8    C10   1.414259 A    
O17   C57   1.412510 S    
C60   H36   1.110868 S    
C13   C18   1.400807 A    
C5    N1    1.366113 A    
N8    O22   1.301322 A    
C48   H25   1.080007 S    
C1    C31   1.460999 S    
C12   C14   1.407776 A    
C2    C32   1.460382 S    
O3    C1    1.301232 A    
O8    Cu1   1.940703 S    
C60   H34   1.109247 S    
C57   C58   1.521874 S    
C5    O9    1.350049 S    
C38   C44   1.464117 S    
C6    O10   1.350056 S    
C41   H12   1.083109 S    
C17   H1    1.083736 S    
C59   C60   1.523107 S    
C18   H2    1.083734 S    
C9    C11   1.418224 A    
C19   C29   1.397992 A    
C19   H3    1.082830 S    
C50   C56   1.485433 S    
C20   H4    1.082857 S    
C39   H15   1.083495 S    
N8    O21   1.301298 A    
C27   C29   1.399534 A    
C16   C18   1.397142 A    
N1    C7    1.368295 A    
C32   C34   1.402254 A    
C58   H31   1.109752 S    
N2    C8    1.368363 A    
C11   C13   1.407786 A    
C19   C21   1.392262 A    
O2    Cu2   1.978223 S    
N3    C53   1.364129 A    
C5    C13   1.400474 A    
C26   N8    1.437012 S    
O5    Cu1   1.942302 S    
C14   C17   1.400826 A    
C6    N2    1.366192 A    
C51   C53   1.408008 A    
C21   C23   1.404191 A    
C33   H9    1.083316 S    
N1    C30   1.434964 S    
C52   H24   1.083018 S    
C51   H23   1.082014 S    
