data_mof_unit_9416.cif
_audit_creation_date              2012-12-11T14:17:27-0500
_audit_creation_method            fapswitch 2.2
_symmetry_space_group_name_H-M    P1
_symmetry_Int_Tables_number       1
_space_group_crystal_system       triclinic
_cell_length_a                    6.940264
_cell_length_b                    13.677847
_cell_length_c                    20.441343
_cell_angle_alpha                 101.989964
_cell_angle_beta                  89.926678
_cell_angle_gamma                 90.757062
_cell_volume                      1897.95239233

loop_
_atom_site_label
_atom_site_type_symbol
_atom_type_description
_atom_site_fract_x
_atom_site_fract_y
_atom_site_fract_z
_atom_type_partial_charge
O1    O     O_R   0.506860 0.599390 0.449240 -0.543650
O2    O     O_R   0.180220 0.594600 0.586780 -0.535189
O3    O     O_R   0.004500 0.400610 0.550760 -0.527346
C1    C     C_R   0.350142 0.619153 0.612334 0.682651
O4    O     O_R   0.177490 0.611290 0.451970 -0.534826
O5    O     O_R   0.001750 0.417420 0.414990 -0.523441
C2    C     C_R   0.347202 0.637072 0.434313 0.719871
O6    O     O_R   0.509610 0.582580 0.585010 -0.551620
O7    O     O_3   0.337420 0.436370 0.488020 -0.364628
V1    V     V_3+5 0.064680 0.511800 0.502220 1.504638
O8    O     O_R   0.671710 0.405400 0.413220 -0.543715
C3    C     C_R   0.840831 0.383176 0.387009 0.762941
O9    O     O_R   0.674440 0.388710 0.548030 -0.542104
C4    C     C_R   0.842353 0.363269 0.565787 0.738015
V2    V     V_3+5 0.564010 0.488200 0.497780 1.484218
O10   O     O_3   0.841140 0.563630 0.511980 -0.383084
C5    C     C_R   0.808151 0.114796 0.614916 -0.100724
H1    H     H_    0.776594 0.167050 0.523820 0.144504
H2    H     H_    0.828156 0.988055 0.696670 0.167004
H3    H     H_    0.788565 0.037360 0.590079 0.180140
C6    C     C_R   0.847075 0.287567 0.606917 -0.069983
C7    C     C_R   0.854389 0.316990 0.929043 0.141485
C8    C     C_R   0.819604 0.390362 0.892729 -0.126812
C9    C     C_R   0.808080 0.365657 0.823353 -0.147689
C10   C     C_R   0.845590 0.267910 0.787978 0.098488
C11   C     C_R   0.856701 0.190853 0.825050 0.024622
C12   C     C_R   0.854145 0.243110 0.716751 0.055011
C13   C     C_R   0.832396 0.141127 0.684360 0.083711
C14   C     C_R   0.836744 0.066127 0.721442 -0.126822
C15   C     C_R   0.855926 0.090381 0.790574 -0.161991
C16   C     C_R   0.886605 0.314569 0.676034 0.063937
C17   C     C_R   0.804421 0.188252 0.577081 -0.180371
C18   C     C_R   0.862953 0.216189 0.895932 -0.126316
H4    H     H_    0.762912 0.423283 0.798072 0.158775
H5    H     H_    0.799401 0.467110 0.918429 0.145506
H6    H     H_    0.862841 0.029482 0.816865 0.117606
C19   C     C_2   0.004714 0.285559 0.283253 0.030926
C20   C     C_2   0.848003 0.308082 0.323360 -0.286829
H7    H     H_    0.716674 0.264557 0.310587 0.143515
C21   C     C_2   0.997452 0.204170 0.222352 -0.204203
C22   C     C_2   0.856876 0.191860 0.175644 0.041331
H8    H     H_    0.123268 0.156796 0.212641 0.111318
C23   C     C_2   0.211194 0.798438 0.779636 -0.076718
C24   C     C_2   0.359337 0.809445 0.823031 -0.232693
H9    H     H_    0.080246 0.840329 0.793442 0.122771
H10   H     H_    0.486237 0.763722 0.810783 0.138445
C25   C     C_2   0.211499 0.724323 0.714672 -0.111290
C26   C     C_2   0.366219 0.699618 0.673791 -0.147923
H11   H     H_    0.073780 0.687711 0.700144 0.139490
C27   C     C_R   0.478199 0.880919 0.385979 -0.093833
H12   H     H_    0.521087 0.955632 0.410548 0.195226
C28   C     C_R   0.364442 0.717080 0.396284 -0.123108
C29   C     C_R   0.288941 0.691782 0.074415 -0.212090
C30   C     C_R   0.284638 0.614337 0.108475 -0.058229
C31   C     C_R   0.336760 0.630311 0.176226 -0.051389
C32   C     C_R   0.374203 0.730061 0.213095 -0.003882
C33   C     C_R   0.395331 0.806838 0.175712 0.079364
C34   C     C_R   0.391072 0.757464 0.284799 0.036907
C35   C     C_R   0.461939 0.854678 0.315567 0.094894
C36   C     C_R   0.504968 0.925282 0.275614 -0.004062
C37   C     C_R   0.460532 0.902391 0.207711 -0.266273
C38   C     C_R   0.329574 0.693608 0.327377 -0.214700
C39   C     C_R   0.436423 0.812199 0.426362 -0.052966
C40   C     C_R   0.352616 0.786524 0.106316 -0.066303
H13   H     H_    0.251294 0.625113 0.308581 0.155011
H14   H     H_    0.252157 0.676407 0.021710 0.122490
H15   H     H_    0.250804 0.539875 0.080310 0.186873
H16   H     H_    0.484460 0.959967 0.179206 0.112513
O11   O     O_R   0.203230 0.917310 0.915020 -0.547657
O12   O     O_R   0.535500 0.888690 0.048040 -0.546504
O13   O     O_R   0.711080 0.082610 0.085000 -0.533563
C41   C     C_R   0.365926 0.863682 0.066135 0.681869
O14   O     O_R   0.532630 0.905370 0.913230 -0.546327
O15   O     O_R   0.708190 0.099410 0.949230 -0.532606
C42   C     C_R   0.363692 0.882915 0.887165 0.724757
O16   O     O_R   0.206120 0.900510 0.050790 -0.544507
O17   O     O_3   0.375360 0.063570 0.011990 -0.354197
V3    V     V_3+5 0.648170 0.988200 0.997780 1.475334
O18   O     O_R   0.038240 0.111390 0.951940 -0.534868
C43   C     C_R   0.870240 0.138229 0.935452 0.742132
O19   O     O_R   0.041120 0.094710 0.086750 -0.537139
C44   C     C_R   0.872095 0.116095 0.113075 0.735010
V4    V     V_3+5 0.148810 0.011930 0.002180 1.494994
O20   O     O_3   0.871750 0.936430 0.988010 -0.384177
I1    I     I_    0.612594 0.285897 0.180475 -0.335614
C45   C     C_2   0.551251 0.757265 0.683390 0.353238
H17   H     H_    0.685539 0.720598 0.666625 0.053769
O21   O     O_2   0.554400 0.847117 0.706324 -0.528578
C46   C     C_2   0.461354 0.841653 0.500132 0.389982
H18   H     H_    0.430755 0.788891 0.531853 0.021111
O22   O     O_2   0.514443 0.925957 0.526689 -0.535335
C47   C     C_2   0.594203 0.025185 0.301570 0.323152
H19   H     H_    0.555369 0.087900 0.279495 0.049924
O23   O     O_2   0.720677 0.037189 0.344044 -0.537263
C48   C     C_2   0.378270 0.539574 0.202170 0.465350
H20   H     H_    0.487833 0.541335 0.240248 0.070365
O24   O     O_2   0.291251 0.461348 0.180610 -0.478777
I2    I     I_    0.049002 0.450689 0.710654 -0.470961
I3    I     I_    0.887746 0.363673 0.033878 -0.331002
C49   C     C_2   0.196248 0.333576 0.298932 0.519897
H21   H     H_    0.323377 0.287499 0.294720 0.015010
O25   O     O_2   0.215095 0.424351 0.312877 -0.524211

loop_
_geom_bond_atom_site_label_1
_geom_bond_atom_site_label_2
_ccdc_geom_bond_type
C34   C38   A    
C31   C32   A    
O12   V3    S    
C48   H20   S    
C41   O16   A    
O19   C44   A    
C25   H11   S    
C29   C30   A    
C6    C16   A    
C14   C15   A    
C27   C35   A    
C19   C49   S    
C4    C6    S    
C13   C14   A    
C2    C28   S    
C19   C21   S    
O5    C3    A    
C20   H7    S    
C29   C40   A    
C45   O21   D    
O17   V4    S    
V2    O10   S    
C5    H3    S    
C32   C33   A    
C16   I2    S    
C47   H19   S    
O8    V2    S    
C25   C26   D    
O14   V3    S    
O1    V2    S    
C46   O22   D    
O7    V1    S    
C1    O6    A    
O13   C44   A    
C21   H8    S    
C35   C36   A    
O15   C43   A    
O9    C4    A    
C27   C39   A    
O14   C42   A    
O16   V4    S    
C49   O25   D    
O19   V4    S    
C24   H10   S    
C36   C47   S    
C6    C17   A    
C12   C16   A    
C9    C10   A    
C31   C48   S    
O4    C2    A    
C45   H17   S    
C30   H15   S    
C34   C35   A    
O17   V3    S    
C9    H4    S    
C36   C37   A    
C24   C42   S    
O2    C1    A    
C23   C24   D    
C19   C20   D    
O11   V4    S    
C11   C18   A    
V4    O20   S    
C8    C9    A    
C39   C46   S    
C47   O23   D    
C27   H12   S    
C29   H14   S    
C23   H9    S    
O3    C4    A    
C21   C22   D    
C11   C15   A    
O6    V2    S    
C8    H5    S    
O9    V2    S    
C26   C45   S    
H1    C17   S    
O2    V1    S    
C33   C40   A    
C1    C26   S    
C7    C18   A    
C30   C31   A    
C7    I3    S    
C38   H13   S    
O1    C2    A    
C5    C13   A    
C28   C39   A    
O5    V1    S    
O12   C41   A    
O8    C3    A    
C48   O24   D    
C18   C43   S    
C33   C37   A    
C10   C12   A    
C22   I1    S    
C15   H6    S    
C10   C11   A    
O4    V1    S    
O3    V1    S    
C28   C38   A    
O18   V4    S    
C37   H16   S    
C22   C44   S    
C49   H21   S    
C32   C34   A    
O11   C42   A    
C40   C41   S    
C3    C20   S    
O18   C43   A    
V3    O20   S    
O15   V3    S    
C12   C13   A    
C5    C17   A    
C7    C8    A    
V1    O10   S    
C46   H18   S    
C23   C25   S    
O13   V3    S    
O7    V2    S    
H2    C14   S    
