data_mof_unit_39488.cif
_audit_creation_date              2012-10-26T21:08:10-0400
_audit_creation_method            fapswitch 2.2
_symmetry_space_group_name_H-M    P1
_symmetry_Int_Tables_number       1
_space_group_crystal_system       triclinic
_cell_length_a                    15.842773
_cell_length_b                    10.801358
_cell_length_c                    9.619722
_cell_angle_alpha                 88.075353
_cell_angle_beta                  90.970865
_cell_angle_gamma                 93.273464
_cell_volume                      1642.36080797

loop_
_atom_site_label
_atom_site_type_symbol
_atom_type_description
_atom_site_fract_x
_atom_site_fract_y
_atom_site_fract_z
_atom_type_partial_charge
C1    C     C_R   0.498864 0.262729 0.502206 0.522604
C2    C     C_R   0.715297 0.090197 0.674084 -0.150425
C3    C     C_R   0.726815 0.967736 0.644902 -0.092544
C4    C     C_R   0.339902 0.499254 0.498992 0.539147
C5    C     C_R   0.663149 0.896729 0.577438 0.214783
C6    C     C_R   0.583172 0.944969 0.547008 0.061134
C7    C     C_R   0.575411 0.073637 0.563952 0.004527
C8    C     C_R   0.503583 0.129561 0.507472 0.014771
C9    C     C_R   0.438044 0.059004 0.444766 -0.132058
C10   C     C_R   0.441171 0.931580 0.441632 -0.106789
C11   C     C_R   0.512234 0.873303 0.493068 0.061055
C12   C     C_3   0.082173 0.490610 0.497338 0.015948
C13   C     C_R   0.583288 0.699046 0.130547 0.329014
C14   C     C_R   0.659910 0.749124 0.077281 0.283063
C15   C     C_R   0.674213 0.733544 0.936101 -0.166965
C16   C     C_R   0.505825 0.737931 0.498104 0.606513
C17   C     C_R   0.617530 0.659265 0.858437 -0.124123
C18   C     C_R   0.554178 0.582242 0.924304 0.127111
C19   C     C_R   0.547249 0.590476 0.071345 0.120850
C20   C     C_R   0.452374 0.415312 0.075774 0.017386
C21   C     C_R   0.450464 0.417732 0.927718 0.015936
C22   C     C_R   0.659289 0.490361 0.501283 0.591869
C23   C     C_3   0.974863 0.576341 0.582536 -0.130918
C24   C     C_3   0.969264 0.375898 0.547460 -0.138626
C25   C     C_3   0.023876 0.399363 0.415738 -0.072651
C26   C     C_1   0.249903 0.496782 0.496961 -0.019150
C27   C     C_1   0.748936 0.485023 0.503189 0.035073
C28   C     C_3   0.029197 0.467013 0.628963 -0.110046
C29   C     C_3   0.786094 0.810674 0.176006 0.049185
C30   C     C_3   0.834156 0.917030 0.249734 -0.230784
C31   C     C_3   0.918738 0.877334 0.308936 -0.467140
C32   C     C_3   0.916318 0.485237 0.501255 0.053707
C33   C     C_3   0.029443 0.600161 0.450974 -0.088484
C34   C     C_3   0.969860 0.508648 0.371266 0.272246
C35   C     C_1   0.174113 0.494050 0.496501 -0.046504
C36   C     C_1   0.824512 0.483720 0.502986 0.001781
C37   C     C_R   0.641733 0.144330 0.629802 -0.109174
Cl1   Cl    Cl    0.696432 0.764788 0.501472 -0.699197
Cl2   Cl    Cl    0.512008 0.818197 0.141770 -0.552572
Cl3   Cl    Cl    0.929312 0.536412 0.199956 -0.669592
Cu1   Cu    Cu3+1 0.499990 0.499990 0.640660 0.958581
Cu2   Cu    Cu3+1 0.500010 0.500010 0.359340 1.018450
H1    H     H_    0.044991 0.327387 0.346468 0.127362
H2    H     H_    0.953452 0.648708 0.651026 0.130206
H3    H     H_    0.055066 0.449934 0.735416 0.139945
H4    H     H_    0.383261 0.102754 0.400962 0.116687
H5    H     H_    0.638555 0.242163 0.646461 0.147226
H6    H     H_    0.765587 0.145511 0.723800 0.123623
H7    H     H_    0.820762 0.792391 0.079670 0.135047
H8    H     H_    0.784575 0.725715 0.245234 0.212160
H9    H     H_    0.845365 0.996598 0.174762 0.164038
H10   H     H_    0.795792 0.948596 0.335991 0.224099
H11   H     H_    0.908252 0.801629 0.388864 0.184749
H12   H     H_    0.787518 0.929847 0.668056 0.134461
H13   H     H_    0.952926 0.957305 0.358545 0.136884
H14   H     H_    0.958365 0.844714 0.224867 0.179336
H15   H     H_    0.387557 0.877749 0.398987 0.140392
H16   H     H_    0.413241 0.346060 0.132226 0.120889
H17   H     H_    0.724647 0.787587 0.883950 0.138219
H18   H     H_    0.625976 0.665040 0.749310 0.227344
H19   H     H_    0.409644 0.350679 0.874004 0.120430
H20   H     H_    0.943301 0.284090 0.587299 0.112540
H21   H     H_    0.055320 0.691779 0.410492 0.121664
N1    N     N_R   0.500800 0.501210 0.147910 -0.245601
N2    N     N_R   0.500830 0.501290 0.852040 -0.235078
O1    O     O_R   0.499990 0.319640 0.618810 -0.520052
O2    O     O_R   0.500000 0.319660 0.381240 -0.503648
O3    O     O_R   0.379070 0.499980 0.618770 -0.496042
O4    O     O_R   0.379080 0.500000 0.381190 -0.497283
O5    O     O_R   0.500000 0.680340 0.618760 -0.509774
O6    O     O_R   0.500010 0.680360 0.381190 -0.431787
O7    O     O_R   0.620920 0.500000 0.618810 -0.518305
O8    O     O_R   0.620930 0.500020 0.381230 -0.474250
O9    O     O_3   0.702955 0.844844 0.145176 -0.512473

loop_
_geom_bond_atom_site_label_1
_geom_bond_atom_site_label_2
_ccdc_geom_bond_type
C30   H9    S    
Cu2   N1    S    
C1    C8    S    
Cu1   Cu2   S    
C25   H1    S    
C7    C8    A    
C29   H7    S    
C18   N2    A    
C12   C28   S    
C34   Cl3   S    
C32   C36   S    
C5    C6    A    
C3    H12   S    
C17   C18   A    
C18   C19   A    
C8    C9    A    
C23   C33   S    
C31   H14   S    
C37   H5    S    
C9    C10   A    
C21   H19   S    
C25   C34   S    
C9    H4    S    
C5    Cl1   S    
C16   O6    A    
C22   O7    A    
C4    O4    A    
C1    O1    A    
Cu1   O3    S    
C29   H8    S    
C28   H3    S    
C13   C19   A    
C10   H15   S    
C16   O5    A    
C24   C25   S    
C6    C11   A    
C4    O3    A    
Cu1   N2    S    
C29   O9    S    
C2    H6    S    
Cu2   O4    S    
C23   H2    S    
C32   C34   S    
C20   N1    A    
C24   C32   S    
C29   C30   S    
C11   C16   S    
C19   N1    A    
C33   H21   S    
C33   C34   S    
C7    C37   A    
C23   C28   S    
C31   H11   S    
C12   C35   S    
Cu1   O1    S    
Cu1   O7    S    
C22   C27   S    
Cu2   O2    S    
C20   H16   S    
C14   O9    S    
C15   C17   A    
C30   H10   S    
Cu2   O8    S    
C24   H20   S    
C21   N2    A    
C15   H17   S    
C24   C28   S    
C3    C5    A    
C4    C26   S    
C6    C7    A    
C27   C36   T    
C12   C25   S    
C23   C32   S    
C2    C3    A    
C2    C37   A    
C30   C31   S    
Cu2   O6    S    
C1    O2    A    
C13   Cl2   S    
C10   C11   A    
C17   H18   S    
C26   C35   T    
C20   C21   A    
C14   C15   A    
C22   O8    A    
C31   H13   S    
C12   C33   S    
C13   C14   A    
Cu1   O5    S    
