data_mof_unit_15731.cif
_audit_creation_date              2012-10-26T21:03:38-0400
_audit_creation_method            fapswitch 2.2
_symmetry_space_group_name_H-M    P1
_symmetry_Int_Tables_number       1
_space_group_crystal_system       triclinic
_cell_length_a                    15.991371
_cell_length_b                    14.756388
_cell_length_c                    10.996723
_cell_angle_alpha                 90.231532
_cell_angle_beta                  90.236442
_cell_angle_gamma                 88.914756
_cell_volume                      2594.44239166

loop_
_atom_site_label
_atom_site_type_symbol
_atom_type_description
_atom_site_fract_x
_atom_site_fract_y
_atom_site_fract_z
_atom_type_partial_charge
C1    C     C_R   0.340880 0.500578 0.499822 0.662022
C2    C     C_R   0.426504 0.954393 0.534328 0.176334
C3    C     C_R   0.497851 0.903455 0.494497 -0.087687
C4    C     C_R   0.430823 0.050849 0.548417 0.185847
C5    C     C_R   0.573984 0.046559 0.469112 0.174893
C6    C     C_R   0.502463 0.097143 0.508054 -0.090631
C7    C     C_1   0.498839 0.802766 0.498157 0.338091
C8    C     C_1   0.501213 0.197412 0.502839 0.282326
C9    C     C_R   0.498732 0.499611 0.261655 0.603898
C10   C     C_R   0.498130 0.500199 0.738335 0.612903
C11   C     C_R   0.397637 0.633284 0.125647 0.278794
C12   C     C_R   0.659053 0.499191 0.500848 0.548780
C13   C     C_R   0.401163 0.639648 0.879486 0.281967
C14   C     C_R   0.386574 0.717390 0.069767 -0.111326
C15   C     C_R   0.389078 0.720799 0.943655 -0.094546
C16   C     C_R   0.447564 0.568423 0.936666 -0.057472
C17   C     C_R   0.446967 0.566595 0.065078 -0.052369
C18   C     C_R   0.491999 0.497744 0.128150 -0.015203
C19   C     C_R   0.492217 0.499489 0.871830 -0.014992
C20   C     C_R   0.534393 0.428293 0.062984 0.255641
C21   C     C_R   0.535029 0.429573 0.935554 0.258344
C22   C     C_R   0.953783 0.577115 0.490015 0.260939
C23   C     C_R   0.958380 0.411045 0.508811 0.206899
C24   C     C_R   0.041100 0.578123 0.489823 0.266147
C25   C     C_R   0.912653 0.494091 0.501461 -0.053002
C26   C     C_R   0.087113 0.496178 0.491421 -0.071888
C27   C     C_3   0.542213 0.286328 0.149015 -0.026999
C28   C     C_3   0.552345 0.285976 0.854690 -0.004810
C29   C     C_3   0.097031 0.689179 0.375016 -0.037901
C30   C     C_3   0.871927 0.675229 0.377426 -0.059832
C31   C     C_R   0.046449 0.411819 0.492013 0.155539
C32   C     C_1   0.822935 0.495573 0.503030 0.071125
C33   C     C_1   0.176763 0.500125 0.495750 0.077897
C34   C     C_1   0.251722 0.501553 0.498427 0.165513
C35   C     C_1   0.747944 0.497259 0.502386 0.056242
C36   C     C_R   0.569643 0.950089 0.454455 0.195699
Cu1   Cu    Cu3+1 0.500000 0.589220 0.500000 1.168530
Cu2   Cu    Cu3+1 0.500000 0.410780 0.500000 1.111945
H1    H     H_    0.355666 0.772651 0.117969 0.164189
H2    H     H_    0.181184 0.625877 0.801598 0.386551
H3    H     H_    0.038394 0.713091 0.330405 0.136786
H4    H     H_    0.127656 0.635304 0.318821 0.166176
H5    H     H_    0.139698 0.747456 0.378721 0.183870
H6    H     H_    0.904573 0.641144 0.299739 0.088436
H7    H     H_    0.872078 0.749196 0.359796 0.202114
H8    H     H_    0.805622 0.654562 0.379090 0.135136
H9    H     H_    0.935690 0.179946 0.627948 0.400783
H10   H     H_    0.181068 0.316997 0.632359 0.337635
H11   H     H_    0.701408 0.244511 0.488216 0.400247
H12   H     H_    0.360226 0.778902 0.899318 0.201272
H13   H     H_    0.337331 0.246158 0.710647 0.377607
H14   H     H_    0.661201 0.757104 0.285984 0.358277
H15   H     H_    0.270223 0.777748 0.489037 0.400750
H16   H     H_    0.473469 0.290239 0.130936 0.108400
H17   H     H_    0.551342 0.269248 0.246310 0.181060
H18   H     H_    0.569921 0.228988 0.096920 0.152081
H19   H     H_    0.549052 0.272141 0.755697 0.200783
H20   H     H_    0.488261 0.279133 0.893051 0.110366
H21   H     H_    0.593819 0.232347 0.893382 0.161678
H22   H     H_    0.211369 0.679064 0.121151 0.348517
N1    N     N_1   0.500000 0.276710 0.500000 -0.176185
N2    N     N_1   0.500000 0.723290 0.500000 -0.126296
O1    O     O_R   0.380310 0.575320 0.500020 -0.405514
O2    O     O_3   0.589407 0.371226 0.874069 -0.514073
O3    O     O_2   0.316191 0.499496 0.238812 -0.269428
O4    O     O_2   0.299012 0.655026 0.318876 -0.320012
O5    O     O_3   0.223932 0.613089 0.118669 -0.453282
O6    O     O_2   0.318315 0.670582 0.673453 -0.245352
O7    O     O_2   0.315505 0.514302 0.755107 -0.339466
O8    O     O_3   0.226587 0.639838 0.859909 -0.458945
O9    O     O_3   0.081731 0.660094 0.494760 -0.504337
O10   O     O_3   0.909899 0.659074 0.491938 -0.495982
O11   O     O_2   0.829556 0.329429 0.622484 -0.261780
O12   O     O_R   0.619690 0.575320 0.499980 -0.509525
O13   O     O_2   0.877310 0.264608 0.429206 -0.207314
O14   O     O_3   0.967269 0.236949 0.623779 -0.392935
O15   O     O_2   0.055253 0.238283 0.407635 -0.112782
O16   O     O_2   0.180669 0.326805 0.388076 -0.244224
O17   O     O_3   0.141309 0.270978 0.603177 -0.393676
O18   O     O_2   0.744240 0.046113 0.479613 -0.123508
O19   O     O_2   0.675522 0.133552 0.317174 -0.254525
O20   O     O_3   0.673675 0.197921 0.537591 -0.505606
O21   O     O_2   0.286637 0.145334 0.527116 -0.168756
O22   O     O_2   0.306042 0.060400 0.716843 -0.155872
O23   O     O_R   0.380310 0.424640 0.499960 -0.490866
O24   O     O_3   0.387031 0.207604 0.691858 -0.567150
O25   O     O_2   0.693437 0.942919 0.284857 -0.166652
O26   O     O_2   0.713735 0.854687 0.471659 -0.243190
O27   O     O_3   0.611816 0.795660 0.306448 -0.539440
O28   O     O_2   0.323784 0.871530 0.688774 -0.225104
O29   O     O_2   0.256746 0.956311 0.522259 -0.159368
O30   O     O_3   0.325926 0.802744 0.471717 -0.489967
O31   O     O_R   0.619690 0.424640 0.500040 -0.486433
O32   O     O_R   0.500000 0.575360 0.319640 -0.495317
O33   O     O_R   0.500000 0.575360 0.680360 -0.502083
O34   O     O_R   0.500000 0.424670 0.319580 -0.493115
O35   O     O_R   0.500000 0.424670 0.680420 -0.482231
O36   O     O_3   0.586048 0.366565 0.123408 -0.517964
S1    S     S_3+6 0.309310 0.598147 0.206620 0.019916
S2    S     S_3+6 0.315525 0.613552 0.785689 0.042178
S3    S     S_3+6 0.905056 0.309105 0.545369 0.106614
S4    S     S_3+6 0.106669 0.309823 0.468177 0.138144
S5    S     S_3+6 0.669846 0.105248 0.448040 0.102723
S6    S     S_3+6 0.349138 0.115351 0.621887 0.098858
S7    S     S_3+6 0.650726 0.886508 0.378627 0.069009
S8    S     S_3+6 0.330375 0.897026 0.557083 0.100446

loop_
_geom_bond_atom_site_label_1
_geom_bond_atom_site_label_2
_ccdc_geom_bond_type
O4    S1    D    
Cu1   O12   S    
C5    S5    S    
C27   O36   S    
C12   O12   A    
C29   H4    S    
O16   S4    D    
C30   H7    S    
O24   S6    S    
O6    S2    D    
Cu1   N2    S    
H14   O27   S    
C27   H16   S    
C28   H19   S    
H2    O8    S    
C10   O33   A    
H10   O17   S    
C19   C21   A    
C24   C26   A    
H9    O14   S    
C3    C7    S    
C5    C6    A    
C11   C14   A    
C27   H17   S    
C5    C36   A    
Cu1   O33   S    
C11   S1    S    
C15   H12   S    
C21   O2    S    
C14   H1    S    
H22   O5    S    
C16   C17   A    
C22   C25   A    
O20   S5    S    
O17   S4    S    
O5    S1    S    
C8    N1    T    
Cu2   N1    S    
C25   C32   S    
O11   S3    D    
C26   C31   A    
C29   H5    S    
O29   S8    D    
C30   H6    S    
O15   S4    D    
Cu2   O35   S    
C1    O1    A    
H13   O24   S    
C22   O10   S    
Cu1   O1    S    
O8    S2    S    
C1    C34   S    
C33   C34   T    
C1    O23   A    
O21   S6    D    
O18   S5    D    
C31   S4    S    
O3    S1    D    
C4    C6    A    
C27   H18   S    
C6    C8    S    
Cu2   O23   S    
C2    S8    S    
C23   C31   A    
H11   O20   S    
C10   O35   A    
C2    C4    A    
C32   C35   T    
C7    N2    T    
Cu1   Cu2   S    
C26   C33   S    
O25   S7    D    
C10   C19   S    
H15   O30   S    
C17   C18   A    
C12   C35   S    
C9    O34   A    
O28   S8    D    
C28   O2    S    
O30   S8    S    
C13   C15   A    
O22   S6    D    
C22   C24   A    
C12   O31   A    
O27   S7    S    
O19   S5    D    
C28   H21   S    
O14   S3    S    
C11   C17   A    
C29   H3    S    
C36   S7    S    
C30   H8    S    
C30   O10   S    
C28   H20   S    
C13   S2    S    
C2    C3    A    
O26   S7    D    
C23   S3    S    
C3    C36   A    
C16   C19   A    
C4    S6    S    
Cu2   O31   S    
Cu1   O32   S    
C18   C20   A    
C23   C25   A    
O7    S2    D    
C9    C18   S    
C20   O36   S    
C20   C21   A    
C13   C16   A    
Cu2   O34   S    
O13   S3    D    
C14   C15   A    
C9    O32   A    
C24   O9    S    
C29   O9    S    
