data_mof_unit_31350.cif
_audit_creation_date              2012-12-10T16:54:06-0500
_audit_creation_method            fapswitch 2.2
_symmetry_space_group_name_H-M    P1
_symmetry_Int_Tables_number       1
_space_group_crystal_system       triclinic
_cell_length_a                    9.67524
_cell_length_b                    10.93291
_cell_length_c                    13.465515
_cell_angle_alpha                 90.072176
_cell_angle_beta                  72.338042
_cell_angle_gamma                 89.78718
_cell_volume                      1357.20876334

loop_
_atom_site_label
_atom_site_type_symbol
_atom_type_description
_atom_site_fract_x
_atom_site_fract_y
_atom_site_fract_z
_atom_type_partial_charge
C1    C     C_R   0.498945 0.734702 0.501933 0.864933
C2    C     C_R   0.437146 0.480807 0.978920 0.082750
C3    C     C_R   0.475539 0.454203 0.870724 0.085176
C4    C     C_R   0.545058 0.469909 0.030623 0.073979
C5    C     C_R   0.684422 0.422604 0.976237 0.172067
C6    C     C_R   0.714001 0.383739 0.873499 -0.266665
C7    C     C_R   0.610399 0.396795 0.822241 -0.209834
C8    C     C_R   0.518903 0.504724 0.134956 -0.248317
C9    C     C_R   0.760479 0.441374 0.131265 -0.200961
C10   C     C_R   0.376338 0.483408 0.814848 -0.105551
C11   C     C_2   0.610193 0.066641 0.507470 -0.157979
C12   C     C_R   0.422661 0.492047 0.700026 0.782764
C13   C     C_2   0.500507 0.133281 0.494525 -0.313766
C14   C     C_2   0.612219 0.932660 0.502991 -0.161404
C15   C     C_2   0.493721 0.866661 0.508266 -0.315547
C16   C     C_2   0.053787 0.572487 0.560949 0.536844
C17   C     C_2   0.893507 0.562819 0.566266 -0.208300
C18   C     C_R   0.500497 0.265281 0.499066 0.841982
C19   C     C_R   0.577766 0.498962 0.299954 0.796955
C20   C     C_R   0.791575 0.410931 0.026325 -0.209163
C21   C     C_R   0.622578 0.485518 0.186446 -0.045732
C22   C     C_R   0.233047 0.515253 0.869993 -0.194744
C23   C     C_R   0.190852 0.528756 0.977394 -0.162964
C24   C     C_R   0.291663 0.514882 0.031352 -0.178276
Cu1   Cu    Cu3+1 0.361370 0.499980 0.499980 0.973872
Cu2   Cu    Cu3+1 0.638630 0.500020 0.500020 0.931514
H1    H     H_    0.842208 0.426231 0.169944 0.152664
H2    H     H_    0.407970 0.092424 0.478323 0.147477
H3    H     H_    0.714957 0.887636 0.496336 0.166579
H4    H     H_    0.388218 0.907944 0.519727 0.155249
H5    H     H_    0.120257 0.429191 0.464785 0.142559
H6    H     H_    0.812705 0.612772 0.625842 0.184273
H7    H     H_    0.920898 0.460225 0.438895 0.185891
H8    H     H_    0.817522 0.342008 0.832635 0.144797
H9    H     H_    0.898049 0.374799 0.985069 0.138763
H10   H     H_    0.417645 0.546044 0.178859 0.148609
H11   H     H_    0.153518 0.531841 0.829883 0.146101
H12   H     H_    0.250651 0.527934 0.114439 0.125656
H13   H     H_    0.079876 0.553554 0.018962 0.144511
H14   H     H_    0.636600 0.356957 0.745359 0.179530
H15   H     H_    0.703824 0.111146 0.519894 0.164526
N1    N     N_2   0.152660 0.501340 0.501130 -0.308147
N2    N     N_2   0.846520 0.501370 0.501160 -0.302326
O1    O     O_R   0.382960 0.678040 0.499980 -0.524328
O2    O     O_R   0.617100 0.678080 0.500020 -0.574708
O3    O     O_R   0.325800 0.499940 0.650950 -0.553172
O4    O     O_R   0.559930 0.499980 0.650990 -0.585638
O5    O     O_R   0.382900 0.321920 0.499980 -0.587859
O6    O     O_R   0.617040 0.321960 0.500020 -0.578970
O7    O     O_R   0.440070 0.500020 0.349010 -0.583456
O8    O     O_R   0.674200 0.500060 0.349050 -0.582147
O9    O     O_3   0.101828 0.664200 0.614542 -0.567109
C25   C     C_3   0.003513 0.691604 0.713633 0.026967
H16   H     H_    0.068321 0.706897 0.767819 0.163446
H17   H     H_    0.928971 0.614793 0.748219 0.120017
C26   C     C_3   0.922095 0.811241 0.709553 -0.367254
H18   H     H_    0.999579 0.888762 0.696257 0.220515
H19   H     H_    0.875350 0.809979 0.643788 0.213945
C27   C     C_3   0.800431 0.832810 0.810979 -0.894249
H20   H     H_    0.719362 0.758073 0.824015 0.261018
H21   H     H_    0.745219 0.920930 0.806511 0.256522
H22   H     H_    0.845049 0.836778 0.877824 0.256113

loop_
_geom_bond_atom_site_label_1
_geom_bond_atom_site_label_2
_ccdc_geom_bond_type
Cu1   N1    S    
C24   H12   S    
C23   C24   A    
C17   N2    D    
C13   H2    S    
C6    C7    A    
C1    C15   S    
H5    N1    S    
C16   N1    D    
C9    C20   A    
C2    C4    A    
C19   O7    A    
C26   C27   S    
C4    C8    A    
C7    H14   S    
C9    C21   A    
C14   C15   D    
C2    C3    A    
C27   H20   S    
C3    C10   A    
C25   H16   S    
O9    C25   S    
C11   C13   D    
Cu1   O5    S    
C1    O2    A    
C16   O9    S    
C10   C12   S    
Cu2   O4    S    
C12   O4    A    
C23   H13   S    
C13   C18   S    
Cu1   O1    S    
C19   C21   S    
C26   H19   S    
Cu2   N2    S    
C11   H15   S    
C3    C7    A    
C25   H17   S    
C2    C24   A    
C5    C6    A    
C11   C14   S    
C27   H21   S    
C14   H3    S    
Cu2   O6    S    
H7    N2    S    
C19   O8    A    
C26   H18   S    
C9    H1    S    
C15   H4    S    
C12   O3    A    
C8    H10   S    
C25   C26   S    
C5    C20   A    
C17   H6    S    
Cu1   O7    S    
C16   C17   S    
C27   H22   S    
C1    O1    A    
Cu2   O2    S    
Cu1   Cu2   S    
Cu2   O8    S    
C22   H11   S    
Cu1   O3    S    
C20   H9    S    
C22   C23   A    
C10   C22   A    
C6    H8    S    
C18   O6    A    
C18   O5    A    
C4    C5    A    
C8    C21   A    
