data_mof_unit_48218.cif
_audit_creation_date              2012-12-10T17:48:50-0500
_audit_creation_method            fapswitch 2.2
_symmetry_space_group_name_H-M    P1
_symmetry_Int_Tables_number       1
_space_group_crystal_system       triclinic
_cell_length_a                    10.731518
_cell_length_b                    14.70695
_cell_length_c                    14.671436
_cell_angle_alpha                 64.803407
_cell_angle_beta                  103.740648
_cell_angle_gamma                 102.943993
_cell_volume                      2015.29108014

loop_
_atom_site_label
_atom_site_type_symbol
_atom_type_description
_atom_site_fract_x
_atom_site_fract_y
_atom_site_fract_z
_atom_type_partial_charge
C1    C     C_R   0.477349 0.119592 0.312022 0.941205
C2    C     C_3   0.878547 0.999395 0.501815 -0.073809
C3    C     C_3   0.919012 0.893545 0.573558 -0.389575
C4    C     C_3   0.965021 0.078877 0.542447 -0.496256
C5    C     C_R   0.475232 0.186241 0.203790 -0.254727
C6    C     C_R   0.530813 0.812546 0.796913 -0.075220
C7    C     C_R   0.540657 0.223251 0.043084 -0.235276
C8    C     C_R   0.520276 0.155014 0.140574 0.666940
C9    C     C_R   0.443550 0.285590 0.165542 -0.168738
C10   C     C_R   0.493589 0.359445 0.077436 0.039877
C11   C     C_R   0.531230 0.325749 0.012039 0.036422
C12   C     C_R   0.260541 0.999073 0.502400 0.810214
C13   C     C_R   0.510351 0.465417 0.053273 0.137681
C14   C     C_R   0.532025 0.535081 0.954110 0.066280
C15   C     C_R   0.558963 0.497741 0.887419 -0.201862
C16   C     C_R   0.562248 0.395080 0.917440 -0.152868
C17   C     C_R   0.518732 0.503308 0.128341 -0.158045
C18   C     C_R   0.531493 0.606846 0.103674 -0.175765
C19   C     C_R   0.531348 0.676727 0.002142 0.081614
C20   C     C_R   0.531594 0.640172 0.926540 0.070714
C21   C     C_R   0.534512 0.782452 0.974081 -0.025224
C22   C     C_R   0.537523 0.849240 0.871849 -0.210244
C23   C     C_R   0.521131 0.880197 0.688167 0.794016
C24   C     C_R   0.527243 0.709081 0.824648 -0.218377
C25   C     C_R   0.740635 0.296844 0.647115 -0.255618
C26   C     C_R   0.694865 0.209121 0.628495 0.087191
C27   C     C_R   0.514956 0.283557 0.511977 0.097441
C28   C     C_R   0.556436 0.375505 0.527439 -0.033703
C29   C     C_R   0.673038 0.380687 0.595739 0.055285
C30   C     C_R   0.488569 0.462265 0.477003 -0.010616
C31   C     C_R   0.536789 0.551331 0.499054 -0.011131
C32   C     C_R   0.661948 0.556214 0.557662 0.648468
C33   C     C_R   0.725333 0.471091 0.608167 -0.297381
C34   C     C_R   0.740155 0.999315 0.500919 0.853165
C35   C     C_R   0.376892 0.464378 0.402721 -0.184400
C36   C     C_R   0.313074 0.549210 0.353110 -0.077436
C37   C     C_R   0.352350 0.632768 0.379974 -0.015436
C38   C     C_R   0.461140 0.633819 0.456429 -0.102371
C39   C     C_R   0.281551 0.714771 0.331913 -0.367761
C40   C     C_R   0.316006 0.796569 0.361175 0.732946
C41   C     C_R   0.484302 0.715734 0.488897 0.715197
C42   C     C_3   0.048097 0.029907 0.393440 -0.432088
C43   C     C_3   0.902604 0.026482 0.392113 1.108139
C44   C     C_3   0.060588 0.891624 0.569330 -0.373997
C45   C     C_3   0.109277 0.078431 0.545782 -0.149956
C46   C     C_3   0.123274 0.999434 0.504271 -0.088301
Cu1   Cu    Cu3+1 0.465900 0.918260 0.475680 1.110734
Cu2   Cu    Cu3+1 0.534100 0.081740 0.524320 0.985872
H1    H     H_    0.059717 0.977930 0.359674 0.231138
H2    H     H_    0.944622 0.062666 0.619335 0.201884
H3    H     H_    0.116378 0.861870 0.647655 0.210737
H4    H     H_    0.908745 0.875958 0.653307 0.203447
H5    H     H_    0.589771 0.369904 0.866368 0.152586
H6    H     H_    0.515884 0.682950 0.764465 0.195396
H7    H     H_    0.538294 0.929678 0.849860 0.181867
H8    H     H_    0.541232 0.630762 0.165461 0.190039
H9    H     H_    0.572355 0.197238 0.994517 0.181661
H10   H     H_    0.089232 0.107546 0.344766 0.203281
H11   H     H_    0.587136 0.546719 0.814166 0.174364
H12   H     H_    0.519917 0.453123 0.207908 0.142981
H13   H     H_    0.819678 0.477489 0.654149 0.181267
H14   H     H_    0.229447 0.548129 0.294913 0.151224
H15   H     H_    0.830068 0.299987 0.699554 0.152362
H16   H     H_    0.748783 0.145324 0.666012 0.128772
H17   H     H_    0.428390 0.273059 0.460736 0.154865
H18   H     H_    0.337867 0.402371 0.378930 0.146130
H19   H     H_    0.199917 0.715645 0.271741 0.203251
H20   H     H_    0.061763 0.837674 0.534660 0.215578
H21   H     H_    0.855003 0.833201 0.551053 0.279011
H22   H     H_    0.147559 0.155215 0.492896 0.162376
H23   H     H_    0.940083 0.156306 0.492015 0.214323
N1    N     N_R   0.585360 0.204570 0.560800 -0.186810
N2    N     N_R   0.414550 0.795430 0.439160 -0.290202
O1    O     O_R   0.455060 0.022100 0.338110 -0.485252
O2    O     O_R   0.512640 0.160150 0.379180 -0.577097
O3    O     O_R   0.288900 0.930980 0.479450 -0.555977
O4    O     O_R   0.346480 0.069030 0.520520 -0.572457
O5    O     O_R   0.487360 0.839850 0.620820 -0.545243
O6    O     O_R   0.544940 0.977900 0.661890 -0.598036
O7    O     O_R   0.653520 0.930970 0.479480 -0.498910
O8    O     O_R   0.711100 0.069020 0.520550 -0.611621
F1    F     F_    0.547532 0.059114 0.173668 -0.587202
C47   C     C_2   0.337012 0.305968 0.201850 0.839722
O9    O     O_2   0.305032 0.250352 0.284781 -0.639553
O10   O     O_R   0.266866 0.386003 0.137177 -0.739579
H24   H     H_    0.196756 0.391807 0.169373 0.338842
C48   C     C_2   0.529253 0.826162 0.047401 0.862617
O11   O     O_2   0.597744 0.905779 0.044043 -0.527057
O12   O     O_R   0.441937 0.779496 0.116800 -0.759442
H25   H     H_    0.447039 0.817418 0.161625 0.366482
F2    F     F_    0.567039 0.712955 0.575056 -0.629181
F3    F     F_    0.248930 0.876693 0.312515 -0.626460
F4    F     F_    0.864518 0.120114 0.326673 -0.668876
F5    F     F_    0.732823 0.645279 0.556496 -0.625740
F6    F     F_    0.830698 0.954502 0.355528 -0.605770
C49   C     C_2   0.185775 0.063422 0.651438 0.882339
O13   O     O_2   0.158931 0.987420 0.726103 -0.598647
O14   O     O_R   0.286323 0.138607 0.663089 -0.759367
H26   H     H_    0.330931 0.120541 0.736488 0.336717

loop_
_geom_bond_atom_site_label_1
_geom_bond_atom_site_label_2
_ccdc_geom_bond_type
C32   F5    S    
C48   O11   D    
C21   C48   S    
C26   N1    A    
C19   C20   A    
C42   H10   S    
C7    C8    A    
C45   C46   S    
C40   N2    A    
C7    C11   A    
C30   C35   A    
C47   O9    D    
C1    C5    S    
C1    O1    A    
Cu2   O6    S    
C28   C29   A    
C3    H21   S    
Cu1   O3    S    
C25   H15   S    
C30   C31   A    
C24   H6    S    
C15   C16   A    
C6    C22   A    
C29   C33   A    
Cu2   O8    S    
C18   C19   A    
C42   C46   S    
C26   H16   S    
C16   H5    S    
C34   O7    A    
C31   C32   A    
C49   O14   S    
C43   F6    S    
C34   O8    A    
C9    C10   A    
C18   H8    S    
C2    C34   S    
C21   C22   A    
C12   O4    A    
Cu2   O2    S    
C15   H11   S    
Cu1   O7    S    
Cu2   N1    S    
C36   H14   S    
C44   C46   S    
C4    C45   S    
C25   C29   A    
C3    C44   S    
C1    O2    A    
C14   C20   A    
Cu1   N2    S    
C38   C41   A    
C12   C46   S    
C39   C40   A    
C17   H12   S    
C35   H18   S    
C25   C26   A    
O10   H24   S    
C4    H2    S    
C35   C36   A    
Cu2   O4    S    
C2    C4    S    
C5    C9    A    
C37   C38   A    
C27   H17   S    
C11   C16   A    
Cu1   Cu2   S    
C2    C43   S    
C6    C24   A    
C49   O13   D    
C17   C18   A    
C40   F3    S    
C9    C47   S    
C44   H3    S    
C47   O10   S    
C12   O3    A    
C8    F1    S    
C44   H20   S    
C42   C43   S    
C36   C37   A    
C41   F2    S    
C45   H22   S    
C39   H19   S    
Cu1   O1    S    
C10   C13   A    
C5    C8    A    
C3    H4    S    
C22   H7    S    
C31   C38   A    
C13   C17   A    
C32   C33   A    
C28   C30   A    
C2    C3    S    
C37   C39   A    
C6    C23   S    
C43   F4    S    
C23   O5    A    
C20   C24   A    
C10   C11   A    
C42   H1    S    
C41   N2    A    
C33   H13   S    
O14   H26   S    
C27   C28   A    
C48   O12   S    
C14   C15   A    
Cu1   O5    S    
C23   O6    A    
O12   H25   S    
C13   C14   A    
C45   C49   S    
C7    H9    S    
C4    H23   S    
C27   N1    A    
C19   C21   A    
