data_mof_unit_28472.cif
_audit_creation_date              2012-12-10T19:42:01-0500
_audit_creation_method            fapswitch 2.2
_symmetry_space_group_name_H-M    P1
_symmetry_Int_Tables_number       1
_space_group_crystal_system       triclinic
_cell_length_a                    18.388409
_cell_length_b                    18.289752
_cell_length_c                    18.386812
_cell_angle_alpha                 120.191303
_cell_angle_beta                  89.992391
_cell_angle_gamma                 119.542096
_cell_volume                      4390.34397045

loop_
_atom_site_label
_atom_site_type_symbol
_atom_type_description
_atom_site_fract_x
_atom_site_fract_y
_atom_site_fract_z
_atom_type_partial_charge
C1    C     C_R   0.139769 0.779738 0.137362 0.534404
C2    C     C_R   0.798672 0.108523 0.805065 0.053685
C3    C     C_R   0.770838 0.053726 0.843566 -0.169993
C4    C     C_R   0.859805 0.220004 0.860129 0.518228
C5    C     C_R   0.717972 0.946256 0.789252 -0.161268
C6    C     C_R   0.689871 0.892008 0.695894 0.023249
C7    C     C_R   0.708083 0.947750 0.659061 0.009535
C8    C     C_3   0.745456 0.941899 0.585211 -0.091917
C9    C     C_3   0.810104 0.059372 0.647104 0.144078
C10   C     C_R   0.767238 0.555374 0.217717 -0.102546
C11   C     C_R   0.790925 0.485979 0.181958 -0.010383
C12   C     C_R   0.687447 0.625789 0.840967 -0.119388
C13   C     C_R   0.744483 0.400204 0.187603 0.231674
C14   C     C_R   0.689789 0.398352 0.242175 0.032308
C15   C     C_R   0.677180 0.479334 0.286548 -0.075116
C16   C     C_R   0.139475 0.499360 0.859878 0.517565
C17   C     C_R   0.708031 0.547091 0.262428 -0.080360
C18   C     C_3   0.728694 0.651630 0.297414 0.553966
C19   C     C_3   0.789128 0.656060 0.238283 0.219413
C20   C     C_R   0.170811 0.949487 0.248407 -0.059796
C21   C     C_R   0.196462 0.891191 0.187063 0.004847
C22   C     C_R   0.281744 0.946139 0.180195 0.012046
C23   C     C_R   0.721470 0.567712 0.793446 -0.018566
C24   C     C_R   0.337145 0.055100 0.239442 -0.165222
C25   C     C_R   0.307491 0.109658 0.301342 -0.015350
C26   C     C_R   0.223762 0.053222 0.302139 0.014357
C27   C     C_3   0.159668 0.062745 0.348719 0.144302
C28   C     C_R   0.857862 0.498113 0.138040 0.533069
C29   C     C_3   0.098534 0.943472 0.287538 -0.248692
C30   C     C_R   0.287923 0.563008 0.221077 0.012076
C31   C     C_R   0.195668 0.495332 0.191230 0.073769
C32   C     C_R   0.158196 0.421938 0.210634 -0.143471
C33   C     C_R   0.211968 0.423553 0.265801 -0.138764
C34   C     C_R   0.794100 0.585701 0.842396 -0.016945
C35   C     C_R   0.304146 0.497295 0.301315 0.051287
C36   C     C_R   0.341039 0.564758 0.275972 -0.069187
C37   C     C_3   0.403200 0.680069 0.331028 -0.023812
C38   C     C_3   0.345577 0.677436 0.268305 0.148859
C39   C     C_R   0.285435 0.558578 0.838215 0.027975
C40   C     C_R   0.139814 0.499680 0.139744 0.529863
C41   C     C_R   0.193819 0.496446 0.803017 0.035186
C42   C     C_R   0.155704 0.429894 0.709177 -0.168286
C43   C     C_R   0.209991 0.429923 0.655244 -0.158159
C44   C     C_R   0.303272 0.496348 0.694293 0.032199
C45   C     C_R   0.810806 0.508618 0.804701 0.026165
C46   C     C_R   0.337386 0.558071 0.786484 0.017065
C47   C     C_3   0.420806 0.640102 0.863583 -0.274540
C48   C     C_3   0.361655 0.640943 0.922837 -0.252360
C49   C     C_R   0.635438 0.494795 0.355583 0.511820
C50   C     C_R   0.360111 0.499410 0.639794 0.509603
C51   C     C_R   0.639681 0.780069 0.639899 0.510506
C52   C     C_R   0.863282 0.503796 0.860148 0.501587
C53   C     C_R   0.360912 0.220427 0.359801 0.505258
C54   C     C_R   0.360101 0.500490 0.360417 0.510930
C55   C     C_R   0.636238 0.496459 0.640536 0.500929
C56   C     C_R   0.769203 0.428685 0.713511 -0.146423
C57   C     C_R   0.848572 0.681307 0.925890 -0.149266
C58   C     C_R   0.822831 0.749212 0.966156 0.084499
C59   C     C_R   0.738568 0.717685 0.926402 0.253831
C60   C     C_2   0.677936 0.902780 0.504788 0.590670
C61   C     C_3   0.956170 0.147315 0.649041 0.024542
C62   C     C_3   0.955621 0.075285 0.556953 -0.291368
C63   C     C_3   0.027693 0.136162 0.530261 -0.478909
C64   C     C_3   0.706751 0.253732 0.052366 0.029505
C65   C     C_3   0.613317 0.166476 0.032756 -0.275394
C66   C     C_3   0.567432 0.082210 0.932910 -0.484214
C67   C     C_R   0.711440 0.424377 0.660670 -0.149624
C68   C     C_2   0.645641 0.309717 0.248776 0.622506
C69   C     C_3   0.575820 0.567186 0.217642 0.019148
C70   C     C_3   0.563404 0.513361 0.117937 -0.302754
C71   C     C_3   0.467471 0.421958 0.061883 -0.477075
C72   C     C_3   0.842129 0.731323 0.431996 0.014556
C73   C     C_3   0.837980 0.748470 0.521934 -0.272690
C74   C     C_3   0.910626 0.750590 0.564887 -0.475320
C75   C     C_3   0.889258 0.834234 0.317074 -0.006194
C76   C     C_3   0.855375 0.841006 0.245538 -0.272156
C77   C     C_3   0.878874 0.949102 0.286220 -0.464965
C78   C     C_R   0.687241 0.493653 0.699347 0.021104
C79   C     C_2   0.313814 0.895264 0.110156 0.578616
C80   C     C_3   0.100121 0.086205 0.251421 0.032334
C81   C     C_3   0.154678 0.175480 0.243113 -0.248761
C82   C     C_3   0.109895 0.151626 0.156857 -0.494425
C83   C     C_2   0.404402 0.732252 0.426570 0.644132
C84   C     C_3   0.318474 0.800714 0.299262 0.023816
C85   C     C_3   0.406233 0.902373 0.368980 -0.276517
C86   C     C_3   0.423583 0.989127 0.362359 -0.469047
C87   C     C_2   0.885079 0.853907 0.048145 0.570546
C88   C     C_3   0.676228 0.802600 0.930036 0.038451
C89   C     C_R   0.764025 0.053970 0.712947 0.043570
C90   C     C_3   0.696129 0.909478 0.998817 -0.227651
C91   C     C_3   0.626361 0.922632 0.973768 -0.494629
H1    H     H_    0.782117 0.369878 0.682478 0.148571
H2    H     H_    0.180757 0.369700 0.283299 0.134221
H3    H     H_    0.470197 0.705827 0.324671 0.128660
H4    H     H_    0.379464 0.698481 0.224875 0.070421
H5    H     H_    0.084529 0.378686 0.677371 0.134147
H6    H     H_    0.178811 0.378738 0.583538 0.154969
H7    H     H_    0.459855 0.611072 0.868890 0.140580
H8    H     H_    0.457222 0.711162 0.865673 0.138777
H9    H     H_    0.366723 0.612742 0.962590 0.140465
H10   H     H_    0.364716 0.713182 0.959967 0.163031
H11   H     H_    0.620440 0.599362 0.814501 0.147194
H12   H     H_    0.802167 0.103413 0.626251 0.134846
H13   H     H_    0.684731 0.365700 0.589488 0.148422
H14   H     H_    0.793619 0.093248 0.915097 0.137754
H15   H     H_    0.703065 0.905933 0.820242 0.133263
H16   H     H_    0.777665 0.900405 0.568920 0.118995
H17   H     H_    0.655792 0.762477 0.434023 0.366646
H18   H     H_    0.023710 0.196767 0.697387 0.160825
H19   H     H_    0.943291 0.201101 0.649667 0.131232
H20   H     H_    0.967076 0.021538 0.558102 0.170103
H21   H     H_    0.890050 0.029098 0.506553 0.158451
H22   H     H_    0.013981 0.184974 0.522382 0.156191
H23   H     H_    0.761570 0.641307 0.174907 0.104018
H24   H     H_    0.029659 0.082330 0.466153 0.158797
H25   H     H_    0.093625 0.185818 0.581382 0.153241
H26   H     H_    0.742298 0.219608 0.016953 0.174259
H27   H     H_    0.702953 0.293978 0.024312 0.096792
H28   H     H_    0.616871 0.132418 0.067302 0.200723
H29   H     H_    0.573279 0.197786 0.058021 0.172197
H30   H     H_    0.562069 0.114331 0.897119 0.153925
H31   H     H_    0.499820 0.020563 0.920885 0.167087
H32   H     H_    0.605070 0.047836 0.906104 0.151582
H33   H     H_    0.657308 0.216843 0.269040 0.335129
H34   H     H_    0.913577 0.706439 0.957562 0.182948
H35   H     H_    0.528373 0.589353 0.230917 0.170930
H36   H     H_    0.557399 0.513379 0.236679 0.148835
H37   H     H_    0.582374 0.569013 0.100593 0.179369
H38   H     H_    0.606461 0.485106 0.101507 0.143596
H39   H     H_    0.447574 0.364677 0.077364 0.151511
H40   H     H_    0.460494 0.384313 0.990062 0.154196
H41   H     H_    0.422760 0.448110 0.075256 0.146872
H42   H     H_    0.905328 0.799330 0.444923 0.157741
H43   H     H_    0.844601 0.663371 0.391289 0.148216
H44   H     H_    0.846059 0.822886 0.567583 0.164390
H45   H     H_    0.401722 0.097408 0.234894 0.204704
H46   H     H_    0.772684 0.686088 0.513024 0.183082
H47   H     H_    0.902546 0.675678 0.521873 0.164221
H48   H     H_    0.906393 0.764545 0.630414 0.156848
H49   H     H_    0.976875 0.813274 0.575516 0.153165
H50   H     H_    0.960636 0.896454 0.352493 0.133805
H51   H     H_    0.857444 0.852362 0.368644 0.182391
H52   H     H_    0.883775 0.819363 0.191438 0.204157
H53   H     H_    0.782120 0.787868 0.216265 0.180340
H54   H     H_    0.847461 0.969058 0.338090 0.159972
H55   H     H_    0.854281 0.952621 0.233790 0.186311
H56   H     H_    0.184724 0.094066 0.419801 0.121286
H57   H     H_    0.951474 0.006307 0.316976 0.169056
H58   H     H_    0.418777 0.898554 0.074741 0.327261
H59   H     H_    0.030912 0.062527 0.237777 0.159374
H60   H     H_    0.101570 0.021064 0.198921 0.184998
H61   H     H_    0.164045 0.246100 0.301165 0.201346
H62   H     H_    0.220315 0.189067 0.242012 0.183137
H63   H     H_    0.091569 0.075519 0.098739 0.181097
H64   H     H_    0.156042 0.211182 0.146807 0.146914
H65   H     H_    0.049657 0.151676 0.160373 0.148903
H66   H     H_    0.335151 0.742370 0.512178 0.328689
H67   H     H_    0.090026 0.907811 0.323901 0.117245
H68   H     H_    0.264373 0.812138 0.309650 0.157686
H69   H     H_    0.317893 0.778486 0.230497 0.153677
H70   H     H_    0.404037 0.923300 0.436729 0.198194
H71   H     H_    0.461642 0.893315 0.359038 0.182118
H72   H     H_    0.428692 0.970993 0.295968 0.193772
H73   H     H_    0.486836 0.061987 0.414319 0.164998
H74   H     H_    0.369313 0.000267 0.372597 0.147061
H75   H     H_    0.916341 0.998663 0.131211 0.307296
H76   H     H_    0.604185 0.744927 0.893975 0.134550
H77   H     H_    0.709725 0.807179 0.880316 0.127533
H78   H     H_    0.036929 0.909313 0.238422 0.185757
H79   H     H_    0.699582 0.923177 0.065303 0.215575
H80   H     H_    0.761939 0.969309 0.005460 0.167623
H81   H     H_    0.609036 0.893485 0.902608 0.144105
H82   H     H_    0.652284 0.005486 0.015414 0.157732
H83   H     H_    0.565692 0.880715 0.986812 0.152222
H84   H     H_    0.087233 0.366021 0.186386 0.144776
O1    O     O_3   0.000000 0.500000 0.000000 -0.451152
O2    O     O_R   0.323450 0.268330 0.384170 -0.525448
O3    O     O_R   0.444860 0.560620 0.384150 -0.537811
O4    O     O_R   0.055050 0.731580 0.115780 -0.526594
O5    O     O_R   0.615780 0.439200 0.555040 -0.541149
O6    O     O_R   0.323420 0.439190 0.384160 -0.560917
O7    O     O_R   0.615760 0.560630 0.676470 -0.568409
O8    O     O_R   0.615740 0.731500 0.676460 -0.559199
O9    O     O_R   0.444900 0.268330 0.384170 -0.531437
O10   O     O_R   0.615750 0.560630 0.384150 -0.536981
O11   O     O_R   0.323430 0.439200 0.555040 -0.537706
O12   O     O_R   0.055090 0.439280 0.823480 -0.560714
O13   O     O_R   0.884220 0.268410 0.823490 -0.537115
O14   O     O_R   0.176520 0.560720 0.944920 -0.524170
O15   O     O_R   0.884200 0.439290 0.115800 -0.504430
O16   O     O_R   0.176530 0.560720 0.115800 -0.548521
O17   O     O_R   0.884180 0.560710 0.944910 -0.553722
O18   O     O_R   0.055100 0.439290 0.115810 -0.545495
O19   O     O_R   0.884190 0.439280 0.823480 -0.547736
O20   O     O_2   0.656530 0.957191 0.506972 -0.476908
O21   O     O_R   0.637854 0.803477 0.427458 -0.626441
O22   O     O_3   0.897511 0.090321 0.678379 -0.573381
O23   O     O_R   0.884180 0.560710 0.115790 -0.528165
O24   O     O_3   0.755555 0.320467 0.144671 -0.507316
O25   O     O_2   0.565699 0.261203 0.234432 -0.531563
O26   O     O_R   0.695019 0.279266 0.267909 -0.651402
O27   O     O_3   0.661977 0.659377 0.269000 -0.554670
O28   O     O_3   0.770069 0.724018 0.392417 -0.557695
O29   O     O_3   0.879293 0.739273 0.283362 -0.575009
O30   O     O_2   0.261913 0.818783 0.035862 -0.504472
O31   O     O_R   0.404560 0.938331 0.128001 -0.723958
O32   O     O_3   0.130279 0.117838 0.339760 -0.562179
O33   O     O_2   0.475176 0.800585 0.487093 -0.481325
O34   O     O_R   0.176500 0.731590 0.115790 -0.531470
O35   O     O_R   0.325130 0.701817 0.445829 -0.651607
O36   O     O_3   0.299851 0.722418 0.309757 -0.518021
O37   O     O_2   0.952306 0.875423 0.089864 -0.613306
O38   O     O_R   0.868696 0.929314 0.075785 -0.681750
O39   O     O_3   0.704694 0.772875 0.975408 -0.544052
O40   O     O_R   0.884220 0.268420 0.944930 -0.568608
O41   O     O_3   0.499960 0.499910 0.499960 -0.446716
O42   O     O_R   0.615770 0.439200 0.384160 -0.508210
O43   O     O_R   0.444870 0.560630 0.676470 -0.555091
O44   O     O_R   0.615730 0.731500 0.555020 -0.538986
Zn1   Zn    Zn3+2 0.956630 0.413250 0.869870 0.927475
Zn2   Zn    Zn3+2 0.130130 0.586750 0.043370 0.955029
Zn3   Zn    Zn3+2 0.956630 0.413250 0.043380 0.945558
Zn4   Zn    Zn3+2 0.956610 0.586750 0.043370 0.956637
Zn5   Zn    Zn3+2 0.543330 0.586660 0.630080 0.904299
Zn6   Zn    Zn3+2 0.543320 0.586660 0.456570 0.952930
Zn7   Zn    Zn3+2 0.369830 0.413160 0.456580 0.938585
Zn8   Zn    Zn3+2 0.543350 0.413170 0.456590 0.961271

loop_
_geom_bond_atom_site_label_1
_geom_bond_atom_site_label_2
_ccdc_geom_bond_type
C80   H60   S    
C8    H16   S    
C1    C21   S    
O1    Zn4   S    
C27   C29   S    
O34   Zn2   S    
C41   C42   A    
C35   C36   A    
C75   C76   S    
C61   H18   S    
C58   C87   S    
C81   C82   S    
C84   H69   S    
C59   O39   S    
C64   H27   S    
C7    C8    S    
C39   C41   A    
C56   C67   A    
C85   C86   S    
C3    H14   S    
C80   H59   S    
C74   H47   S    
C12   C23   A    
C91   H82   S    
C26   C27   S    
C37   C38   S    
C47   H7    S    
C88   O39   S    
C91   H81   S    
C42   H5    S    
C36   C37   S    
C25   C53   S    
C22   C79   S    
C51   O8    A    
O15   Zn3   S    
C57   H34   S    
C30   C31   A    
C80   C81   S    
O14   Zn2   S    
C10   C17   A    
C70   H37   S    
C7    C89   A    
C81   H62   S    
C31   C40   S    
C30   C38   S    
C18   C19   S    
C87   O37   D    
C55   O5    A    
C86   H74   S    
C85   H70   S    
O3    Zn6   S    
C75   H50   S    
O2    Zn7   S    
C12   C59   A    
C55   O7    A    
C62   H20   S    
C73   H44   S    
C45   C56   A    
C44   C46   A    
C8    C9    S    
C88   H77   S    
C90   H80   S    
C34   C57   A    
C66   H31   S    
C18   O28   S    
C38   O36   S    
H17   O21   S    
O16   Zn2   S    
C52   O17   A    
C40   O18   A    
C63   H24   S    
C24   H45   S    
C71   H41   S    
C69   O27   S    
C4    O40   A    
C21   C22   A    
C35   C54   S    
C85   H71   S    
C61   C62   S    
C67   C78   A    
C72   H42   S    
C61   H19   S    
C73   H46   S    
C84   H68   S    
C9    O22   S    
C67   H13   S    
C57   C58   A    
O12   Zn1   S    
O13   Zn1   S    
C73   C74   S    
C87   O38   S    
C48   H9    S    
C32   H84   S    
C84   O36   S    
O41   Zn8   S    
O1    Zn2   S    
C1    O34   A    
C43   H6    S    
C52   O19   A    
C24   C25   A    
C10   C11   A    
C53   O9    A    
C61   O22   S    
C55   C78   S    
O8    Zn5   S    
O19   Zn1   S    
C45   C52   S    
C51   O44   A    
C25   C26   A    
C79   O30   D    
C74   H49   S    
C50   O43   A    
C70   H38   S    
O41   Zn7   S    
C64   H26   S    
C54   O3    A    
C91   H83   S    
C49   O42   A    
C63   H22   S    
C38   H4    S    
C2    C89   A    
C2    C4    S    
C43   C44   A    
O41   Zn5   S    
C12   H11   S    
C83   O33   D    
C1    O4    A    
C75   H51   S    
C72   H43   S    
C47   C48   S    
O11   Zn7   S    
C56   H1    S    
C10   C19   S    
C9    H12   S    
C88   H76   S    
O10   Zn6   S    
C90   H79   S    
C62   C63   S    
C17   C18   S    
C65   H28   S    
C66   H30   S    
C49   O10   A    
C18   O27   S    
C34   C45   A    
C84   C85   S    
C77   H57   S    
C70   C71   S    
O1    Zn3   S    
O42   Zn8   S    
C39   C46   A    
C82   H64   S    
C76   H53   S    
C27   H56   S    
O18   Zn3   S    
C88   C90   S    
C69   H35   S    
C72   O28   S    
C6    C51   S    
C22   C24   A    
C86   H73   S    
C42   C43   A    
C63   H25   S    
C9    C89   S    
C79   O31   S    
O40   Zn3   S    
C77   H54   S    
C60   O21   S    
C44   C50   S    
C15   C17   A    
C46   C47   S    
C23   C34   A    
C13   O24   S    
C68   O26   S    
C66   H32   S    
C5    H15   S    
C31   C32   A    
C47   H8    S    
O17   Zn4   S    
C72   C73   S    
C3    C5    A    
C16   O12   A    
C33   H2    S    
H58   O31   S    
C75   O29   S    
O43   Zn5   S    
C6    C7    A    
O6    Zn7   S    
O44   Zn6   S    
C81   H61   S    
C74   H48   S    
O5    Zn8   S    
O7    Zn5   S    
O41   Zn6   S    
C19   H23   S    
C30   C36   A    
H33   O26   S    
C68   O25   D    
C64   C65   S    
C4    O13   A    
O23   Zn4   S    
C58   C59   A    
C82   H65   S    
C20   C26   A    
C32   C33   A    
C71   H39   S    
C29   H67   S    
C76   C77   S    
C11   C13   A    
C28   O15   A    
C90   C91   S    
C5    C6    A    
C40   O16   A    
C53   O2    A    
C11   C28   S    
C48   H10   S    
C77   H55   S    
C19   O29   S    
C33   C35   A    
C65   H29   S    
C37   H3    S    
C2    C3    A    
C27   O32   S    
C15   C49   S    
C23   C78   A    
C69   C70   S    
C28   O23   A    
C83   O35   S    
C16   O14   A    
H75   O38   S    
C71   H40   S    
C82   H63   S    
C76   H52   S    
H66   O35   S    
C80   O32   S    
C62   H21   S    
C54   O6    A    
C69   H36   S    
C20   C29   S    
C20   C21   A    
C65   C66   S    
O1    Zn1   S    
C64   O24   S    
O4    Zn4   S    
C14   C68   S    
C14   C15   A    
C37   C83   S    
C86   H72   S    
O9    Zn8   S    
C29   H78   S    
C13   C14   A    
C16   C41   S    
C8    C60   S    
C60   O20   D    
C39   C48   S    
C50   O11   A    
