data_mof_unit_48193.cif
_audit_creation_date              2013-03-05T15:47:08-0500
_audit_creation_method            fapswitch 2.2
_symmetry_space_group_name_H-M    P1
_symmetry_Int_Tables_number       1
_space_group_crystal_system       triclinic
_cell_length_a                    10.253008
_cell_length_b                    10.57798
_cell_length_c                    13.658467
_cell_angle_alpha                 92.787997
_cell_angle_beta                  100.447765
_cell_angle_gamma                 94.334049
_cell_volume                      1449.67990549

loop_
_atom_site_label
_atom_site_type_symbol
_atom_site_description
_atom_site_fract_x
_atom_site_fract_y
_atom_site_fract_z
_atom_type_partial_charge
O1    O     O_R   0.935190 0.693030 0.507870 -0.549643
O2    O     O_R   0.064810 0.306970 0.492130 -0.562169
O3    O     O_R   0.142080 0.658430 0.482770 -0.619885
O4    O     O_R   0.857920 0.341570 0.517230 -0.606847
C1    C     C_R   0.048710 0.733203 0.488769 0.958101
C2    C     C_R   0.946753 0.265800 0.501466 0.946765
O5    O     O_R   0.969700 0.527180 0.651960 -0.586814
O6    O     O_R   0.030300 0.472820 0.348040 -0.576732
O7    O     O_R   0.176600 0.492580 0.626860 -0.630452
O8    O     O_R   0.823400 0.507420 0.373140 -0.622859
C3    C     C_R   0.093354 0.511718 0.685793 0.854120
C4    C     C_R   0.905737 0.485135 0.314167 0.958612
Zn1   Zn    Zn3+2 0.861850 0.523100 0.516760 1.078067
Zn2   Zn    Zn3+2 0.138150 0.476900 0.483240 1.059914
C5    C     C_R   0.140185 0.506048 0.792760 -0.066412
C6    C     C_R   0.849935 0.459696 0.208246 -0.041302
C7    C     C_R   0.114609 0.535713 0.964504 -0.201215
C8    C     C_R   0.854696 0.363411 0.044877 -0.187903
C9    C     C_R   0.063248 0.540119 0.863127 -0.166214
C10   C     C_R   0.920277 0.403525 0.141280 -0.129160
C11   C     C_R   0.265160 0.462886 0.823859 -0.229182
C12   C     C_R   0.716126 0.478332 0.177574 -0.198292
C13   C     C_R   0.317342 0.454446 0.924593 0.096258
C14   C     C_R   0.646200 0.430507 0.084610 0.090673
C15   C     C_R   0.241930 0.495213 0.995773 0.147865
C16   C     C_R   0.718086 0.376734 0.016022 0.155940
C17   C     C_R   0.447217 0.416716 0.955922 0.059997
C18   C     C_R   0.507663 0.440279 0.057193 0.059161
C19   C     C_R   0.427764 0.473018 0.127531 -0.146912
C20   C     C_R   0.519643 0.358801 0.889393 -0.158545
C21   C     C_R   0.296236 0.498459 0.096973 -0.171401
C22   C     C_R   0.652652 0.337753 0.919717 -0.171501
H1    H     H_    0.238836 0.525979 0.152609 0.165186
H2    H     H_    0.705281 0.293978 0.866773 0.161648
H3    H     H_    0.667482 0.531382 0.227732 0.179835
H4    H     H_    0.323656 0.441672 0.768143 0.179314
H5    H     H_    0.024342 0.388232 0.163869 0.203776
H6    H     H_    0.965415 0.572764 0.840021 0.197683
H7    H     H_    0.056432 0.567081 0.018393 0.161579
H8    H     H_    0.910147 0.320734 0.993391 0.159261
H9    H     H_    0.463890 0.477475 0.207032 0.158772
H10   H     H_    0.475008 0.325743 0.813936 0.161441
C23   C     C_2   0.064024 0.865926 0.466868 -0.435059
C24   C     C_2   0.914044 0.129334 0.486673 -0.425213
C25   C     C_2   0.957388 0.923435 0.422956 0.266738
C26   C     C_2   0.968192 0.060498 0.420989 0.251408
H11   H     H_    0.854293 0.083125 0.534950 0.173487
H12   H     H_    0.159491 0.919820 0.493475 0.171900
H13   H     H_    0.579068 0.435446 0.422495 0.155919
H14   H     H_    0.417448 0.592117 0.556546 0.172812
N1    N     N_2   0.322180 0.446120 0.460900 -0.018244
N2    N     N_2   0.677820 0.553880 0.539100 -0.000394
C27   C     C_2   0.429840 0.514563 0.505092 -0.034405
C28   C     C_2   0.568739 0.496358 0.486281 -0.008740
N3    N     N_R   0.030555 0.116589 0.345364 0.257042
O9    O     O_R   0.126054 0.061972 0.313705 -0.306897
O10   O     O_R   0.972133 0.202327 0.292697 -0.378702
N4    N     N_R   0.835140 0.854261 0.373191 0.239201
O11   O     O_R   0.721923 0.900953 0.376051 -0.346104
O12   O     O_R   0.838855 0.761503 0.307987 -0.407125
N5    N     N_R   0.669603 0.620128 0.628136 0.283569
O13   O     O_R   0.750492 0.721002 0.657138 -0.346895
O14   O     O_R   0.611437 0.564809 0.693888 -0.425258
N6    N     N_R   0.335751 0.346055 0.394553 0.279519
O15   O     O_R   0.254499 0.330100 0.309231 -0.332357
O16   O     O_R   0.405554 0.253188 0.425780 -0.356729

loop_
_geom_bond_atom_site_label_1
_geom_bond_atom_site_label_2
_geom_bond_distance
_ccdc_geom_bond_type
C26   N3    1.438622 S    
C15   C21   1.391083 A    
C20   C22   1.389576 A    
O7    Zn2   1.925855 S    
C21   H1    1.084033 S    
C16   C22   1.391289 A    
C12   H3    1.077875 S    
C9    H6    1.083125 S    
C13   C17   1.416284 A    
Zn1   N2    2.012797 S    
O7    C3    1.294932 A    
C23   H12   1.087042 S    
C5    C11   1.393087 A    
Zn2   N1    2.012797 S    
C8    C16   1.404307 A    
C24   H11   1.087024 S    
C6    C10   1.400333 A    
O6    C4    1.295693 A    
C7    C15   1.403641 A    
N6    O15   1.299270 A    
O3    C1    1.298219 A    
N3    O9    1.301633 A    
C11   C13   1.392634 A    
C1    C23   1.452499 S    
C19   C21   1.388118 A    
C11   H4    1.076313 S    
C2    C24   1.452919 S    
C27   C28   1.516772 S    
C17   C20   1.418374 A    
O5    C3    1.293788 A    
C10   H5    1.082291 S    
C23   C25   1.350324 D    
C22   H2    1.084083 S    
O2    C2    1.285604 A    
O3    Zn2   1.917943 S    
O8    C4    1.294327 A    
O1    C1    1.284331 A    
C18   C19   1.417732 A    
C7    C9    1.393661 A    
C14   C16   1.416454 A    
C5    C9    1.400037 A    
C8    C10   1.395468 A    
N2    N5    1.392919 S    
N3    O10   1.299263 A    
N5    O13   1.299732 A    
O2    Zn2   1.913454 S    
C12   C14   1.390950 A    
C25   N4    1.439613 S    
H14   C27   1.084011 S    
O1    Zn1   1.913453 S    
N4    O12   1.300105 A    
H13   C28   1.083772 S    
C14   C18   1.414758 A    
O5    Zn1   1.969544 S    
C13   C15   1.418179 A    
O4    C2    1.297304 A    
C7    H7    1.083064 S    
C17   C18   1.411272 A    
N5    O14   1.302783 A    
C8    H8    1.083731 S    
C20   H10   1.078698 S    
C6    C12   1.391783 A    
O6    Zn2   1.969544 S    
C19   H9    1.079356 S    
N4    O11   1.301604 A    
C25   C26   1.447638 S    
C3    C5    1.458464 S    
C24   C26   1.349627 D    
N1    N6    1.391264 S    
C4    C6    1.459935 S    
O4    Zn1   1.917944 S    
N2    C28   1.305122 D    
N1    C27   1.304610 D    
O8    Zn1   1.925853 S    
N6    O16   1.302089 A    
