data_mof_unit_31041.cif
_audit_creation_date              2013-03-05T15:58:04-0500
_audit_creation_method            fapswitch 2.2
_symmetry_space_group_name_H-M    P1
_symmetry_Int_Tables_number       1
_space_group_crystal_system       triclinic
_cell_length_a                    15.238243
_cell_length_b                    13.730462
_cell_length_c                    11.02453
_cell_angle_alpha                 88.401841
_cell_angle_beta                  88.058425
_cell_angle_gamma                 89.609889
_cell_volume                      2304.38095614

loop_
_atom_site_label
_atom_site_type_symbol
_atom_site_description
_atom_site_fract_x
_atom_site_fract_y
_atom_site_fract_z
_atom_type_partial_charge
O1    O     O_R   0.370250 0.582280 0.500040 -0.577504
O2    O     O_R   0.370250 0.417720 0.500040 -0.597972
C1    C     C_R   0.327350 0.500357 0.499583 0.838874
O3    O     O_R   0.499970 0.582270 0.317700 -0.489892
O4    O     O_R   0.499970 0.417730 0.317700 -0.532947
C2    C     C_R   0.502414 0.500909 0.258766 0.956171
Cu1   Cu    Cu3+1 0.499990 0.597420 0.500010 1.086595
Cu2   Cu    Cu3+1 0.499990 0.402580 0.500010 1.047737
O5    O     O_R   0.629730 0.582260 0.499980 -0.572007
O6    O     O_R   0.629730 0.417740 0.499980 -0.592541
O7    O     O_R   0.500000 0.582270 0.682320 -0.578389
O8    O     O_R   0.500000 0.417730 0.682320 -0.585527
C3    C     C_R   0.671724 0.499535 0.498222 0.906156
C4    C     C_R   0.501290 0.499011 0.739492 0.900025
C5    C     C_3   0.435893 0.578063 0.064432 0.277342
C6    C     C_3   0.486951 0.389814 0.072983 0.310655
C7    C     C_3   0.454309 0.587606 0.925837 -0.046002
C8    C     C_3   0.469996 0.400194 0.932499 -0.089994
H1    H     H_    0.501821 0.647493 0.909610 0.198188
H2    H     H_    0.506397 0.342611 0.884781 0.219587
C9    C     C_3   0.606970 0.529590 0.060886 0.402166
C10   C     C_3   0.508443 0.500823 0.119218 -0.425761
C11   C     C_3   0.506321 0.498400 0.875542 -0.295045
C12   C     C_3   0.605362 0.509989 0.915461 0.053996
C13   C     C_R   0.819084 0.560012 0.411269 0.339657
C14   C     C_R   0.769060 0.496096 0.488957 -0.159296
C15   C     C_R   0.812699 0.422484 0.555060 -0.183371
C16   C     C_R   0.904946 0.415800 0.552490 -0.009468
C17   C     C_R   0.953438 0.474842 0.468288 0.005984
C18   C     C_R   0.909315 0.541419 0.392090 -0.023767
C19   C     C_R   0.949753 0.353648 0.634032 0.285547
C20   C     C_R   0.042099 0.355335 0.635489 0.126366
C21   C     C_R   0.090328 0.420031 0.556320 -0.032867
C22   C     C_R   0.046291 0.473523 0.465916 -0.023305
C23   C     C_R   0.093741 0.535601 0.382774 -0.035720
C24   C     C_R   0.047173 0.583048 0.288504 0.320288
C25   C     C_R   0.956256 0.587316 0.296026 -0.104870
C26   C     C_R   0.177309 0.445695 0.579190 0.118642
C27   C     C_R   0.228591 0.499290 0.492025 -0.171701
C28   C     C_R   0.183420 0.553878 0.402366 0.129889
H3    H     H_    0.774144 0.373038 0.612533 0.206913
H4    H     H_    0.922382 0.624754 0.223363 0.237769
C29   C     C_R   0.422961 0.793863 0.518263 0.123202
C30   C     C_R   0.422505 0.206734 0.509100 0.089122
N1    N     N_R   0.499930 0.743810 0.499950 -0.203607
N2    N     N_R   0.499930 0.256190 0.499950 -0.209600
C31   C     C_R   0.577518 0.793532 0.494332 0.138513
C32   C     C_R   0.577306 0.206228 0.488525 0.134313
C33   C     C_R   0.579973 0.896363 0.499162 -0.085004
C34   C     C_R   0.579952 0.103235 0.490619 -0.075746
C35   C     C_R   0.500032 0.948453 0.504635 0.038785
C36   C     C_R   0.500064 0.051788 0.502270 0.040039
C37   C     C_R   0.420374 0.896969 0.519256 -0.071090
C38   C     C_R   0.420088 0.103888 0.508811 -0.063979
C39   C     C_R   0.659949 0.948145 0.499483 0.145358
C40   C     C_R   0.660130 0.050799 0.485312 0.136175
C41   C     C_R   0.340118 0.052248 0.517976 0.128871
C42   C     C_R   0.340722 0.949764 0.534115 0.141165
H5    H     H_    0.363278 0.753382 0.531205 0.170222
H6    H     H_    0.362474 0.247452 0.519590 0.168545
H7    H     H_    0.637965 0.753426 0.484962 0.189011
H8    H     H_    0.637175 0.246966 0.480300 0.169233
N3    N     N_R   0.434217 0.678277 0.114222 0.191509
O9    O     O_R   0.451206 0.755616 0.046262 -0.270199
O10   O     O_R   0.399571 0.694201 0.220755 -0.282007
N4    N     N_R   0.560395 0.318503 0.090990 0.149598
O11   O     O_R   0.566213 0.242619 0.022633 -0.292726
O12   O     O_R   0.593044 0.305299 0.197513 -0.258737
I1    I     I_    0.106511 0.255069 0.756050 -0.023080
I2    I     I_    0.178354 0.507311 0.752796 -0.100918
I3    I     I_    0.227925 0.696273 0.354944 -0.081670
N5    N     N_R   0.088853 0.616706 0.177183 0.146244
O13   O     O_R   0.097631 0.554789 0.090394 -0.261065
O14   O     O_R   0.083711 0.708935 0.147411 -0.248014
I4    I     I_    0.778470 0.875276 0.548558 -0.056234
I5    I     I_    0.782063 0.124583 0.447885 -0.075981
I6    I     I_    0.218080 0.126456 0.490677 -0.174266
I7    I     I_    0.222773 0.879203 0.599479 -0.109436
I8    I     I_    0.301565 0.532018 0.098927 -0.073180
I9    I     I_    0.380914 0.305860 0.171414 -0.105328
I10   I     I_    0.351586 0.663911 0.826624 -0.101093
I11   I     I_    0.347118 0.349761 0.864802 -0.160759
N6    N     N_R   0.631830 0.632770 0.080153 0.147137
O15   O     O_R   0.712003 0.659907 0.052740 -0.207955
O16   O     O_R   0.590217 0.686222 0.158235 -0.241974
N7    N     N_R   0.677730 0.471421 0.118133 0.178871
O17   O     O_R   0.755692 0.470824 0.066027 -0.229927
O18   O     O_R   0.676093 0.459641 0.235424 -0.333868
I12   I     I_    0.674411 0.621676 0.801335 -0.145468
I13   I     I_    0.682476 0.385134 0.850708 -0.077938
N8    N     N_R   0.781422 0.646295 0.356876 0.117299
O19   O     O_R   0.705924 0.643470 0.307567 -0.259900
O20   O     O_R   0.825955 0.726757 0.347013 -0.307619
N9    N     N_R   0.901965 0.296374 0.724326 0.139151
O21   O     O_R   0.857336 0.221168 0.693566 -0.297340
O22   O     O_R   0.905613 0.317456 0.838358 -0.237261

loop_
_geom_bond_atom_site_label_1
_geom_bond_atom_site_label_2
_geom_bond_distance
_ccdc_geom_bond_type
N4    O12   1.298464 A    
C39   C40   1.413789 A    
N3    O10   1.294860 A    
C40   I5    2.144596 S    
C28   I3    2.119639 S    
C23   C24   1.419142 A    
C12   I12   2.206001 S    
C26   I2    2.114627 S    
Cu1   Cu2   2.675242 S    
C31   C33   1.415195 A    
Cu1   O7    2.014844 S    
C14   C15   1.406221 A    
C7    C11   1.559090 S    
C9    N6    1.491732 S    
Cu1   N1    2.009978 S    
C24   C25   1.386033 A    
O1    C1    1.305061 A    
O4    C2    1.298241 A    
Cu2   O6    1.989336 S    
O7    C4    1.290291 A    
N7    O18   1.298092 A    
C2    C10   1.538115 S    
Cu1   O5    1.986519 S    
C22   C23   1.417527 A    
C25   H4    1.083434 S    
O5    C3    1.300205 A    
C8    I11   2.164206 S    
C29   C37   1.416315 A    
C5    C10   1.644780 S    
C5    I8    2.164653 S    
N6    O15   1.302921 A    
C30   N2    1.364662 A    
C33   C35   1.408777 A    
C34   C36   1.411906 A    
C11   C12   1.596523 S    
C7    I10   2.184952 S    
C29   H5    1.072414 S    
C39   I4    2.137058 S    
C32   C34   1.414017 A    
N4    O11   1.303604 A    
C1    C27   1.510229 S    
C9    C10   1.658974 S    
O3    Cu1   2.026391 S    
C36   C38   1.409678 A    
N1    C31   1.368004 A    
N2    C32   1.363968 A    
C13   N8    1.437679 S    
C8    C11   1.567890 S    
C41   I6    2.140569 S    
O3    C2    1.307576 A    
C27   C28   1.417876 A    
N7    O17   1.302044 A    
C13   C14   1.416945 A    
C33   C39   1.415259 A    
C17   C22   1.414271 A    
C34   C40   1.414233 A    
C35   C36   1.418359 A    
C18   C25   1.395699 A    
C35   C37   1.411093 A    
C4    C11   1.504232 S    
C17   C18   1.407301 A    
N8    O20   1.300529 A    
C15   H3    1.078788 S    
C32   H8    1.073258 S    
C19   C20   1.408187 A    
Cu2   O8    2.026386 S    
C21   C22   1.407435 A    
N9    O22   1.300990 A    
C29   N1    1.367265 A    
N5    O14   1.301815 A    
N6    O16   1.293699 A    
O8    C4    1.297520 A    
C3    C14   1.483794 S    
C6    N4    1.496640 S    
N8    O19   1.290248 A    
C13   C18   1.406729 A    
C5    C7    1.546232 S    
C9    N7    1.484960 S    
C16   C17   1.408768 A    
C6    C10   1.658821 S    
O1    Cu1   1.989304 S    
C16   C19   1.411885 A    
O2    Cu2   1.986490 S    
N5    O13   1.300490 A    
O6    C3    1.295728 A    
C12   I13   2.193922 S    
C31   H7    1.073392 S    
O4    Cu2   2.014849 S    
C37   C42   1.416575 A    
C20   I1    2.143179 S    
C19   N9    1.433390 S    
C21   C26   1.406586 A    
C20   C21   1.418852 A    
O2    C1    1.305606 A    
C41   C42   1.413437 A    
C26   C27   1.411770 A    
C30   H6    1.073412 S    
C7    H1    1.106098 S    
C23   C28   1.415907 A    
C8    H2    1.098630 S    
N9    O21   1.299432 A    
Cu2   N2    2.010027 S    
C42   I7    2.141350 S    
N3    O9    1.304702 A    
C30   C38   1.412940 A    
C6    C8    1.581159 S    
C9    C12   1.634075 S    
C15   C16   1.407438 A    
C5    N3    1.495323 S    
C6    I9    2.225759 S    
C24   N5    1.429222 S    
C38   C41   1.413287 A    
