data_mof_unit_45656.cif
_audit_creation_date              2012-12-11T15:09:36-0500
_audit_creation_method            fapswitch 2.2
_symmetry_space_group_name_H-M    P1
_symmetry_Int_Tables_number       1
_space_group_crystal_system       triclinic
_cell_length_a                    20.956814
_cell_length_b                    7.128219
_cell_length_c                    14.018037
_cell_angle_alpha                 90.003135
_cell_angle_beta                  98.195127
_cell_angle_gamma                 89.995011
_cell_volume                      2072.69707284

loop_
_atom_site_label
_atom_site_type_symbol
_atom_type_description
_atom_site_fract_x
_atom_site_fract_y
_atom_site_fract_z
_atom_type_partial_charge
O1    O     O_R   0.447130 0.507140 0.597350 -0.543608
O2    O     O_R   0.552870 0.007140 0.402650 -0.543598
O3    O     O_R   0.578910 0.181280 0.586990 -0.545736
O4    O     O_R   0.421090 0.681280 0.413010 -0.545781
C1    C     C_R   0.604517 0.344474 0.607322 0.742290
C2    C     C_R   0.395483 0.844481 0.392678 0.742395
O5    O     O_R   0.449230 0.177860 0.608640 -0.521939
O6    O     O_R   0.550770 0.677860 0.391360 -0.522068
O7    O     O_R   0.422260 0.000770 0.424450 -0.523119
O8    O     O_R   0.577740 0.500770 0.575550 -0.523087
C3    C     C_R   0.432452 0.346420 0.634148 0.756284
C4    C     C_R   0.567541 0.846399 0.365846 0.756453
O9    O     O_3   0.491310 0.336980 0.439550 -0.379339
O10   O     O_3   0.508690 0.836980 0.560450 -0.379228
V1    V     V_3+5 0.501610 0.064760 0.511210 1.510598
V2    V     V_3+5 0.498390 0.564760 0.488790 1.510421
C5    C     C_R   0.622901 0.941834 0.128549 -0.152753
C6    C     C_R   0.377051 0.443313 0.871280 -0.152738
H1    H     H_    0.533012 0.958899 0.183839 0.118573
H2    H     H_    0.466917 0.460342 0.815930 0.118633
H3    H     H_    0.705786 0.953914 0.002741 0.123790
H4    H     H_    0.294158 0.456205 0.997067 0.123769
H5    H     H_    0.601415 0.984655 0.056930 0.122009
H6    H     H_    0.398507 0.486855 0.942796 0.121995
C7    C     C_R   0.609374 0.857915 0.291149 -0.080194
C8    C     C_R   0.390634 0.358052 0.708867 -0.080258
C9    C     C_R   0.922269 0.852555 0.306453 -0.169953
C10   C     C_R   0.077742 0.351511 0.693563 -0.169884
C11   C     C_R   0.885788 0.861621 0.381605 -0.124498
C12   C     C_R   0.114217 0.360110 0.618389 -0.124524
C13   C     C_R   0.818777 0.869663 0.362301 -0.077033
C14   C     C_R   0.181225 0.368528 0.637682 -0.077016
C15   C     C_R   0.786272 0.860117 0.266822 0.095595
C16   C     C_R   0.213736 0.359880 0.733191 0.095657
C17   C     C_R   0.824083 0.869043 0.190244 0.058981
C18   C     C_R   0.175919 0.369350 0.809752 0.058952
C19   C     C_R   0.717562 0.860319 0.244869 0.007855
C20   C     C_R   0.282446 0.360454 0.755151 0.007886
C21   C     C_R   0.689287 0.908710 0.149664 0.101889
C22   C     C_R   0.310688 0.409768 0.850246 0.101939
C23   C     C_R   0.727372 0.923106 0.076009 -0.178412
C24   C     C_R   0.272593 0.424688 0.923868 -0.178343
C25   C     C_R   0.793478 0.895713 0.095180 -0.187285
C26   C     C_R   0.206505 0.396925 0.904760 -0.187308
C27   C     C_R   0.675350 0.814057 0.312488 0.292659
C28   C     C_R   0.324689 0.313731 0.687640 0.292650
C29   C     C_R   0.583820 0.925204 0.200198 -0.235957
C30   C     C_R   0.416138 0.426239 0.799663 -0.235670
C31   C     C_R   0.892092 0.859861 0.211019 -0.072060
C32   C     C_R   0.107918 0.359728 0.788992 -0.072067
H7    H     H_    0.974374 0.847792 0.322686 0.110057
H8    H     H_    0.025640 0.346360 0.677335 0.110064
H9    H     H_    0.793597 0.895219 0.422874 0.174390
H10   H     H_    0.206391 0.393641 0.577051 0.174317
H11   H     H_    0.909620 0.866871 0.455338 0.128982
H12   H     H_    0.090381 0.364655 0.544638 0.128949
H13   H     H_    0.820720 0.904984 0.035281 0.121171
H14   H     H_    0.179255 0.406633 0.964638 0.121205
C33   C     C_1   0.166571 0.857133 0.168403 -0.185909
C34   C     C_1   0.833429 0.357149 0.831596 -0.185860
C35   C     C_1   0.218949 0.854868 0.219561 0.012425
C36   C     C_1   0.781052 0.354877 0.780438 0.012503
C37   C     C_1   0.280684 0.853425 0.279623 0.023464
C38   C     C_1   0.719316 0.353418 0.720376 0.023594
C39   C     C_1   0.333052 0.851094 0.330807 -0.150547
C40   C     C_1   0.666948 0.351080 0.669192 -0.150409
O11   O     O_R   0.922300 0.202240 0.924350 -0.534211
O12   O     O_R   0.077700 0.702240 0.075650 -0.534244
O13   O     O_R   0.050780 0.535130 0.891350 -0.540254
O14   O     O_R   0.949220 0.035130 0.108650 -0.540240
C41   C     C_R   0.067321 0.367992 0.865411 0.686555
C42   C     C_R   0.932685 0.868014 0.134596 0.686548
O15   O     O_R   0.921100 0.531560 0.912990 -0.537276
O16   O     O_R   0.078900 0.031560 0.087010 -0.537264
O17   O     O_R   0.947120 0.708470 0.097370 -0.537298
O18   O     O_R   0.052880 0.208470 0.902630 -0.537277
C43   C     C_R   0.895879 0.363567 0.893423 0.715021
C44   C     C_R   0.104121 0.863560 0.106576 0.714997
O19   O     O_3   0.008710 0.375800 0.060400 -0.373836
O20   O     O_3   0.991290 0.875800 0.939600 -0.373825
V3    V     V_3+5 0.998380 0.648080 0.988790 1.438156
V4    V     V_3+5 0.001620 0.148080 0.011210 1.438211
Cl1   Cl    Cl    0.699728 0.671421 0.415045 -0.690013
Cl2   Cl    Cl    0.300403 0.170111 0.585416 -0.689960

loop_
_geom_bond_atom_site_label_1
_geom_bond_atom_site_label_2
_ccdc_geom_bond_type
C20   C22   A    
C37   C39   T    
C9    C11   A    
O11   C43   A    
O2    C4    A    
C2    O7    A    
C18   C32   A    
C21   C23   A    
O5    C3    A    
C5    H5    S    
C6    H6    S    
O12   V3    S    
C41   O18   A    
O20   V3    S    
H1    C29   S    
C34   C36   T    
C5    C21   A    
C14   H10   S    
O13   C41   A    
C6    C22   A    
C36   C38   S    
C10   C32   A    
C2    C39   S    
C26   H14   S    
C31   C42   S    
O1    C3    A    
C17   C31   A    
C13   C15   A    
C17   C25   A    
C7    C29   A    
C8    C30   A    
C22   C24   A    
O6    V2    S    
C23   C25   A    
C27   Cl1   S    
C24   C26   A    
O16   V4    S    
C42   O17   A    
C33   C44   S    
O15   V3    S    
C9    H7    S    
O12   C44   A    
C34   C43   S    
C33   C35   T    
O20   V4    S    
O18   V4    S    
O19   V3    S    
C25   H13   S    
O17   V3    S    
C11   H11   S    
C3    C8    S    
C12   H12   S    
C15   C19   A    
C14   C16   A    
O4    V2    S    
C32   C41   S    
O6    C4    A    
C35   C37   S    
O1    V2    S    
C13   H9    S    
O2    V1    S    
H2    C30   S    
C28   Cl2   S    
O4    C2    A    
H3    C23   S    
C18   C26   A    
C19   C27   A    
C7    C27   A    
O3    V1    S    
C16   C20   A    
C5    C29   A    
C1    C40   S    
O3    C1    A    
C6    C30   A    
O19   V4    S    
C4    C7    S    
C10   C12   A    
O7    V1    S    
C1    O8    A    
C11   C13   A    
O8    V2    S    
C12   C14   A    
C10   H8    S    
H4    C24   S    
O5    V1    S    
C15   C17   A    
C16   C18   A    
O14   V4    S    
C20   C28   A    
O13   V3    S    
C8    C28   A    
O11   V4    S    
C19   C21   A    
O16   C44   A    
O9    V2    S    
O15   C43   A    
O10   V1    S    
O14   C42   A    
C9    C31   A    
C38   C40   T    
