data_mof_unit_8237.cif
_audit_creation_date              2012-12-10T16:51:48-0500
_audit_creation_method            fapswitch 2.2
_symmetry_space_group_name_H-M    P1
_symmetry_Int_Tables_number       1
_space_group_crystal_system       triclinic
_cell_length_a                    15.434072
_cell_length_b                    15.557634
_cell_length_c                    9.697994
_cell_angle_alpha                 90.213669
_cell_angle_beta                  88.664526
_cell_angle_gamma                 90.305334
_cell_volume                      2327.97873982

loop_
_atom_site_label
_atom_site_type_symbol
_atom_type_description
_atom_site_fract_x
_atom_site_fract_y
_atom_site_fract_z
_atom_type_partial_charge
C1    C     C_R   0.378830 0.885884 0.501682 0.711171
C2    C     C_R   0.382593 0.117537 0.502104 0.739438
C3    C     C_R   0.878831 0.385883 0.501682 0.711165
C4    C     C_R   0.882593 0.617537 0.502104 0.739436
C5    C     C_R   0.619783 0.114578 0.498916 0.832052
C6    C     C_R   0.615286 0.881456 0.498694 0.812631
C7    C     C_R   0.119783 0.614578 0.498916 0.832055
C8    C     C_R   0.115285 0.381456 0.498695 0.812636
C9    C     C_2   0.723677 0.788793 0.390260 -0.134074
C10   C     C_2   0.722008 0.213291 0.385579 -0.117478
C11   C     C_2   0.223668 0.288784 0.390254 -0.134071
C12   C     C_2   0.222011 0.713289 0.385580 -0.117474
C13   C     C_2   0.671200 0.808051 0.497539 -0.255053
C14   C     C_2   0.693718 0.171636 0.498303 -0.253258
C15   C     C_2   0.171200 0.308051 0.497541 -0.255061
C16   C     C_2   0.193716 0.671638 0.498306 -0.253267
C17   C     C_2   0.283762 0.215839 0.393482 -0.252343
C18   C     C_2   0.294333 0.774440 0.394402 -0.249846
C19   C     C_2   0.783772 0.715848 0.393483 -0.252339
C20   C     C_2   0.794329 0.274443 0.394399 -0.249852
C21   C     C_2   0.318386 0.186416 0.510521 0.334715
C22   C     C_2   0.304179 0.826466 0.504591 0.312330
C23   C     C_2   0.818385 0.686414 0.510523 0.334715
C24   C     C_2   0.804181 0.326462 0.504594 0.312333
C25   C     C_2   0.429895 0.004067 0.925959 0.035731
C26   C     C_2   0.929895 0.504059 0.925960 0.035745
C27   C     C_2   0.430201 0.989496 0.079969 -0.040389
C28   C     C_2   0.930202 0.489486 0.079969 -0.040399
Cu1   Cu    Cu3+1 0.500020 1.000000 0.638630 0.967085
Cu2   Cu    Cu3+1 0.000020 0.500000 0.638630 0.967090
Cu3   Cu    Cu3+1 0.499980 0.000000 0.361370 0.936818
Cu4   Cu    Cu3+1 0.999980 0.500000 0.361370 0.936816
H1    H     H_    0.722231 0.826663 0.296418 0.157625
H2    H     H_    0.693793 0.201293 0.285709 0.155192
H3    H     H_    0.222215 0.326645 0.296404 0.157630
H4    H     H_    0.193803 0.701285 0.285707 0.155198
H5    H     H_    0.666047 0.768855 0.588401 0.185498
H6    H     H_    0.726938 0.178245 0.594319 0.161985
H7    H     H_    0.166055 0.268862 0.588412 0.185499
H8    H     H_    0.226930 0.678253 0.594326 0.161987
H9    H     H_    0.301982 0.187715 0.294362 0.133487
H10   H     H_    0.340160 0.776025 0.307629 0.138170
H11   H     H_    0.802002 0.687735 0.294361 0.133489
H12   H     H_    0.840151 0.276034 0.307618 0.138169
H13   H     H_    0.368401 0.017027 0.879471 0.065876
H14   H     H_    0.868398 0.517012 0.879472 0.065853
H15   H     H_    0.369529 0.972070 0.131427 0.132510
H16   H     H_    0.869534 0.472050 0.131426 0.132513
H17   H     H_    0.549556 0.032573 0.107692 0.223903
H18   H     H_    0.049549 0.532584 0.107692 0.223898
N1    N     N_2   0.498660 1.000000 0.846910 -0.005796
N2    N     N_2   0.998660 0.500000 0.846910 -0.005795
N3    N     N_2   0.498630 0.000000 0.153040 -0.261323
N4    N     N_2   0.998630 0.500000 0.153040 -0.261324
O1    O     O_R   0.410990 0.910970 0.617040 -0.583634
O2    O     O_R   0.410990 0.089030 0.617040 -0.587083
O3    O     O_R   0.910990 0.410970 0.617040 -0.583635
O4    O     O_R   0.910990 0.589030 0.617040 -0.587073
O5    O     O_R   0.410950 0.910970 0.382900 -0.586894
O6    O     O_R   0.410950 0.089030 0.382900 -0.598041
O7    O     O_R   0.910950 0.410970 0.382900 -0.586899
O8    O     O_R   0.910950 0.589030 0.382900 -0.598043
O9    O     O_R   0.589050 0.089030 0.617100 -0.608367
O10   O     O_R   0.589050 0.910970 0.617100 -0.561541
O11   O     O_R   0.089050 0.589030 0.617100 -0.608368
O12   O     O_R   0.089050 0.410970 0.617100 -0.561538
O13   O     O_R   0.589010 0.089030 0.382960 -0.583280
O14   O     O_R   0.589010 0.910970 0.382960 -0.571837
O15   O     O_R   0.089010 0.589030 0.382960 -0.583278
O16   O     O_R   0.089010 0.410970 0.382960 -0.571837
O17   O     O_3   0.304954 0.231221 0.634098 -0.607223
C29   C     C_3   0.275440 0.179657 0.747242 0.058982
H19   H     H_    0.242037 0.223989 0.820901 0.167015
H20   H     H_    0.331335 0.154769 0.804206 0.163627
C30   C     C_3   0.210893 0.106411 0.712618 -0.410735
H21   H     H_    0.159687 0.129863 0.644071 0.219146
H22   H     H_    0.245221 0.053067 0.658696 0.209318
C31   C     C_3   0.167303 0.070254 0.843063 -0.913411
H23   H     H_    0.216490 0.046004 0.914762 0.236228
H24   H     H_    0.123713 0.016200 0.815269 0.262006
H25   H     H_    0.128073 0.120705 0.896016 0.263657
O18   O     O_3   0.234929 0.833691 0.600441 -0.609693
C32   C     C_3   0.258606 0.844732 0.739899 0.074771
H26   H     H_    0.197315 0.850047 0.801610 0.156639
H27   H     H_    0.290921 0.907165 0.757791 0.164621
C33   C     C_3   0.308048 0.767330 0.797560 -0.378889
H28   H     H_    0.262952 0.711827 0.808837 0.200678
H29   H     H_    0.362447 0.748450 0.727056 0.220128
C34   C     C_3   0.344463 0.786779 0.939140 -0.894246
H30   H     H_    0.398512 0.833516 0.928943 0.286579
H31   H     H_    0.370361 0.726967 0.984284 0.253058
H32   H     H_    0.293297 0.812759 0.009936 0.238987
O19   O     O_3   0.804938 0.731206 0.634109 -0.607221
C35   C     C_3   0.775415 0.679627 0.747229 0.058965
H33   H     H_    0.742003 0.723950 0.820893 0.167014
H34   H     H_    0.831304 0.654733 0.804199 0.163633
C36   C     C_3   0.710874 0.606385 0.712566 -0.410733
H35   H     H_    0.659670 0.629847 0.644024 0.219145
H36   H     H_    0.745208 0.553052 0.658626 0.209326
C37   C     C_3   0.667281 0.570205 0.842989 -0.913398
H37   H     H_    0.716466 0.545941 0.914679 0.236223
H38   H     H_    0.623691 0.516157 0.815166 0.262021
H39   H     H_    0.628049 0.620646 0.895964 0.263648
O20   O     O_3   0.734939 0.333679 0.600457 -0.609693
C38   C     C_3   0.758624 0.344710 0.739914 0.074770
H40   H     H_    0.697337 0.350010 0.801637 0.156643
H41   H     H_    0.790931 0.407145 0.757813 0.164626
C39   C     C_3   0.808083 0.267310 0.797549 -0.378888
H42   H     H_    0.763001 0.211794 0.808804 0.200682
H43   H     H_    0.862488 0.248452 0.727041 0.220130
C40   C     C_3   0.844489 0.286746 0.939138 -0.894253
H44   H     H_    0.898521 0.333505 0.928967 0.286569
H45   H     H_    0.870408 0.226936 0.984255 0.253063
H46   H     H_    0.793313 0.312695 0.009945 0.238983
O21   O     O_3   0.564780 0.955407 0.900589 -0.514232
C41   C     C_3   0.641563 0.004228 0.881524 0.181345
H47   H     H_    0.630707 0.073381 0.907111 0.106292
H48   H     H_    0.666629 0.998914 0.774208 0.184926
C42   C     C_3   0.711376 0.968704 0.974879 -0.409323
H49   H     H_    0.687317 0.967643 0.083722 0.227592
H50   H     H_    0.726747 0.901612 0.943296 0.229223
C43   C     C_3   0.793911 0.023055 0.966068 -0.935087
H51   H     H_    0.819466 0.025450 0.858092 0.259519
H52   H     H_    0.843951 0.994457 0.032055 0.266975
H53   H     H_    0.780492 0.089410 0.003053 0.255552
O22   O     O_3   0.064784 0.455412 0.900588 -0.514231
C44   C     C_3   0.141563 0.504241 0.881524 0.181357
H54   H     H_    0.130696 0.573396 0.907085 0.106308
H55   H     H_    0.166638 0.498915 0.774214 0.184914
C45   C     C_3   0.211371 0.468740 0.974909 -0.409334
H56   H     H_    0.187298 0.467679 0.083744 0.227606
H57   H     H_    0.226765 0.401650 0.943343 0.229209
C46   C     C_3   0.293893 0.523111 0.966121 -0.935111
H58   H     H_    0.319486 0.525476 0.858166 0.259537
H59   H     H_    0.343918 0.494553 0.032183 0.266973
H60   H     H_    0.280443 0.589475 0.003035 0.255543

loop_
_geom_bond_atom_site_label_1
_geom_bond_atom_site_label_2
_ccdc_geom_bond_type
Cu1   O9    S    
C8    O12   A    
O19   C35   S    
C45   H57   S    
C40   H44   S    
C5    O13   A    
C25   N1    D    
C36   H35   S    
C41   H47   S    
Cu3   O13   S    
C38   H41   S    
H18   N4    S    
C21   O17   S    
C22   O18   S    
Cu4   O7    S    
C1    O5    A    
C33   H29   S    
C7    O11   A    
C3    O7    A    
Cu3   O5    S    
O21   C41   S    
Cu2   O3    S    
C4    O8    A    
C39   H42   S    
C5    O9    A    
C6    O10   A    
C9    C13   D    
C36   H36   S    
C11   C15   D    
C9    C19   S    
C11   C17   S    
C20   C24   D    
C10   C20   S    
C46   H60   S    
C34   H31   S    
C13   H5    S    
C6    O14   A    
Cu1   O10   S    
C1    C22   S    
C9    H1    S    
C3    C24   S    
C29   C30   S    
Cu4   N4    S    
O20   C38   S    
C20   H12   S    
C19   H11   S    
C17   H9    S    
C42   H50   S    
Cu3   O14   S    
C38   C39   S    
C41   C42   S    
C12   C16   D    
C10   H2    S    
C41   H48   S    
C10   C14   D    
C4    C23   S    
C28   N4    D    
C33   H28   S    
Cu4   O16   S    
Cu1   O1    S    
C35   C36   S    
C37   H39   S    
N1    O21   S    
C23   O19   S    
C24   O20   S    
Cu3   O6    S    
C19   C23   D    
C30   H21   S    
C44   H55   S    
C26   N2    D    
C14   H6    S    
C32   H26   S    
C2    C21   S    
C37   H38   S    
C31   H24   S    
C40   H45   S    
Cu3   N3    S    
C34   H32   S    
C35   H34   S    
C30   H22   S    
C15   H7    S    
C5    C14   S    
Cu2   O12   S    
C16   H8    S    
C3    O3    A    
C29   H20   S    
C7    C16   S    
C32   H27   S    
C8    C15   S    
C46   H58   S    
C45   C46   S    
C12   H4    S    
C43   H52   S    
C44   H54   S    
C34   H30   S    
C25   H13   S    
C36   C37   S    
Cu1   N1    S    
C42   C43   S    
C27   H15   S    
Cu2   N2    S    
C28   H16   S    
N2    O22   S    
C4    O4    A    
C18   C22   D    
C26   C28   S    
C29   H19   S    
C33   C34   S    
C7    O15   A    
C42   H49   S    
C27   N3    D    
Cu4   O15   S    
Cu1   O2    S    
C25   C27   S    
C38   H40   S    
C8    O16   A    
C39   C40   S    
C43   H53   S    
C18   H10   S    
C45   H56   S    
C1    O1    A    
C44   C45   S    
Cu4   O8    S    
O17   C29   S    
Cu1   Cu3   S    
C2    O2    A    
C6    C13   S    
Cu2   Cu4   S    
C31   H23   S    
C31   H25   S    
O22   C44   S    
H17   N3    S    
Cu2   O4    S    
C11   H3    S    
C37   H37   S    
C39   H43   S    
C40   H46   S    
C2    O6    A    
C35   H33   S    
C30   C31   S    
C17   C21   D    
Cu2   O11   S    
C26   H14   S    
C32   C33   S    
O18   C32   S    
C12   C18   S    
C46   H59   S    
C43   H51   S    
