data_mof_unit_38793.cif
_audit_creation_date              2012-12-10T17:25:34-0500
_audit_creation_method            fapswitch 2.2
_symmetry_space_group_name_H-M    P1
_symmetry_Int_Tables_number       1
_space_group_crystal_system       triclinic
_cell_length_a                    10.223592
_cell_length_b                    10.993006
_cell_length_c                    23.353188
_cell_angle_alpha                 92.097681
_cell_angle_beta                  81.619817
_cell_angle_gamma                 96.966102
_cell_volume                      2576.9480666

loop_
_atom_site_label
_atom_site_type_symbol
_atom_type_description
_atom_site_fract_x
_atom_site_fract_y
_atom_site_fract_z
_atom_type_partial_charge
C1    C     C_R   0.557486 0.731153 0.492038 0.838497
C2    C     C_R   0.400576 0.479068 0.298078 0.394518
C3    C     C_R   0.473119 0.573652 0.769717 -0.100015
C4    C     C_R   0.404541 0.505252 0.239581 -0.135190
C5    C     C_R   0.521533 0.468994 0.788752 0.028701
C6    C     C_R   0.530778 0.530910 0.205704 0.043161
C7    C     C_2   0.595050 0.859937 0.477038 -0.366718
C8    C     C_2   0.411167 0.133549 0.496249 -0.350966
C9    C     C_2   0.497271 0.930565 0.471792 0.322018
C10   C     C_2   0.511975 0.060772 0.491784 0.334332
C11   C     C_2   0.922831 0.497180 0.511833 0.067212
C12   C     C_R   0.443174 0.267051 0.502826 0.861183
C13   C     C_2   0.065616 0.476487 0.503679 0.088811
C14   C     C_R   0.499250 0.498265 0.610317 0.935537
C15   C     C_R   0.501751 0.502929 0.389248 0.899137
C16   C     C_R   0.510314 0.403394 0.120863 0.632542
C17   C     C_R   0.632531 0.552748 0.868063 0.591072
C18   C     C_R   0.589976 0.615283 0.110125 0.617100
C19   C     C_R   0.470158 0.378542 0.883495 0.627394
C20   C     C_R   0.615383 0.599877 0.049542 -0.074884
C21   C     C_R   0.492292 0.373026 0.941283 -0.079561
C22   C     C_R   0.561427 0.488343 0.025122 0.007022
C23   C     C_R   0.541230 0.367834 0.750652 -0.078025
C24   C     C_R   0.562649 0.477178 0.964901 0.010267
C25   C     C_R   0.504062 0.388925 0.061138 -0.078346
C26   C     C_R   0.631191 0.571239 0.928182 -0.081920
C27   C     C_R   0.687562 0.693039 0.013083 -0.110907
C28   C     C_R   0.440339 0.270938 0.976381 -0.103396
C29   C     C_R   0.694919 0.679051 0.952417 -0.110614
C30   C     C_R   0.445361 0.279060 0.036422 -0.095483
C31   C     C_2   0.762557 0.802331 0.037637 1.050826
C32   C     C_2   0.388006 0.152467 0.950354 1.041530
C33   C     C_3   0.174095 0.683323 0.597269 0.305847
C34   C     C_R   0.647184 0.553092 0.232298 -0.114838
C35   C     C_3   0.105218 0.783192 0.631932 -0.813753
C36   C     C_3   0.842962 0.317125 0.402287 0.276272
C37   C     C_3   0.892375 0.299567 0.338283 -0.780645
C38   C     C_2   0.763455 0.781613 0.915597 1.051224
C39   C     C_2   0.383758 0.173036 0.072497 1.052993
C40   C     C_2   0.593519 0.257262 0.769030 1.047396
C41   C     C_2   0.781890 0.561666 0.197114 1.029629
C42   C     C_3   0.333480 0.252325 0.664494 0.116006
C43   C     C_3   0.277784 0.117961 0.665161 -0.746747
C44   C     C_3   0.770143 0.705010 0.334654 0.201438
C45   C     C_R   0.509121 0.373017 0.694642 0.346864
C46   C     C_3   0.906528 0.731024 0.354298 -0.650877
C47   C     C_3   0.535977 0.772728 0.670845 0.117392
C48   C     C_3   0.488793 0.897704 0.670320 -0.763482
C49   C     C_3   0.350009 0.274553 0.315350 0.118592
C50   C     C_3   0.250494 0.183448 0.288627 -0.688242
C51   C     C_2   0.423431 0.667941 0.812070 1.034356
C52   C     C_2   0.277544 0.497448 0.214123 0.995773
C53   C     C_3   0.640185 0.091879 0.564514 0.042323
C54   C     C_3   0.760932 0.169277 0.582853 -0.619346
C55   C     C_3   0.383490 0.843159 0.400671 0.162126
C56   C     C_R   0.635266 0.558551 0.292940 0.289545
C57   C     C_3   0.249778 0.779389 0.388096 -0.667206
C58   C     C_2   0.272991 0.086173 0.489186 1.036746
C59   C     C_2   0.739257 0.906581 0.463245 0.938103
C60   C     C_2   0.096020 0.355878 0.481660 0.931492
C61   C     C_2   0.869796 0.552357 0.567400 0.982187
C62   C     C_R   0.495542 0.487049 0.672457 -0.274258
C63   C     C_R   0.511448 0.517090 0.326201 -0.334142
C64   C     C_R   0.470233 0.585999 0.710293 0.315651
H1    H     H_    0.903908 0.867067 0.086502 0.368484
H2    H     H_    0.002580 0.314217 0.330543 0.311501
H3    H     H_    0.857996 0.205219 0.323874 0.209231
H4    H     H_    0.853300 0.366225 0.312534 0.287750
H5    H     H_    0.936147 0.883819 0.886587 0.363241
H6    H     H_    0.390130 0.997657 0.093300 0.363591
H7    H     H_    0.587326 0.073278 0.766569 0.364575
H8    H     H_    0.970703 0.644661 0.184147 0.365347
H9    H     H_    0.311545 0.292020 0.624481 0.173802
H10   H     H_    0.277386 0.297330 0.702543 0.161440
H11   H     H_    0.296203 0.075689 0.705158 0.277532
H12   H     H_    0.236329 0.016954 0.949763 0.365593
H13   H     H_    0.168637 0.109352 0.664528 0.239549
H14   H     H_    0.323746 0.069612 0.626402 0.245053
H15   H     H_    0.693074 0.727003 0.370888 0.090534
H16   H     H_    0.767428 0.765799 0.297782 0.163904
H17   H     H_    0.983985 0.699389 0.320554 0.268916
H18   H     H_    0.931133 0.830788 0.361669 0.190579
H19   H     H_    0.907322 0.682552 0.395122 0.283008
H20   H     H_    0.578353 0.748191 0.625996 0.127352
H21   H     H_    0.615528 0.778928 0.699308 0.181340
H22   H     H_    0.420800 0.913594 0.710679 0.314736
H23   H     H_    0.281443 0.716265 0.589491 0.196152
H24   H     H_    0.575302 0.969325 0.667854 0.227511
H25   H     H_    0.435199 0.902663 0.632606 0.208513
H26   H     H_    0.363212 0.241133 0.358186 0.163609
H27   H     H_    0.448317 0.273616 0.287149 0.139817
H28   H     H_    0.233272 0.217366 0.246467 0.291119
H29   H     H_    0.290487 0.093778 0.281220 0.209787
H30   H     H_    0.154614 0.169155 0.317842 0.231666
H31   H     H_    0.413694 0.846940 0.832286 0.373614
H32   H     H_    0.077331 0.457714 0.225792 0.356162
H33   H     H_    0.649662 0.994456 0.571843 0.139590
H34   H     H_    0.157546 0.599895 0.624374 0.154555
H35   H     H_    0.550207 0.118617 0.591970 0.202623
H36   H     H_    0.759044 0.266967 0.572948 0.267535
H37   H     H_    0.760679 0.160987 0.630122 0.214266
H38   H     H_    0.852844 0.136462 0.559485 0.271093
H39   H     H_    0.459038 0.778452 0.388384 0.089959
H40   H     H_    0.410199 0.925914 0.373332 0.141453
H41   H     H_    0.171862 0.842073 0.398381 0.265777
H42   H     H_    0.256624 0.751936 0.341610 0.183384
H43   H     H_    0.220947 0.696114 0.414666 0.287008
H44   H     H_    0.090042 0.019882 0.527362 0.377538
H45   H     H_    0.999330 0.749893 0.646593 0.260637
H46   H     H_    0.880286 0.018968 0.415025 0.335494
H47   H     H_    0.146666 0.253059 0.411763 0.352175
H48   H     H_    0.794580 0.696965 0.609351 0.306629
H49   H     H_    0.154601 0.809110 0.670676 0.232985
H50   H     H_    0.111133 0.865397 0.605193 0.290816
H51   H     H_    0.733071 0.309535 0.407710 0.190932
H52   H     H_    0.872853 0.242550 0.426669 0.155433
N1    N     N_R   0.542812 0.516871 0.143966 -0.303727
N2    N     N_R   0.544095 0.464497 0.847858 -0.312951
N3    N     N_2   0.842710 0.448880 0.476480 -0.019585
N4    N     N_2   0.157290 0.551120 0.523520 -0.013616
O1    O     O_R   0.431060 0.692470 0.504730 -0.568913
O2    O     O_2   0.718301 0.622721 0.829740 -0.531250
O3    O     O_2   0.609720 0.726963 0.135480 -0.540319
O4    O     O_2   0.372774 0.302241 0.863341 -0.531133
O5    O     O_2   0.739308 0.905428 0.027661 -0.553118
O6    O     O_R   0.859839 0.786371 0.072139 -0.736693
O7    O     O_2   0.457503 0.103514 0.911235 -0.551104
O8    O     O_R   0.260066 0.097122 0.970795 -0.759057
O9    O     O_3   0.122741 0.660695 0.544471 -0.536780
O10   O     O_3   0.900120 0.431450 0.421535 -0.527997
O11   O     O_2   0.698900 0.840928 0.889114 -0.540357
O12   O     O_R   0.568940 0.307530 0.495270 -0.579335
O13   O     O_R   0.901064 0.811711 0.912563 -0.761894
O14   O     O_2   0.281362 0.181101 0.106048 -0.565401
O15   O     O_R   0.441562 0.063538 0.066866 -0.740428
O16   O     O_2   0.680259 0.268262 0.800438 -0.596493
O17   O     O_R   0.544710 0.140658 0.750378 -0.767782
O18   O     O_2   0.803872 0.491239 0.156019 -0.601953
O19   O     O_R   0.884221 0.648671 0.211223 -0.779946
O20   O     O_3   0.473595 0.265497 0.665024 -0.615867
O21   O     O_3   0.749773 0.580032 0.318606 -0.566616
O22   O     O_3   0.425364 0.687763 0.690455 -0.605429
O23   O     O_R   0.651120 0.659650 0.489640 -0.561477
O24   O     O_3   0.302440 0.391586 0.323051 -0.521337
O25   O     O_2   0.356869 0.636238 0.858087 -0.602549
O26   O     O_R   0.452775 0.792487 0.799860 -0.762525
O27   O     O_2   0.277638 0.531791 0.164900 -0.617158
O28   O     O_R   0.156113 0.457227 0.247570 -0.753948
O29   O     O_3   0.635942 0.109670 0.505404 -0.589122
O30   O     O_3   0.373628 0.876701 0.460059 -0.576186
O31   O     O_2   0.240402 0.075273 0.440825 -0.673266
O32   O     O_R   0.180766 0.052782 0.537783 -0.791142
O33   O     O_2   0.821400 0.868329 0.488998 -0.577542
O34   O     O_R   0.348880 0.340350 0.510360 -0.623631
O35   O     O_R   0.780703 0.993276 0.419970 -0.814935
O36   O     O_2   0.061815 0.266857 0.512353 -0.669330
O37   O     O_R   0.152543 0.342058 0.424447 -0.714883
O38   O     O_2   0.873671 0.500891 0.612574 -0.666504
O39   O     O_R   0.823508 0.666801 0.568522 -0.719290
O40   O     O_R   0.389950 0.516450 0.591390 -0.655624
O41   O     O_R   0.610050 0.483550 0.408610 -0.586108
O42   O     O_R   0.610020 0.483630 0.576300 -0.617108
O43   O     O_R   0.389980 0.516370 0.423700 -0.569578
O44   O     O_2   0.484218 0.306353 0.156162 -0.560016
Zn1   Zn    Zn3+2 0.353060 0.521920 0.510080 1.010071
Zn2   Zn    Zn3+2 0.646940 0.478080 0.489920 1.022794

loop_
_geom_bond_atom_site_label_1
_geom_bond_atom_site_label_2
_ccdc_geom_bond_type
C57   H41   S    
C37   H4    S    
C34   C56   A    
C23   C45   A    
H48   O39   S    
C27   C29   A    
C2    O24   S    
C54   H37   S    
C18   N1    A    
C49   H26   S    
C11   N3    D    
C59   O33   D    
H7    O17   S    
C13   C60   S    
C39   O15   S    
C53   C54   S    
C16   O44   S    
C43   H14   S    
C34   C41   S    
C47   O22   S    
C4    C52   S    
C17   C26   A    
C47   H21   S    
C32   O7    D    
C15   O43   A    
C36   C37   S    
O43   Zn1   S    
O12   Zn2   S    
C61   O39   S    
C10   O29   S    
C51   O25   D    
C23   C40   S    
C14   C62   S    
C49   O24   S    
C55   H39   S    
C45   C62   A    
C25   C30   A    
N3    O10   S    
C35   H50   S    
C47   H20   S    
C33   H34   S    
C38   O13   S    
C62   C64   A    
H46   O35   S    
C8    C58   S    
C46   H18   S    
H8    O19   S    
C19   N2    A    
C58   O32   S    
C44   O21   S    
C22   C25   A    
C29   C38   S    
C48   H24   S    
O34   Zn1   S    
C35   H49   S    
C9    C10   S    
C6    N1    S    
C18   C20   A    
O41   Zn2   S    
C35   H45   S    
C18   O3    S    
C57   H42   S    
C19   O4    S    
C52   O28   S    
H44   O32   S    
C40   O17   S    
C53   O29   S    
C54   H36   S    
H31   O26   S    
C49   H27   S    
C7    C59   S    
C44   C46   S    
N4    Zn1   S    
C43   H11   S    
H32   O28   S    
C9    O30   S    
C42   H10   S    
C27   C31   S    
N4    O9    S    
C44   H16   S    
C60   O37   S    
C4    C6    A    
C59   O35   S    
C50   H30   S    
C51   O26   S    
C3    C5    A    
C3    C64   A    
C42   O20   S    
C55   H40   S    
C45   O20   S    
C53   H35   S    
C6    C34   A    
C14   O40   A    
C14   O42   A    
C2    C4    A    
C60   O36   D    
O23   Zn2   S    
C1    O23   A    
C36   O10   S    
C46   H17   S    
C40   O16   D    
C47   C48   S    
C5    C23   A    
C28   C32   S    
C8    C12   S    
C37   H2    S    
C56   C63   A    
O40   Zn1   S    
N3    Zn2   S    
C41   O18   D    
C17   N2    A    
C56   O21   S    
C50   H28   S    
C57   H43   S    
C21   C28   A    
C20   C22   A    
C52   O27   D    
C48   H25   S    
C55   C57   S    
H6    O15   S    
H12   O8    S    
C22   C24   A    
C42   C43   S    
C31   O5    D    
C36   H52   S    
C13   N4    D    
C58   O31   D    
C55   O30   S    
C33   O9    S    
C16   C25   A    
C7    C9    D    
C2    C63   A    
C42   H9    S    
H5    O13   S    
C12   O12   A    
C19   C21   A    
C1    C7    S    
C54   H38   S    
C44   H15   S    
C24   C26   A    
C12   O34   A    
C11   C61   S    
C50   H29   S    
C20   C27   A    
C43   H13   S    
O1    Zn1   S    
C5    N2    S    
C53   H33   S    
C38   O11   D    
C32   O8    S    
C28   C30   A    
C33   H23   S    
C15   O41   A    
C61   O38   D    
H1    O6    S    
C11   C13   S    
C64   O22   S    
C37   H3    S    
C33   C35   S    
C3    C51   S    
C30   C39   S    
O42   Zn2   S    
C48   H22   S    
H47   O37   S    
C1    O1    A    
C41   O19   S    
C46   H19   S    
C17   O2    S    
C26   C29   A    
C8    C10   D    
C49   C50   S    
C21   C24   A    
C15   C63   S    
C31   O6    S    
C16   N1    A    
C36   H51   S    
C39   O14   D    
