data_mof_unit_31004.cif
_audit_creation_date              2012-12-10T18:14:39-0500
_audit_creation_method            fapswitch 2.2
_symmetry_space_group_name_H-M    P1
_symmetry_Int_Tables_number       1
_space_group_crystal_system       triclinic
_cell_length_a                    10.98535
_cell_length_b                    9.820517
_cell_length_c                    27.755646
_cell_angle_alpha                 90.302897
_cell_angle_beta                  91.467718
_cell_angle_gamma                 90.883101
_cell_volume                      2992.94322164

loop_
_atom_site_label
_atom_site_type_symbol
_atom_type_description
_atom_site_fract_x
_atom_site_fract_y
_atom_site_fract_z
_atom_type_partial_charge
C1    C     C_R   0.261657 0.498000 0.496297 0.809317
C2    C     C_R   0.431300 0.592570 0.277612 -0.190436
C3    C     C_R   0.502820 0.497463 0.254057 0.345664
C4    C     C_R   0.503135 0.499486 0.101933 -0.048908
C5    C     C_R   0.395089 0.471582 0.126335 -0.062110
C6    C     C_R   0.285601 0.454881 0.100051 -0.152323
C7    C     C_R   0.611705 0.525835 0.128686 -0.016444
C8    C     C_R   0.493278 0.498679 0.355128 -0.043009
C9    C     C_R   0.499712 0.499961 0.645138 -0.031487
C10   C     C_R   0.399883 0.450967 0.973828 0.012699
C11   C     C_R   0.606849 0.549149 0.975650 0.050397
C12   C     C_R   0.497063 0.499676 0.408144 0.824151
C13   C     C_R   0.502948 0.499232 0.949337 0.075131
C14   C     C_R   0.311169 0.375494 0.947515 -0.192751
C15   C     C_R   0.310628 0.367869 0.897381 0.217326
C16   C     C_R   0.404290 0.433950 0.871721 -0.085439
C17   C     C_R   0.502745 0.495541 0.898189 -0.076644
C18   C     C_R   0.601712 0.552906 0.873630 -0.015021
C19   C     C_R   0.599594 0.552531 0.823178 0.553909
C20   C     C_R   0.405765 0.439063 0.820849 0.565337
C21   C     C_R   0.490447 0.621376 0.721422 -0.080103
C22   C     C_R   0.488944 0.622253 0.671157 -0.179831
C23   C     C_R   0.740435 0.501383 0.500018 0.785770
C24   C     C_R   0.510937 0.376850 0.670438 -0.186230
C25   C     C_R   0.512337 0.376274 0.720632 -0.078942
C26   C     C_R   0.502200 0.498412 0.746310 0.338436
C27   C     C_R   0.393374 0.469484 0.024385 0.007067
C28   C     C_R   0.502390 0.502040 0.050858 0.049573
C29   C     C_R   0.610349 0.538691 0.026671 0.050079
C30   C     C_R   0.282674 0.459132 0.049865 0.128031
C31   C     C_R   0.718845 0.555811 0.104488 -0.126737
C32   C     C_R   0.703996 0.606594 0.949887 -0.183903
C33   C     C_R   0.700812 0.609302 0.899836 -0.112891
C34   C     C_R   0.499504 0.500179 0.592009 0.817583
C35   C     C_R   0.718312 0.562668 0.054452 -0.185956
C36   C     C_3   0.074884 0.631441 0.477538 -0.388744
C37   C     C_3   0.079398 0.454699 0.545454 -0.413064
C38   C     C_3   0.944241 0.647950 0.494278 0.111748
C39   C     C_3   0.939475 0.432449 0.544534 0.058741
C40   C     C_3   0.063973 0.389478 0.457883 -0.320277
C41   C     C_3   0.124315 0.492735 0.494362 0.040621
C42   C     C_3   0.881674 0.502861 0.499193 -0.026049
C43   C     C_3   0.924875 0.423657 0.452951 -0.469322
C44   C     C_3   0.626494 0.086080 0.507787 0.171617
C45   C     C_3   0.624774 0.918379 0.510833 0.181032
C46   C     C_3   0.432004 0.081302 0.542604 -0.033357
C47   C     C_3   0.418291 0.918234 0.538559 -0.061007
C48   C     C_3   0.442583 0.079323 0.456693 -0.267233
C49   C     C_3   0.456313 0.917972 0.454252 -0.260946
C50   C     C_R   0.397784 0.468169 0.176887 0.556601
C51   C     C_R   0.610159 0.522961 0.179268 0.538907
C52   C     C_R   0.569344 0.402902 0.281000 -0.089533
C53   C     C_R   0.565081 0.403944 0.331125 -0.269550
C54   C     C_R   0.422807 0.592282 0.327833 -0.026347
Cu1   Cu    Cu3+1 0.499860 0.642410 0.500020 0.961557
Cu2   Cu    Cu3+1 0.499860 0.357590 0.500020 0.957360
H1    H     H_    0.624272 0.328419 0.263052 0.153882
H2    H     H_    0.803919 0.574793 0.124164 0.197531
H3    H     H_    0.782491 0.653889 0.967529 0.160163
H4    H     H_    0.518919 0.280776 0.651590 0.166604
H5    H     H_    0.777254 0.655222 0.881715 0.200068
H6    H     H_    0.521376 0.280844 0.739666 0.151843
H7    H     H_    0.804932 0.583319 0.038392 0.170733
H8    H     H_    0.078444 0.640073 0.437548 0.200502
H9    H     H_    0.122722 0.360443 0.558658 0.205756
H10   H     H_    0.131015 0.715817 0.489482 0.250884
H11   H     H_    0.108199 0.535004 0.571756 0.193647
H12   H     H_    0.378744 0.664056 0.256299 0.143920
H13   H     H_    0.897466 0.696504 0.463714 0.161966
H14   H     H_    0.923010 0.321403 0.540520 0.218513
H15   H     H_    0.106923 0.397159 0.422115 0.181417
H16   H     H_    0.074812 0.283251 0.470691 0.261665
H17   H     H_    0.911089 0.489354 0.420748 0.158808
H18   H     H_    0.869807 0.335749 0.442398 0.242175
H19   H     H_    0.485394 0.096356 0.576449 0.078833
H20   H     H_    0.441949 0.877000 0.574515 0.084909
H21   H     H_    0.344465 0.104611 0.454472 0.244034
H22   H     H_    0.369377 0.869130 0.441971 0.248073
H23   H     H_    0.478817 0.124647 0.423504 0.136962
H24   H     H_    0.516400 0.893931 0.424090 0.103954
H25   H     H_    0.200351 0.444856 0.118578 0.208984
H26   H     H_    0.478684 0.718516 0.652810 0.162808
H27   H     H_    0.481701 0.716100 0.741082 0.150307
H28   H     H_    0.244044 0.315485 0.966014 0.192687
H29   H     H_    0.619251 0.331450 0.351288 0.150017
N1    N     N_R   0.504098 0.494604 0.202308 -0.462862
N2    N     N_R   0.502403 0.497107 0.798011 -0.474482
N3    N     N_3   0.500250 0.143650 0.501060 -0.232647
N4    N     N_3   0.500250 0.856350 0.501060 -0.232943
O1    O     O_R   0.317570 0.620260 0.500030 -0.590069
O2    O     O_R   0.317570 0.379740 0.500030 -0.561869
O3    O     O_R   0.499900 0.620250 0.430280 -0.578323
O4    O     O_R   0.499900 0.379750 0.430280 -0.613249
O5    O     O_R   0.682190 0.620260 0.500010 -0.586508
O6    O     O_R   0.682190 0.379740 0.500010 -0.568313
O7    O     O_R   0.499860 0.620280 0.569750 -0.578226
O8    O     O_R   0.499860 0.379720 0.569750 -0.594592
O9    O     O_2   0.294920 0.438272 0.200499 -0.529031
O10   O     O_2   0.311080 0.389709 0.794028 -0.485698
O11   O     O_2   0.713297 0.550378 0.205207 -0.534624
O12   O     O_2   0.694279 0.606447 0.799328 -0.503411
C55   C     C_2   0.333930 0.685694 0.349203 0.345710
H30   H     H_    0.309067 0.778170 0.330368 0.075793
O13   O     O_2   0.282346 0.657261 0.386312 -0.568432
I1    I     I_    0.975878 0.780616 0.557518 -0.171096
I2    I     I_    0.866279 0.483906 0.614215 -0.214774
I3    I     I_    0.717119 0.173261 0.573829 -0.223475
I4    I     I_    0.682720 0.838811 0.582240 -0.200472
C56   C     C_2   0.706233 0.137332 0.467379 0.458713
H31   H     H_    0.669620 0.167370 0.432582 0.021794
O14   O     O_2   0.816419 0.142025 0.473645 -0.508265
C57   C     C_2   0.713129 0.864666 0.474403 0.388672
H32   H     H_    0.684048 0.801515 0.444004 0.072564
O15   O     O_2   0.820128 0.896589 0.477597 -0.492853
C58   C     C_2   0.317972 0.155925 0.556339 0.468494
H33   H     H_    0.316175 0.210111 0.590545 0.034037
O16   O     O_2   0.226788 0.156567 0.530421 -0.512992
C59   C     C_2   0.287394 0.873925 0.532968 0.471365
H34   H     H_    0.249366 0.803964 0.558942 0.061055
O17   O     O_2   0.222617 0.917474 0.500367 -0.514722
I5    I     I_    0.165442 0.246042 0.866813 -0.193844
I6    I     I_    0.104387 0.489564 0.019330 -0.386132

loop_
_geom_bond_atom_site_label_1
_geom_bond_atom_site_label_2
_ccdc_geom_bond_type
C10   C27   A    
C43   H17   S    
C39   I2    S    
C21   C26   A    
C1    O1    A    
C40   H15   S    
Cu2   O6    S    
C11   C13   A    
C14   H28   S    
Cu1   Cu2   S    
C57   O15   D    
C45   C57   S    
C52   C53   A    
C23   C42   S    
C46   C58   S    
C22   H26   S    
C48   H23   S    
C28   C29   A    
C34   O7    A    
C47   H20   S    
C38   C42   S    
Cu1   O1    S    
C2    H12   S    
C56   O14   D    
C5    C6    A    
C36   H10   S    
C9    C22   A    
Cu2   N3    S    
C15   C16   A    
C20   N2    A    
C34   O8    A    
C49   H22   S    
C18   C19   A    
C59   H34   S    
C46   H19   S    
C47   C59   S    
C30   I6    S    
C26   N2    S    
C58   O16   D    
C37   H9    S    
C48   N3    S    
C45   N4    S    
C45   I4    S    
C16   C20   A    
C44   C56   S    
C43   H18   S    
C38   H13   S    
C1    O2    A    
C6    H25   S    
C40   H16   S    
C21   C22   A    
C3    N1    S    
C47   N4    S    
C36   C41   S    
Cu2   O8    S    
Cu1   O5    S    
C51   N1    A    
C57   H32   S    
C4    C28   A    
C12   O3    A    
C39   C42   S    
C46   N3    S    
C40   C43   S    
Cu2   O4    S    
C50   O9    S    
C7    C31   A    
C21   H27   S    
C24   C25   A    
C2    C54   A    
C8    C54   A    
C16   C17   A    
C4    C7    A    
C25   C26   A    
C48   H21   S    
Cu1   O3    S    
C8    C12   S    
C17   C18   A    
C55   O13   D    
C1    C41   S    
C48   C49   S    
C6    C30   A    
C11   C32   A    
C10   C14   A    
C9    C34   S    
C31   C35   A    
C12   O4    A    
C42   C43   S    
C44   C45   S    
C31   H2    S    
C44   I3    S    
C51   O11   S    
C46   C47   S    
C40   C41   S    
C15   I5    S    
C54   C55   S    
C49   N4    S    
Cu1   O7    S    
C10   C13   A    
C8    C53   A    
C53   H29   S    
C3    C52   A    
C23   O5    A    
C9    C24   A    
C29   C35   A    
C19   N2    A    
C49   H24   S    
C13   C17   A    
C32   C33   A    
C38   I1    S    
C36   C38   S    
C2    C3    A    
C7    C51   A    
Cu1   N4    S    
C36   H8    S    
C56   H31   S    
C19   O12   S    
C20   O10   S    
C33   H5    S    
C37   H11   S    
C39   H14   S    
C23   O6    A    
C25   H6    S    
C37   C41   S    
C55   H30   S    
C5    C50   A    
C18   C33   A    
C59   O17   D    
C52   H1    S    
C50   N1    A    
C4    C5    A    
C11   C29   A    
C37   C39   S    
C27   C28   A    
C14   C15   A    
C35   H7    S    
C24   H4    S    
C32   H3    S    
C44   N3    S    
Cu2   O2    S    
C58   H33   S    
C27   C30   A    
