data_mof_unit_38174.cif
_audit_creation_date              2012-12-11T14:49:56-0500
_audit_creation_method            fapswitch 2.2
_symmetry_space_group_name_H-M    P1
_symmetry_Int_Tables_number       1
_space_group_crystal_system       triclinic
_cell_length_a                    17.133413
_cell_length_b                    16.691488
_cell_length_c                    19.469614
_cell_angle_alpha                 117.271466
_cell_angle_beta                  63.486488
_cell_angle_gamma                 100.045433
_cell_volume                      4425.38515941

loop_
_atom_site_label
_atom_site_type_symbol
_atom_type_description
_atom_site_fract_x
_atom_site_fract_y
_atom_site_fract_z
_atom_type_partial_charge
C1    C     C_R   0.021933 0.761424 0.030346 -0.076438
C2    C     C_R   0.234063 0.580841 0.837811 -0.113033
C3    C     C_3   0.382671 0.853773 0.089586 -1.000958
C4    C     C_R   0.182896 0.484440 0.085375 -0.200073
C5    C     C_R   0.751240 0.459901 0.172432 -0.111113
C6    C     C_R   0.046400 0.323352 0.753695 0.544339
C7    C     C_R   0.254981 0.533276 0.063653 -0.048001
C8    C     C_R   0.022798 0.237045 0.746920 -0.100635
C9    C     C_R   0.228148 0.565168 0.765089 -0.014988
C10   C     C_R   0.998891 0.228913 0.036132 0.033769
C11   C     C_R   0.049137 0.070256 0.666720 -0.239936
C12   C     C_R   0.048238 0.154539 0.667927 0.108788
C13   C     C_R   0.747774 0.507859 0.253181 0.100106
C14   C     C_R   0.074199 0.162112 0.592139 -0.218261
C15   C     C_R   0.112476 0.089079 0.514015 0.021110
C16   C     C_R   0.105638 0.002937 0.512828 0.047840
C17   C     C_R   0.812133 0.524992 0.924160 -0.147956
C18   C     C_R   0.073822 0.993303 0.589289 0.135687
C19   C     C_R   0.151059 0.098696 0.436976 -0.097445
C20   C     C_R   0.169892 0.021297 0.360583 -0.239303
C21   C     C_R   0.149789 0.936673 0.360783 0.120856
C22   C     C_R   0.121595 0.926511 0.436108 0.042444
C23   C     C_R   0.099370 0.841137 0.436234 0.108921
C24   C     C_R   0.734918 0.488898 0.959192 0.082761
C25   C     C_R   0.074378 0.831134 0.510900 -0.233037
C26   C     C_R   0.063183 0.907018 0.587034 -0.179698
C27   C     C_R   0.146678 0.864450 0.289084 -0.237153
C28   C     C_R   0.107299 0.785601 0.294677 0.141994
C29   C     C_R   0.015757 0.656794 0.238410 -0.118933
C30   C     C_R   0.092396 0.770317 0.364669 -0.212889
C31   C     C_R   0.369442 0.499496 0.660471 -0.239198
C32   C     C_R   0.302234 0.559033 0.690088 0.092553
C33   C     C_R   0.304325 0.606367 0.646375 -0.176595
C34   C     C_R   0.377941 0.597118 0.571982 -0.020252
C35   C     C_R   0.067875 0.729457 0.235847 0.057787
C36   C     C_R   0.447575 0.537608 0.542584 -0.021674
C37   C     C_R   0.441950 0.487822 0.586677 0.172827
C38   C     C_R   0.383046 0.646052 0.527311 0.569044
C39   C     C_R   0.460834 0.637449 0.455093 -0.410527
C40   C     C_R   0.529178 0.578861 0.426580 0.103524
C41   C     C_R   0.744453 0.447588 0.001978 -0.138668
C42   C     C_R   0.523049 0.528257 0.469909 0.043285
C43   C     C_R   0.592614 0.468792 0.441020 0.052458
C44   C     C_R   0.583106 0.416832 0.484096 -0.154357
C45   C     C_R   0.508585 0.427065 0.556877 -0.193895
C46   C     C_R   0.247991 0.567541 0.013729 0.549502
C47   C     C_R   0.604287 0.570657 0.355066 -0.202146
C48   C     C_R   0.672768 0.513853 0.327644 -0.001824
C49   C     C_R   0.668937 0.461962 0.368941 -0.130018
C50   C     C_R   0.654413 0.498912 0.959762 0.094827
C51   C     C_R   0.334545 0.523700 0.065493 -0.048823
C52   C     C_R   0.436513 0.584185 0.127889 -0.400500
C53   C     C_R   0.082543 0.734549 0.162240 -0.122173
C54   C     C_R   0.350180 0.576292 0.137955 0.561674
C55   C     C_R   0.400261 0.474659 0.986496 -0.276064
C56   C     C_R   0.486280 0.486192 0.974448 0.089741
C57   C     C_R   0.965399 0.246316 0.827404 -0.236543
C58   C     C_R   0.503716 0.539575 0.047124 0.136761
C59   C     C_R   0.588194 0.546267 0.038581 -0.227515
C60   C     C_R   0.640056 0.451134 0.886517 -0.238006
C61   C     C_R   0.555465 0.445664 0.892444 -0.088123
C62   C     C_R   0.698702 0.132317 0.219412 0.121869
C63   C     C_R   0.915404 0.864139 0.041394 -0.097864
C64   C     C_R   0.832853 0.944540 0.016024 0.468746
C65   C     C_R   0.830646 0.530407 0.249207 -0.089191
C66   C     C_R   0.900300 0.882066 0.983810 -0.252671
C67   C     C_R   0.874644 0.920940 0.130248 -0.110924
C68   C     C_R   0.153823 0.519361 0.764381 -0.010983
C69   C     C_R   0.822785 0.998007 0.160161 -0.031333
C70   C     C_R   0.796527 0.004598 0.103183 0.017130
C71   C     C_R   0.733504 0.071090 0.134286 -0.196726
C72   C     C_R   0.727364 0.130247 0.274901 -0.191697
C73   C     C_R   0.791138 0.066115 0.246226 -0.087911
C74   C     C_R   0.941078 0.692842 0.956513 -0.106955
C75   C     C_R   0.959898 0.776908 0.009438 0.130802
C76   C     C_3   0.811290 0.224042 0.013425 0.164770
C77   C     C_3   0.752814 0.159613 0.972981 -0.279350
C78   C     C_3   0.657386 0.192707 0.024907 -1.029362
C79   C     C_R   0.035180 0.311198 0.068868 -0.239713
C80   C     C_3   0.198019 0.300604 0.670615 0.242229
C81   C     C_3   0.220847 0.315707 0.743827 -0.422929
C82   C     C_3   0.301124 0.258211 0.710643 -0.940896
C83   C     C_2   0.172704 0.187250 0.433152 1.007989
C84   C     C_3   0.301797 0.719924 0.500029 0.186408
C85   C     C_3   0.335062 0.812032 0.501826 -0.277056
C86   C     C_3   0.330522 0.825509 0.431316 -1.003331
C87   C     C_2   0.744022 0.400736 0.335349 0.969491
C88   C     C_2   0.542612 0.398697 0.812568 0.997044
C89   C     C_3   0.269240 0.611260 0.280566 0.183620
C90   C     C_R   0.952737 0.243545 0.999270 0.516464
C91   C     C_3   0.205748 0.534620 0.282426 -0.329257
C92   C     C_3   0.180925 0.519955 0.361385 -0.972559
C93   C     C_3   0.734122 0.890542 0.958904 0.199610
C94   C     C_3   0.704504 0.889994 0.895392 -0.238899
C95   C     C_3   0.630053 0.825976 0.888761 -1.000618
C96   C     C_2   0.829109 0.080199 0.305718 1.027689
C97   C     C_2   0.954674 0.835274 0.890068 1.060325
C98   C     C_2   0.869514 0.888851 0.191740 1.006134
C99   C     C_3   0.329515 0.695193 0.043486 0.184724
C100  C     C_3   0.349464 0.779299 0.027209 -0.287404
H1    H     H_    0.054257 0.811129 0.067442 0.152380
H2    H     H_    0.195377 0.027346 0.301230 0.176535
H3    H     H_    0.162959 0.875571 0.233811 0.129210
H4    H     H_    0.067028 0.707286 0.367437 0.117783
H5    H     H_    0.059241 0.765490 0.511273 0.142134
H6    H     H_    0.040374 0.898714 0.644950 0.154746
H7    H     H_    0.364559 0.461559 0.694968 0.138282
H8    H     H_    0.249192 0.650447 0.671258 0.171594
H9    H     H_    0.469577 0.676903 0.421132 0.151118
H10   H     H_    0.610217 0.608919 0.320538 0.138580
H11   H     H_    0.828009 0.553828 0.880051 0.105367
H12   H     H_    0.933031 0.192606 0.844191 0.191932
H13   H     H_    0.632642 0.368068 0.462490 0.160424
H14   H     H_    0.503137 0.387575 0.590076 0.134558
H15   H     H_    0.602289 0.583627 0.094173 0.133725
H16   H     H_    0.694320 0.416493 0.825776 0.161958
H17   H     H_    0.451578 0.628130 0.181761 0.146677
H18   H     H_    0.382997 0.432191 0.933867 0.181613
H19   H     H_    0.710106 0.076145 0.093286 0.151526
H20   H     H_    0.001079 0.625710 0.280582 0.093359
H21   H     H_    0.701937 0.181640 0.340010 0.154367
H22   H     H_    0.698337 0.406181 0.029789 0.096749
H23   H     H_    0.127107 0.503397 0.718812 0.146168
H24   H     H_    0.130161 0.774147 0.133199 0.100693
H25   H     H_    0.850523 0.562426 0.301056 0.106455
H26   H     H_    0.896216 0.680773 0.928088 0.087227
H27   H     H_    0.812480 0.286556 0.006455 0.100175
H28   H     H_    0.783175 0.239715 0.082203 0.155324
H29   H     H_    0.774718 0.153083 0.907558 0.199046
H30   H     H_    0.758648 0.091980 0.967935 0.248766
H31   H     H_    0.633626 0.198185 0.090188 0.271603
H32   H     H_    0.616973 0.144081 0.993802 0.278860
H33   H     H_    0.649660 0.259542 0.028877 0.268819
H34   H     H_    0.068950 0.327476 0.108831 0.146084
H35   H     H_    0.252115 0.326962 0.628526 0.156687
H36   H     H_    0.199269 0.227627 0.630475 0.130491
H37   H     H_    0.236242 0.386870 0.774302 0.225389
H38   H     H_    0.165895 0.298424 0.792699 0.212644
H39   H     H_    0.288187 0.185408 0.681509 0.270822
H40   H     H_    0.317306 0.271796 0.764165 0.278314
H41   H     H_    0.358017 0.274921 0.662528 0.258852
H42   H     H_    0.186164 0.262068 0.371586 0.329190
H43   H     H_    0.230411 0.720487 0.518328 0.126432
H44   H     H_    0.329927 0.664076 0.434702 0.075550
H45   H     H_    0.282225 0.619996 0.859986 0.176851
H46   H     H_    0.294713 0.866155 0.564422 0.213582
H47   H     H_    0.403593 0.818772 0.494605 0.208830
H48   H     H_    0.371614 0.773042 0.367953 0.262456
H49   H     H_    0.354829 0.892830 0.434813 0.281555
H50   H     H_    0.262153 0.822163 0.438875 0.271411
H51   H     H_    0.828136 0.299182 0.234876 0.325637
H52   H     H_    0.481880 0.397227 0.743828 0.319739
H53   H     H_    0.238989 0.672537 0.340668 0.140894
H54   H     H_    0.330144 0.595074 0.279678 0.079081
H55   H     H_    0.145650 0.551180 0.282450 0.206071
H56   H     H_    0.165479 0.452482 0.127332 0.127126
H57   H     H_    0.236565 0.471277 0.224769 0.195626
H58   H     H_    0.240024 0.502673 0.362423 0.263946
H59   H     H_    0.135524 0.463593 0.360691 0.283842
H60   H     H_    0.147947 0.581828 0.419922 0.255827
H61   H     H_    0.677835 0.913678 0.022666 0.082243
H62   H     H_    0.754229 0.820204 0.938362 0.115204
H63   H     H_    0.681895 0.959080 0.916015 0.190616
H64   H     H_    0.760386 0.868530 0.831683 0.232129
H65   H     H_    0.651333 0.755923 0.866784 0.275158
H66   H     H_    0.610011 0.827116 0.842281 0.278137
H67   H     H_    0.027654 0.064286 0.725597 0.146242
H68   H     H_    0.572896 0.847257 0.951513 0.270608
H69   H     H_    0.807869 0.110343 0.425652 0.338171
H70   H     H_    0.071376 0.777047 0.795591 0.319712
H71   H     H_    0.928708 0.871095 0.253263 0.330266
H72   H     H_    0.390765 0.670457 0.035043 0.139930
H73   H     H_    0.279728 0.714813 0.110407 0.115907
H74   H     H_    0.399814 0.761813 0.961168 0.220842
H75   H     H_    0.289244 0.804460 0.034048 0.198675
H76   H     H_    0.332498 0.873969 0.155992 0.272058
H77   H     H_    0.397255 0.913610 0.075718 0.275764
H78   H     H_    0.065842 0.226165 0.594574 0.185741
H79   H     H_    0.443330 0.830271 0.083327 0.267678
H80   H     H_    0.698724 0.426444 0.154660 0.099940
N1    N     N_R   0.036080 0.671900 0.995420 -0.054081
N2    N     N_R   0.867430 0.509300 0.948100 -0.041183
N3    N     N_R   0.003360 0.617250 0.167070 -0.040305
N4    N     N_R   0.825450 0.461270 0.995400 -0.043518
N5    N     N_R   0.045340 0.665280 0.119770 -0.045636
N6    N     N_R   0.883740 0.497640 0.167070 -0.040693
N7    N     N_R   0.987050 0.628910 0.948110 -0.048865
N8    N     N_R   0.174550 0.538730 0.004600 -0.092047
N9    N     N_R   0.954660 0.334720 0.880230 -0.074431
N10   N     N_R   0.116260 0.502360 0.832930 -0.052507
N11   N     N_R   0.012950 0.371090 0.051890 -0.063640
N12   N     N_R   0.963920 0.328100 0.004580 -0.110170
N13   N     N_R   0.165290 0.545350 0.880240 -0.059596
N14   N     N_R   0.132570 0.490700 0.051900 -0.067740
N15   N     N_R   0.996640 0.382750 0.832930 -0.092443
N16   N     N_R   0.834710 0.454650 0.119760 -0.055562
Ni1   Ni    Ni4+2 0.104370 0.604370 0.000010 0.230690
Ni2   Ni    Ni4+2 0.895630 0.395630 0.999990 0.201263
Ni3   Ni    Ni4+2 0.991920 0.505780 0.891500 0.222803
Ni4   Ni    Ni4+2 0.008080 0.494220 0.108500 0.208513
O1    O     O_3   0.895199 0.182653 0.971845 -0.668770
O2    O     O_3   0.283671 0.631489 0.212802 -0.669113
O3    O     O_3   0.804410 0.948999 0.961513 -0.640905
O4    O     O_2   0.908345 0.078249 0.281272 -0.597398
O5    O     O_R   0.774283 0.100758 0.390988 -0.780615
O6    O     O_2   0.925312 0.822277 0.839107 -0.636840
O7    O     O_R   0.041024 0.807880 0.860020 -0.799497
O8    O     O_2   0.801174 0.859284 0.228123 -0.641479
O9    O     O_R   0.941130 0.894512 0.209787 -0.780002
O10   O     O_3   0.300005 0.628223 0.983649 -0.683348
O11   O     O_3   0.119300 0.345816 0.696267 -0.683404
O12   O     O_2   0.196832 0.248284 0.484443 -0.660697
O13   O     O_R   0.168953 0.199544 0.368273 -0.783304
O14   O     O_3   0.314442 0.706915 0.561433 -0.668663
O15   O     O_2   0.778738 0.408904 0.381009 -0.638830
O16   O     O_R   0.776200 0.335623 0.250778 -0.823577
O17   O     O_2   0.585958 0.330012 0.755229 -0.628660
O18   O     O_R   0.484154 0.435054 0.801089 -0.804715

loop_
_geom_bond_atom_site_label_1
_geom_bond_atom_site_label_2
_ccdc_geom_bond_type
N9    Ni2   S    
C40   C47   A    
C96   O5    S    
C55   C56   A    
C11   C18   A    
C93   C94   S    
C94   H64   S    
C72   H21   S    
C35   C53   A    
C49   C87   S    
C36   C42   A    
C19   C20   A    
C18   C26   A    
N5    Ni1   S    
C43   C44   A    
N1    Ni1   S    
C95   H68   S    
C26   H6    S    
C81   C82   S    
N1    N7    A    
C25   H5    S    
C90   N12   A    
C85   C86   S    
C2    H45   S    
C4    N14   A    
C80   H35   S    
C92   H59   S    
C50   C59   A    
N8    Ni1   S    
C66   C97   S    
N6    N16   A    
C36   C37   A    
C86   H50   S    
H69   O5    S    
C38   C39   A    
H71   O9    S    
C3    H79   S    
C57   H12   S    
C20   H2    S    
C84   H44   S    
C15   C16   A    
C17   H11   S    
C88   O17   D    
C51   C55   A    
C92   H58   S    
C68   N10   A    
C27   H3    S    
C78   H32   S    
C82   H40   S    
N10   N13   A    
C17   N2    A    
N14   Ni4   S    
C99   C100  S    
C28   C35   S    
C84   O14   S    
H52   O18   S    
C87   O16   S    
C41   N4    A    
C69   C73   A    
C70   C71   A    
C64   C70   A    
C97   O6    D    
C89   C91   S    
C5    C13   A    
C83   O12   D    
C67   C98   S    
C72   C73   A    
C90   O1    S    
N11   Ni4   S    
C52   H17   S    
C40   C42   A    
C89   O2    S    
C21   C27   A    
C63   C66   A    
N8    N14   A    
C79   N11   A    
C21   C22   A    
C11   H67   S    
C24   C41   A    
C98   O8    D    
C69   C70   A    
C33   H8    S    
C38   O14   S    
C82   H41   S    
C19   C83   S    
C95   H65   S    
C68   H23   S    
C6    N15   A    
C83   O13   S    
C52   C54   A    
N10   Ni3   S    
C96   O4    D    
N15   Ni3   S    
C76   C77   S    
C56   C58   A    
C24   C50   S    
C81   H38   S    
C29   H20   S    
C63   C67   A    
C17   C24   A    
C74   C75   A    
N11   N12   A    
C1    C75   A    
C7    C46   A    
C65   H25   S    
C84   C85   S    
N16   Ni2   S    
C3    C100  S    
C86   H49   S    
C91   C92   S    
C1    N1    A    
C76   O1    S    
C34   C38   A    
C6    C8    A    
C6    O11   S    
C84   H43   S    
C4    C7    A    
C25   C26   A    
C77   C78   S    
C97   O7    S    
C31   C37   A    
N7    Ni3   S    
C60   C61   A    
C67   C69   A    
C64   C66   A    
C41   H22   S    
C15   C19   A    
C78   H31   S    
C23   C30   A    
C5    H80   S    
C57   N9    A    
C82   H39   S    
C61   C88   S    
C8    C57   A    
N9    N15   A    
C89   H53   S    
C47   C48   A    
C99   H73   S    
C93   H61   S    
C8    C12   S    
C100  H75   S    
C14   C15   A    
C33   C34   A    
C53   N5    A    
C62   C72   A    
C77   H29   S    
C85   H46   S    
N6    Ni4   S    
C14   H78   S    
C52   C58   A    
C5    N16   A    
C16   C18   A    
C48   C49   A    
C4    H56   S    
C64   O3    S    
C12   C14   A    
C44   H13   S    
N4    Ni2   S    
H51   O16   S    
C80   O11   S    
C100  H74   S    
C98   O9    S    
C76   H28   S    
C9    C32   S    
C91   H55   S    
C37   C45   A    
C95   H66   S    
C1    H1    S    
C39   C40   A    
C44   C45   A    
C74   N7    A    
C79   H34   S    
C65   N6    A    
C16   C22   A    
C29   N3    A    
C56   C61   A    
C31   H7    S    
C31   C32   A    
C43   C49   A    
N2    Ni3   S    
C85   H47   S    
H42   O13   S    
C80   C81   S    
C53   H24   S    
C86   H48   S    
C13   C48   S    
C10   C79   A    
C99   H72   S    
C47   H10   S    
C29   C35   A    
N3    Ni4   S    
C80   H36   S    
C93   O3    S    
C71   H19   S    
C92   H60   S    
C2    N13   A    
C50   C60   A    
C32   C33   A    
C51   C54   A    
N3    N5    A    
C58   C59   A    
C9    C68   A    
C7    C51   S    
H70   O7    S    
C46   O10   S    
C89   H54   S    
C74   H26   S    
C63   C75   S    
C93   H62   S    
N13   Ni1   S    
C28   C30   A    
C88   O18   S    
C62   C71   A    
C34   C36   A    
C77   H30   S    
C23   C25   A    
C3    H77   S    
C94   C95   S    
C13   C65   A    
C78   H33   S    
N2    N4    A    
C91   H57   S    
C60   H16   S    
N12   Ni2   S    
C3    H76   S    
C39   H9    S    
C45   H14   S    
C20   C21   A    
C10   C90   A    
C59   H15   S    
C42   C43   A    
C30   H4    S    
C27   C28   A    
C81   H37   S    
C76   H27   S    
C87   O15   D    
C22   C23   A    
C73   C96   S    
C46   N8    A    
C2    C9    A    
C94   H63   S    
C55   H18   S    
C11   C12   A    
C54   O2    S    
C99   O10   S    
