data_mof_unit_20333.cif
_audit_creation_date              2012-10-26T19:57:23-0400
_audit_creation_method            fapswitch 2.2
_symmetry_space_group_name_H-M    P1
_symmetry_Int_Tables_number       1
_space_group_crystal_system       triclinic
_cell_length_a                    13.013515
_cell_length_b                    10.909037
_cell_length_c                    9.676048
_cell_angle_alpha                 90.900291
_cell_angle_beta                  95.880232
_cell_angle_gamma                 89.430132
_cell_volume                      1366.21478792

loop_
_atom_site_label
_atom_site_type_symbol
_atom_type_description
_atom_site_fract_x
_atom_site_fract_y
_atom_site_fract_z
_atom_type_partial_charge
C1    C     C_R   0.497515 0.265274 0.498237 0.579888
C2    C     C_2   0.482348 0.133632 0.489947 0.064499
C3    C     C_2   0.452029 0.418622 0.914365 -0.018408
C4    C     C_R   0.300898 0.506844 0.474409 0.542370
C5    C     C_2   0.441023 0.427685 0.069345 0.370347
C6    C     C_R   0.506202 0.734262 0.502177 0.553543
C7    C     C_R   0.699318 0.504140 0.525264 0.551226
C8    C     C_R   0.812182 0.511623 0.537507 -0.029779
C9    C     C_R   0.189428 0.529237 0.460481 -0.047073
C10   C     C_R   0.030800 0.609015 0.334577 0.271647
C11   C     C_R   0.139581 0.596585 0.348910 0.241634
C12   C     C_R   0.027107 0.500284 0.554571 -0.029576
C13   C     C_R   0.133369 0.485431 0.563568 -0.184863
C14   C     C_2   0.802030 0.637233 0.323273 0.630544
C15   C     C_2   0.392512 0.085934 0.556435 0.506355
C16   C     C_3   0.273446 0.362541 0.063796 -0.005416
C17   C     C_3   0.200231 0.292077 0.145743 -0.333858
C18   C     C_3   0.992721 0.778791 0.197084 0.019602
C19   C     C_3   0.907615 0.829896 0.093358 -0.364283
C20   C     C_3   0.244859 0.751961 0.297240 0.006036
C21   C     C_3   0.298579 0.807928 0.181094 -0.347383
C22   C     C_3   0.701780 0.054046 0.323547 -0.001291
C23   C     C_R   0.973208 0.559742 0.438655 -0.013011
C24   C     C_3   0.785402 0.136087 0.277570 -0.355236
C25   C     C_R   0.863846 0.567238 0.432635 0.067655
C26   C     C_R   0.868184 0.457601 0.651631 -0.151393
C27   C     C_R   0.974666 0.452408 0.660389 -0.124387
C28   C     C_2   0.527086 0.931274 0.396339 -0.124478
C29   C     C_2   0.521885 0.865053 0.509967 -0.101119
C30   C     C_2   0.540761 0.065156 0.408573 0.210748
Cu1   Cu    Cu3+1 0.500020 0.500020 0.638640 0.957090
Cu2   Cu    Cu3+1 0.499980 0.499980 0.361360 1.060523
H1    H     H_    0.416748 0.341420 0.856478 0.182089
H2    H     H_    0.268453 0.975145 0.542255 0.330201
H3    H     H_    0.265799 0.324615 0.955979 0.111172
H4    H     H_    0.249100 0.460834 0.062307 0.174956
H5    H     H_    0.205282 0.326569 0.254675 0.176861
H6    H     H_    0.119583 0.303853 0.097701 0.104733
H7    H     H_    0.220642 0.192960 0.145720 0.157786
H8    H     H_    0.065598 0.797173 0.152134 0.167315
H9    H     H_    0.990646 0.829276 0.297952 0.108951
H10   H     H_    0.832177 0.829904 0.136696 0.173286
H11   H     H_    0.925496 0.926078 0.069150 0.082849
H12   H     H_    0.525843 0.576434 0.898972 0.194641
H13   H     H_    0.902003 0.774600 0.995548 0.175116
H14   H     H_    0.303408 0.734643 0.386228 0.165436
H15   H     H_    0.188891 0.820295 0.332946 0.105415
H16   H     H_    0.242140 0.824418 0.089113 0.140067
H17   H     H_    0.333567 0.896762 0.216640 0.146802
H18   H     H_    0.360171 0.744919 0.150525 0.163442
H19   H     H_    0.687251 0.979062 0.244974 0.157014
H20   H     H_    0.731041 0.014717 0.425973 0.150162
H21   H     H_    0.801698 0.212240 0.354057 0.168598
H22   H     H_    0.857376 0.081883 0.270155 0.092344
H23   H     H_    0.554529 0.549475 0.113105 0.171014
H24   H     H_    0.759852 0.175077 0.174226 0.175124
H25   H     H_    0.829262 0.415801 0.732527 0.146833
H26   H     H_    0.016199 0.407777 0.748937 0.121654
H27   H     H_    0.172792 0.436344 0.650589 0.143331
H28   H     H_    0.526110 0.887880 0.294416 0.143022
H29   H     H_    0.530435 0.908349 0.612414 0.110367
H30   H     H_    0.733453 0.639187 0.126608 0.309914
N1    N     N_2   0.498860 0.498660 0.846770 -0.376827
N2    N     N_2   0.498840 0.498630 0.152900 -0.315333
O1    O     O_R   0.500020 0.321960 0.617050 -0.491151
O2    O     O_R   0.779757 0.584939 0.190821 -0.650343
O3    O     O_2   0.373682 0.126304 0.669837 -0.528991
O4    O     O_R   0.326904 0.999252 0.486793 -0.744468
O5    O     O_3   0.375444 0.348143 0.127354 -0.500959
O6    O     O_3   0.980657 0.650766 0.209975 -0.508415
O7    O     O_3   0.195464 0.642473 0.247230 -0.555586
O8    O     O_3   0.610894 0.124431 0.332722 -0.540713
O9    O     O_R   0.499980 0.321920 0.382890 -0.409568
O10   O     O_R   0.349010 0.500000 0.598060 -0.511513
O11   O     O_R   0.348980 0.499950 0.363910 -0.440472
O12   O     O_R   0.500020 0.678080 0.617110 -0.505241
O13   O     O_R   0.499980 0.678040 0.382950 -0.514248
O14   O     O_R   0.651020 0.500050 0.636090 -0.501303
O15   O     O_R   0.650990 0.500000 0.401940 -0.469268
O16   O     O_2   0.765433 0.736942 0.352026 -0.588251

loop_
_geom_bond_atom_site_label_1
_geom_bond_atom_site_label_2
_ccdc_geom_bond_type
C18   O6    S    
C8    C26   A    
Cu2   O11   S    
C21   H17   S    
C7    C8    S    
C12   C23   A    
C26   C27   A    
C7    O15   A    
C28   C29   D    
C18   C19   S    
C16   H3    S    
C11   O7    S    
C3    H1    S    
C24   H22   S    
C1    C2    S    
C17   H7    S    
C18   H8    S    
C4    O11   A    
C9    C13   A    
Cu2   O13   S    
C16   C17   S    
C1    O1    A    
C20   O7    S    
C14   O16   D    
C4    O10   A    
C19   H10   S    
C21   H16   S    
C8    C25   A    
C22   O8    S    
C21   H18   S    
C19   H11   S    
C28   H28   S    
H12   N1    S    
C29   H29   S    
H30   O2    S    
C12   C27   A    
Cu1   N1    S    
Cu2   N2    S    
C18   H9    S    
H2    O4    S    
Cu2   O9    S    
C6    O13   A    
C24   H21   S    
C5    O5    S    
C5    N2    D    
Cu1   Cu2   S    
C15   O3    D    
H23   N2    S    
C14   O2    S    
C17   H5    S    
C12   C13   A    
C2    C15   S    
C9    C11   A    
C7    O14   A    
C10   O6    S    
C22   C24   S    
Cu1   O14   S    
C22   H20   S    
Cu1   O1    S    
C16   O5    S    
C3    C5    S    
C27   H26   S    
C30   O8    S    
C19   H13   S    
C6    O12   A    
C13   H27   S    
C3    N1    D    
C10   C23   A    
C24   H24   S    
C2    C30   D    
C1    O9    A    
C28   C30   S    
C16   H4    S    
Cu2   O15   S    
Cu1   O12   S    
C15   O4    S    
C17   H6    S    
C23   C25   A    
C14   C25   S    
Cu1   O10   S    
C26   H25   S    
C20   H15   S    
C10   C11   A    
C6    C29   S    
C20   C21   S    
C4    C9    S    
C20   H14   S    
C22   H19   S    
