data_mof_unit_17367.cif
_audit_creation_date              2012-12-11T16:38:23-0500
_audit_creation_method            fapswitch 2.2
_symmetry_space_group_name_H-M    P1
_symmetry_Int_Tables_number       1
_space_group_crystal_system       triclinic
_cell_length_a                    22.956948
_cell_length_b                    7.28483
_cell_length_c                    20.906304
_cell_angle_alpha                 90.000019
_cell_angle_beta                  93.301996
_cell_angle_gamma                 90.000039
_cell_volume                      3490.51270348

loop_
_atom_site_label
_atom_site_type_symbol
_atom_type_description
_atom_site_fract_x
_atom_site_fract_y
_atom_site_fract_z
_atom_type_partial_charge
O1    O     O_R   0.188620 0.380490 0.689890 -0.536270
O2    O     O_R   0.811380 0.619510 0.310110 -0.530156
O3    O     O_R   0.311380 0.880490 0.810110 -0.536270
O4    O     O_R   0.688620 0.119510 0.189890 -0.530156
O5    O     O_R   0.306510 0.709050 0.686440 -0.533386
O6    O     O_R   0.693490 0.290950 0.313560 -0.538822
O7    O     O_R   0.193490 0.209050 0.813560 -0.533386
O8    O     O_R   0.806510 0.790950 0.186440 -0.538822
C1    C     C_R   0.325304 0.541769 0.671869 0.722409
C2    C     C_R   0.674917 0.458254 0.328386 0.716349
C3    C     C_R   0.174696 0.041769 0.828131 0.722410
C4    C     C_R   0.825083 0.958254 0.171614 0.716351
O9    O     O_R   0.188770 0.710120 0.682280 -0.537018
O10   O     O_R   0.811230 0.289880 0.317720 -0.541632
O11   O     O_R   0.311230 0.210120 0.817720 -0.537017
O12   O     O_R   0.688770 0.789880 0.182280 -0.541632
O13   O     O_R   0.192790 0.881680 0.805920 -0.529879
O14   O     O_R   0.807210 0.118320 0.194080 -0.529599
O15   O     O_R   0.307210 0.381680 0.694080 -0.529878
O16   O     O_R   0.692790 0.618320 0.305920 -0.529599
C5    C     C_R   0.167866 0.543411 0.667082 0.686872
C6    C     C_R   0.829947 0.457740 0.333965 0.687044
C7    C     C_R   0.332134 0.043411 0.832918 0.686871
C8    C     C_R   0.670053 0.957739 0.166035 0.687043
O17   O     O_3   0.251460 0.547440 0.790570 -0.376690
O18   O     O_3   0.748540 0.452560 0.209430 -0.375599
O19   O     O_3   0.248540 0.047440 0.709430 -0.376690
O20   O     O_3   0.751460 0.952560 0.290570 -0.375599
V1    V     V_3+5 0.249730 0.821800 0.742470 1.388652
V2    V     V_3+5 0.750270 0.178200 0.257530 1.409368
V3    V     V_3+5 0.250270 0.321800 0.757530 1.388652
V4    V     V_3+5 0.749730 0.678200 0.242470 1.409368
C9    C     C_R   0.446570 0.846797 0.951545 -0.223925
C10   C     C_R   0.520052 0.983261 0.085368 -0.175631
C11   C     C_R   0.053429 0.346796 0.548456 -0.223924
C12   C     C_R   0.979948 0.483261 0.414632 -0.175632
H1    H     H_    0.458021 0.713081 0.968849 0.143707
H2    H     H_    0.476135 0.003079 0.100414 0.129932
H3    H     H_    0.041978 0.213080 0.531152 0.143707
H4    H     H_    0.023865 0.503079 0.399586 0.129932
C13   C     C_R   0.398439 0.867775 0.908803 -0.207320
C14   C     C_R   0.566198 0.984945 0.131384 -0.206810
C15   C     C_R   0.101560 0.367774 0.591198 -0.207320
C16   C     C_R   0.933802 0.484945 0.368616 -0.206810
H5    H     H_    0.372714 0.747665 0.896365 0.140292
H6    H     H_    0.557026 0.003866 0.181228 0.118067
H7    H     H_    0.127285 0.247665 0.603636 0.140292
H8    H     H_    0.942974 0.503866 0.318773 0.118067
C17   C     C_R   0.383542 0.038483 0.881777 -0.092026
C18   C     C_R   0.623580 0.961866 0.114043 -0.075391
C19   C     C_R   0.116457 0.538482 0.618223 -0.092026
C20   C     C_R   0.876420 0.461866 0.385957 -0.075390
C21   C     C_R   0.418271 0.195655 0.902150 0.109751
C22   C     C_R   0.635236 0.930637 0.048700 0.103185
C23   C     C_R   0.081729 0.695654 0.597850 0.109751
C24   C     C_R   0.864763 0.430637 0.451300 0.103185
C25   C     C_R   0.464220 0.173880 0.951507 0.151234
C26   C     C_R   0.587623 0.933229 0.000968 0.135192
C27   C     C_R   0.035780 0.673880 0.548493 0.151235
C28   C     C_R   0.912376 0.433228 0.499032 0.135192
C29   C     C_R   0.479746 0.995735 0.973142 0.073221
C30   C     C_R   0.529958 0.963469 0.020351 0.026480
C31   C     C_R   0.020253 0.495734 0.526858 0.073221
C32   C     C_R   0.970042 0.463468 0.479649 0.026479
H9    H     H_    0.978710 0.258046 0.071683 0.123952
H10   H     H_    0.018669 0.742825 0.925250 0.124039
H11   H     H_    0.521290 0.758046 0.428317 0.123952
H12   H     H_    0.481331 0.242825 0.574751 0.124039
C33   C     C_R   0.032914 0.161700 0.997406 0.147901
C34   C     C_R   0.964336 0.839234 0.999463 0.148055
C35   C     C_R   0.467086 0.661700 0.502594 0.147902
C36   C     C_R   0.535665 0.339235 0.500537 0.148054
C37   C     C_R   0.044279 0.014503 0.955722 0.088644
C38   C     C_R   0.953136 0.986272 0.041301 0.088599
C39   C     C_R   0.455721 0.514503 0.544278 0.088643
C40   C     C_R   0.546864 0.486272 0.458700 0.088601
C41   C     C_R   0.009948 0.855222 0.957329 -0.234247
C42   C     C_R   0.987322 0.145756 0.039515 -0.233263
C43   C     C_R   0.490052 0.355222 0.542672 -0.234248
C44   C     C_R   0.512678 0.645756 0.460485 -0.233263
C45   C     C_1   0.090502 0.024377 0.910681 -0.037519
C46   C     C_1   0.907633 0.975711 0.087155 -0.041940
C47   C     C_1   0.409498 0.524378 0.589319 -0.037519
C48   C     C_1   0.592368 0.475711 0.412845 -0.041939
C49   C     C_1   0.869886 0.967306 0.125507 -0.185609
C50   C     C_1   0.129013 0.032714 0.873227 -0.192618
C51   C     C_1   0.630114 0.467306 0.374493 -0.185611
C52   C     C_1   0.370987 0.532714 0.626773 -0.192618
C53   C     C_3   0.409552 0.381365 0.869433 -0.348918
C54   C     C_3   0.431522 0.380258 0.801773 -0.714522
H13   H     H_    0.479318 0.354951 0.804072 0.207323
H14   H     H_    0.409810 0.272697 0.771428 0.224436
H15   H     H_    0.422891 0.515869 0.778884 0.203809
H16   H     H_    0.363957 0.429163 0.870427 0.194504
H17   H     H_    0.432995 0.492299 0.894841 0.170054
C55   C     C_3   0.698176 0.899544 0.031058 -0.360329
C56   C     C_3   0.724464 0.072045 0.002904 -0.759693
H18   H     H_    0.704267 0.101916 0.954702 0.238851
H19   H     H_    0.718435 0.191540 0.034882 0.228290
H20   H     H_    0.771944 0.051617 0.998197 0.212194
H21   H     H_    0.726819 0.860111 0.073195 0.172224
H22   H     H_    0.701769 0.780807 0.998428 0.164421
C57   C     C_3   0.090447 0.881363 0.630568 -0.348918
C58   C     C_3   0.068477 0.880254 0.698228 -0.714521
H23   H     H_    0.020681 0.854946 0.695929 0.207323
H24   H     H_    0.090190 0.772694 0.728573 0.224435
H25   H     H_    0.077109 0.015865 0.721117 0.203808
H26   H     H_    0.136043 0.929163 0.629574 0.194504
H27   H     H_    0.067004 0.992298 0.605160 0.170054
C59   C     C_3   0.801823 0.399545 0.468942 -0.360331
C60   C     C_3   0.775536 0.572047 0.497096 -0.759693
H28   H     H_    0.795734 0.601919 0.545297 0.238851
H29   H     H_    0.781564 0.691540 0.465117 0.228290
H30   H     H_    0.728056 0.551618 0.501805 0.212195
H31   H     H_    0.773181 0.360113 0.426805 0.172224
H32   H     H_    0.798230 0.280807 0.501571 0.164421
C61   C     C_3   0.495793 0.336742 0.983873 -0.372390
C62   C     C_3   0.458946 0.416426 0.035812 -0.774995
H33   H     H_    0.415781 0.462413 0.015041 0.220934
H34   H     H_    0.451473 0.311807 0.072949 0.230066
H35   H     H_    0.482117 0.534134 0.059520 0.224456
H36   H     H_    0.538476 0.297989 0.007390 0.199091
H37   H     H_    0.509073 0.441429 0.949309 0.159142
C63   C     C_3   0.596741 0.899988 0.930110 -0.343023
C64   C     C_3   0.593295 0.076799 0.890413 -0.763319
H38   H     H_    0.547884 0.103381 0.871980 0.228406
H39   H     H_    0.609490 0.196864 0.918924 0.221923
H40   H     H_    0.620163 0.062307 0.848193 0.213250
H41   H     H_    0.638938 0.833578 0.922302 0.178069
H42   H     H_    0.563648 0.800774 0.910294 0.172070
C65   C     C_3   0.004207 0.836741 0.516126 -0.372389
C66   C     C_3   0.041057 0.916426 0.464189 -0.774995
H43   H     H_    0.084220 0.962414 0.484961 0.220934
H44   H     H_    0.048531 0.811806 0.427052 0.230065
H45   H     H_    0.017885 0.034134 0.440479 0.224456
H46   H     H_    0.961525 0.797989 0.492608 0.199090
H47   H     H_    0.990926 0.941429 0.550690 0.159141
C67   C     C_3   0.903258 0.399986 0.569890 -0.343025
C68   C     C_3   0.906706 0.576795 0.609588 -0.763320
H48   H     H_    0.952117 0.603372 0.628022 0.228406
H49   H     H_    0.890512 0.696862 0.581077 0.221923
H50   H     H_    0.879838 0.562304 0.651807 0.213251
H51   H     H_    0.861061 0.333578 0.577697 0.178070
H52   H     H_    0.936351 0.300769 0.589705 0.172070
C69   C     C_3   0.068591 0.336523 0.997907 -0.365150
C70   C     C_3   0.128109 0.309436 0.033048 -0.729992
H53   H     H_    0.122594 0.265874 0.083265 0.224306
H54   H     H_    0.154034 0.204403 0.008803 0.227561
H55   H     H_    0.152607 0.440917 0.033717 0.214455
H56   H     H_    0.074209 0.383410 0.948055 0.180415
H57   H     H_    0.045707 0.448689 0.022327 0.172643
C71   C     C_3   0.928862 0.663923 0.999269 -0.363411
C72   C     C_3   0.868524 0.690895 0.965973 -0.734946
H58   H     H_    0.842746 0.792245 0.992039 0.227770
H59   H     H_    0.872637 0.738945 0.916003 0.225176
H60   H     H_    0.844604 0.558330 0.964692 0.214552
H61   H     H_    0.951227 0.552899 0.973693 0.172964
H62   H     H_    0.924542 0.615397 0.049168 0.179739
C73   C     C_3   0.431409 0.836524 0.502093 -0.365151
C74   C     C_3   0.371892 0.809437 0.466952 -0.729992
H63   H     H_    0.377407 0.765875 0.416736 0.224307
H64   H     H_    0.345966 0.704403 0.491197 0.227560
H65   H     H_    0.347393 0.940918 0.466284 0.214455
H66   H     H_    0.425791 0.883410 0.551945 0.180415
H67   H     H_    0.454294 0.948689 0.477674 0.172644
C75   C     C_3   0.571138 0.163924 0.500731 -0.363410
C76   C     C_3   0.631477 0.190897 0.534026 -0.734945
H68   H     H_    0.657256 0.292233 0.507956 0.227769
H69   H     H_    0.627366 0.238963 0.583994 0.225177
H70   H     H_    0.655395 0.058327 0.535312 0.214551
H71   H     H_    0.548774 0.052901 0.526309 0.172965
H72   H     H_    0.575457 0.115395 0.450833 0.179738

loop_
_geom_bond_atom_site_label_1
_geom_bond_atom_site_label_2
_ccdc_geom_bond_type
O17   V3    S    
C16   H8    S    
C26   C30   A    
C55   H22   S    
O19   V1    S    
O13   V1    S    
O3    C7    A    
C60   H28   S    
C10   C14   A    
C48   C51   T    
C10   C30   A    
C36   C40   A    
O15   V3    S    
C40   C48   S    
C62   H34   S    
C58   H24   S    
C56   H18   S    
C76   H69   S    
O1    C5    A    
C27   C65   S    
C18   C22   A    
C4    C49   S    
C6    C20   S    
O10   V2    S    
C36   C43   A    
C23   C27   A    
C67   H51   S    
C1    C52   S    
C22   C26   A    
C11   H3    S    
O4    C8    A    
C68   H50   S    
C7    C17   S    
C3    C50   S    
C23   C57   S    
O1    V3    S    
C33   C69   S    
O2    V4    S    
C14   H6    S    
C24   C59   S    
C53   H16   S    
O3    V1    S    
C62   H33   S    
C58   H23   S    
C59   C60   S    
C1    O15   A    
C2    O16   A    
C66   H43   S    
C34   C38   A    
C64   H40   S    
C33   C37   A    
C57   H26   S    
O14   V2    S    
C72   H59   S    
C11   C15   A    
C22   C55   S    
C69   H56   S    
C16   C20   A    
H12   C43   S    
O11   C7    A    
C47   C52   T    
C75   H71   S    
O12   C8    A    
C55   H21   S    
C34   C41   A    
C33   C42   A    
C38   C46   S    
C37   C45   S    
C35   C44   A    
C56   H19   S    
C69   C70   S    
C76   H70   S    
C70   H54   S    
C8    C18   S    
C71   H62   S    
C2    C51   S    
O7    V3    S    
O9    C5    A    
O8    V4    S    
C74   H65   S    
C12   H4    S    
C34   C71   S    
C65   H46   S    
C76   H68   S    
C21   C25   A    
O18   V4    S    
C75   H72   S    
C73   H67   S    
C62   H35   S    
C74   H64   S    
C53   H17   S    
O7    C3    A    
C61   H36   S    
O5    C1    A    
C65   H47   S    
C70   H55   S    
C54   H14   S    
C73   C74   S    
O8    C4    A    
C55   C56   S    
C45   C50   T    
C63   H42   S    
C60   H29   S    
C72   H60   S    
C25   C29   A    
C69   H57   S    
C14   C18   A    
C9    C29   A    
O6    V2    S    
C21   C53   S    
C64   H38   S    
C27   C31   A    
C12   C16   A    
C65   C66   S    
C46   C49   T    
O5    V1    S    
C59   H32   S    
C12   C32   A    
C5    C19   S    
C56   H20   S    
C54   H15   S    
C25   C61   S    
C70   H53   S    
O16   V4    S    
O9    V1    S    
H10   C41   S    
C71   H61   S    
C3    O13   A    
C37   C41   A    
H9    C42   S    
C10   H2    S    
C36   C75   S    
H11   C44   S    
C40   C44   A    
O6    C2    A    
C68   H48   S    
O11   V3    S    
O12   V4    S    
C13   C17   A    
C35   C73   S    
C26   C63   S    
C57   H27   S    
C28   C32   A    
C9    C13   A    
C74   H63   S    
O10   C6    A    
O20   V2    S    
C61   H37   S    
C67   H52   S    
O2    C6    A    
C35   C39   A    
C68   H49   S    
C39   C47   S    
C54   H13   S    
C75   C76   S    
C15   H7    S    
C15   C19   A    
C66   H45   S    
C17   C21   A    
C63   H41   S    
C60   H30   S    
C19   C23   A    
C29   C30   S    
C9    H1    S    
C67   C68   S    
C31   C32   S    
C24   C28   A    
C71   C72   S    
C66   H44   S    
C38   C42   A    
C4    O14   A    
C57   C58   S    
C64   H39   S    
C13   H5    S    
C73   H66   S    
C11   C31   A    
C53   C54   S    
C61   C62   S    
C39   C43   A    
C59   H31   S    
C58   H25   S    
O4    V2    S    
C20   C24   A    
C28   C67   S    
C63   C64   S    
C72   H58   S    
