data_mof_unit_50191.cif
_audit_creation_date              2012-12-10T19:05:21-0500
_audit_creation_method            fapswitch 2.2
_symmetry_space_group_name_H-M    P1
_symmetry_Int_Tables_number       1
_space_group_crystal_system       triclinic
_cell_length_a                    9.548188
_cell_length_b                    10.827481
_cell_length_c                    17.286485
_cell_angle_alpha                 90.314918
_cell_angle_beta                  85.466286
_cell_angle_gamma                 89.804281
_cell_volume                      1781.49351324

loop_
_atom_site_label
_atom_site_type_symbol
_atom_type_description
_atom_site_fract_x
_atom_site_fract_y
_atom_site_fract_z
_atom_type_partial_charge
C1    C     C_R   0.500182 0.737684 0.497715 0.795314
C2    C     C_R   0.349334 0.473449 0.778059 -0.188897
C3    C     C_R   0.434934 0.446003 0.144558 -0.186290
C4    C     C_R   0.424349 0.446740 0.224942 -0.191169
C5    C     C_R   0.651243 0.546350 0.224179 -0.171946
C6    C     C_R   0.664002 0.545964 0.143226 0.435987
C7    C     C_R   0.553257 0.496023 0.102995 0.039575
C8    C     C_2   0.450009 0.537303 0.981385 -0.164891
C9    C     C_2   0.558201 0.494374 0.018182 -0.168359
C10   C     C_R   0.531672 0.497681 0.265244 -0.117453
C11   C     C_R   0.380023 0.937175 0.477310 0.140747
C12   C     C_R   0.481090 0.502661 0.649932 0.835875
C13   C     C_R   0.502506 0.870680 0.488624 -0.123624
C14   C     C_R   0.630458 0.935039 0.488193 -0.203701
C15   C     C_R   0.630829 0.063792 0.488997 -0.215492
C16   C     C_R   0.503140 0.129237 0.491014 -0.093778
C17   C     C_R   0.380307 0.064285 0.480311 0.078419
C18   C     C_3   0.238123 0.071027 0.522932 -0.457944
C19   C     C_3   0.235269 0.930424 0.517275 -0.056013
C20   C     C_R   0.931745 0.403505 0.467977 0.229058
C21   C     C_R   0.919509 0.587303 0.539646 -0.056415
C22   C     C_R   0.068354 0.586799 0.540060 -0.077658
C23   C     C_R   0.500518 0.262322 0.498835 0.802229
C24   C     C_R   0.078838 0.403165 0.468535 0.186640
C25   C     C_3   0.099283 0.356718 0.387297 -0.530967
C26   C     C_3   0.940394 0.357154 0.386016 0.168675
C27   C     C_R   0.519073 0.499491 0.349988 0.817484
C28   C     C_R   0.469983 0.513449 0.734376 -0.161726
C29   C     C_R   0.579912 0.567100 0.771273 -0.302815
C30   C     C_R   0.571612 0.579329 0.852028 0.420774
C31   C     C_R   0.453169 0.532646 0.896359 0.013316
C32   C     C_R   0.339864 0.480709 0.858821 0.372698
Cu1   Cu    Cu3+1 0.359330 0.500020 0.500000 0.945582
Cu2   Cu    Cu3+1 0.640670 0.499980 0.500000 0.976112
H1    H     H_    0.671360 0.601661 0.737085 0.155900
H2    H     H_    0.729280 0.886705 0.491579 0.164315
H3    H     H_    0.729908 0.111198 0.492369 0.156194
H4    H     H_    0.242267 0.105468 0.583433 0.181182
H5    H     H_    0.160229 0.119101 0.489174 0.194758
H6    H     H_    0.232063 0.883265 0.574399 0.162897
H7    H     H_    0.859164 0.659523 0.570379 0.128389
H8    H     H_    0.119315 0.658277 0.571403 0.140102
H9    H     H_    0.151668 0.425713 0.347770 0.237090
H10   H     H_    0.333183 0.405647 0.255397 0.152677
H11   H     H_    0.145952 0.262600 0.383407 0.153254
H12   H     H_    0.892301 0.264373 0.379996 0.091882
H13   H     H_    0.733801 0.587826 0.254971 0.206319
H14   H     H_    0.651734 0.458400 0.985665 0.188190
H15   H     H_    0.350838 0.405205 0.114554 0.153801
H16   H     H_    0.263417 0.432768 0.749501 0.181745
H17   H     H_    0.356389 0.572379 0.014290 0.155186
N1    N     N_R   0.852130 0.499070 0.499500 -0.161334
N2    N     N_R   0.148040 0.499110 0.499500 -0.172481
O1    O     O_R   0.381190 0.680360 0.500000 -0.589027
O2    O     O_R   0.618770 0.680320 0.499990 -0.588585
O3    O     O_R   0.367430 0.500040 0.613600 -0.588932
O4    O     O_R   0.605020 0.500000 0.613590 -0.584879
O5    O     O_R   0.381230 0.319680 0.500010 -0.578683
O6    O     O_R   0.618810 0.319640 0.500000 -0.596277
O7    O     O_R   0.394980 0.500000 0.386410 -0.587372
O8    O     O_R   0.632570 0.499960 0.386400 -0.524655
O9    O     O_3   0.783478 0.598255 0.106939 -0.724960
H18   H     H_    0.775345 0.602823 0.050401 0.354066
C33   C     C_3   0.127523 0.882231 0.463357 -0.815406
H19   H     H_    0.128585 0.937493 0.409293 0.239014
H20   H     H_    0.151713 0.785043 0.446679 0.259809
H21   H     H_    0.020742 0.886800 0.493741 0.219698
O10   O     O_3   0.895837 0.445514 0.334469 -0.681477
H22   H     H_    0.906261 0.405977 0.282406 0.327957
O11   O     O_3   0.220185 0.433006 0.897757 -0.720108
H23   H     H_    0.231336 0.428987 0.954001 0.325045
O12   O     O_3   0.676523 0.638164 0.888760 -0.730591
H24   H     H_    0.751272 0.665078 0.849423 0.325947

loop_
_geom_bond_atom_site_label_1
_geom_bond_atom_site_label_2
_ccdc_geom_bond_type
C10   C27   S    
C22   H8    S    
Cu2   O4    S    
C30   O12   S    
C18   H5    S    
Cu1   O5    S    
C13   C14   A    
Cu1   O7    S    
C2    H16   S    
C21   N1    A    
C29   H1    S    
Cu2   N1    S    
C31   C32   A    
C19   C33   S    
C1    O1    A    
C6    C7    A    
C26   O10   S    
C33   H19   S    
C6    O9    S    
Cu1   O3    S    
C17   C18   S    
C18   H4    S    
C5    C10   A    
C20   N1    A    
C33   H20   S    
C12   O3    A    
C21   C22   A    
Cu1   N2    S    
C11   C13   A    
C8    H17   S    
C25   H9    S    
C29   C30   A    
C20   C26   S    
C12   C28   S    
C21   H7    S    
C12   O4    A    
C28   C29   A    
C5    H13   S    
Cu1   Cu2   S    
C16   C23   S    
C3    C7    A    
C27   O7    A    
C11   C19   S    
C14   H2    S    
C5    C6    A    
C20   C24   A    
C16   C17   A    
C1    O2    A    
Cu2   O6    S    
C1    C13   S    
C19   H6    S    
C26   H12   S    
C4    C10   A    
C15   C16   A    
C3    H15   S    
C33   H21   S    
C25   H11   S    
C23   O5    A    
Cu2   O2    S    
O11   H23   S    
C24   C25   S    
C22   N2    A    
C9    H14   S    
C2    C32   A    
C18   C19   S    
Cu1   O1    S    
C7    C9    S    
C32   O11   S    
C30   C31   A    
C8    C9    D    
C2    C28   A    
C27   O8    A    
C23   O6    A    
C25   C26   S    
C14   C15   A    
C8    C31   S    
O10   H22   S    
Cu2   O8    S    
C15   H3    S    
O9    H18   S    
C3    C4    A    
C24   N2    A    
C4    H10   S    
O12   H24   S    
C11   C17   A    
