data_mof_unit_39078.cif
_audit_creation_date              2012-12-11T14:29:24-0500
_audit_creation_method            fapswitch 2.2
_symmetry_space_group_name_H-M    P1
_symmetry_Int_Tables_number       1
_space_group_crystal_system       triclinic
_cell_length_a                    6.938016
_cell_length_b                    14.733248
_cell_length_c                    16.245063
_cell_angle_alpha                 90.485792
_cell_angle_beta                  89.880186
_cell_angle_gamma                 90.12654
_cell_volume                      1660.49508298

loop_
_atom_site_label
_atom_site_type_symbol
_atom_type_description
_atom_site_fract_x
_atom_site_fract_y
_atom_site_fract_z
_atom_type_partial_charge
O1    O     O_R   0.494400 0.416610 0.413880 -0.543170
O2    O     O_R   0.823920 0.406790 0.585520 -0.544585
O3    O     O_R   0.994250 0.583390 0.586120 -0.536520
C1    C     C_R   0.654427 0.385828 0.614084 0.779229
O4    O     O_R   0.824110 0.405730 0.414490 -0.541544
O5    O     O_R   0.994440 0.582310 0.413870 -0.537327
C2    C     C_R   0.654882 0.383705 0.386312 0.742239
O6    O     O_R   0.494210 0.417690 0.586130 -0.542409
O7    O     O_3   0.660810 0.557940 0.500000 -0.370472
V1    V     V_3+5 0.935650 0.489250 0.500000 1.409357
O8    O     O_R   0.324160 0.593210 0.414480 -0.547640
C3    C     C_R   0.155637 0.614977 0.386306 0.736787
O9    O     O_R   0.323970 0.594270 0.585510 -0.539444
C4    C     C_R   0.155076 0.616076 0.613970 0.695795
V2    V     V_3+5 0.435660 0.510750 0.500000 1.408752
O10   O     O_3   0.160630 0.442060 0.500000 -0.374021
H1    H     H_    0.379202 0.914396 0.520155 0.114478
C5    C     C_R   0.016433 0.566435 0.775865 -0.141433
C6    C     C_R   0.947947 0.540274 0.852765 -0.130616
C7    C     C_R   0.936582 0.603186 0.916749 -0.119922
C8    C     C_R   0.993284 0.692810 0.904313 -0.135731
C9    C     C_R   0.060955 0.721878 0.826567 0.068792
C10   C     C_R   0.072998 0.657273 0.760899 0.071546
C11   C     C_R   0.120165 0.813023 0.814167 -0.188806
C12   C     C_R   0.191498 0.839384 0.735913 0.065123
C13   C     C_R   0.203634 0.774776 0.670260 0.070387
C14   C     C_R   0.144481 0.683633 0.682662 -0.184947
C15   C     C_R   0.247687 0.930254 0.720902 -0.132930
C16   C     C_R   0.315937 0.956445 0.643973 -0.118032
C17   C     C_R   0.327574 0.893505 0.580021 -0.121294
C18   C     C_R   0.271205 0.803851 0.592501 -0.134089
H2    H     H_    0.025826 0.514287 0.728788 0.108099
H3    H     H_    0.904776 0.470599 0.862886 0.106657
H4    H     H_    0.884792 0.582309 0.976595 0.112152
H5    H     H_    0.984729 0.738551 0.956595 0.104305
H6    H     H_    0.238039 0.982416 0.767957 0.128352
H7    H     H_    0.358570 0.026196 0.633783 0.119341
H8    H     H_    0.279840 0.758111 0.540225 0.106017
C19   C     C_2   0.985683 0.709099 0.282755 -0.128453
C20   C     C_2   0.150682 0.682680 0.319407 -0.314089
H9    H     H_    0.849812 0.680536 0.303589 0.136776
H10   H     H_    0.288245 0.710569 0.300652 0.127013
C21   C     C_2   0.972937 0.776515 0.214768 -0.139990
C22   C     C_2   0.125968 0.814477 0.177073 -0.308103
H11   H     H_    0.828873 0.794850 0.194953 0.133984
H12   H     H_    0.271113 0.796694 0.195075 0.130107
C23   C     C_2   0.785852 0.214812 0.785790 0.496544
C24   C     C_2   0.619154 0.178135 0.814756 -0.405271
H13   H     H_    0.482090 0.195922 0.787599 0.104414
C25   C     C_2   0.791311 0.277224 0.713480 -0.231980
C26   C     C_2   0.638476 0.321927 0.683356 -0.380733
H14   H     H_    0.931430 0.288012 0.685212 0.158124
H15   H     H_    0.496973 0.314175 0.710756 0.134109
C27   C     C_2   0.779263 0.209195 0.213768 -0.132135
C28   C     C_2   0.614098 0.181970 0.177300 -0.310840
H16   H     H_    0.915108 0.180582 0.192828 0.136176
H17   H     H_    0.476581 0.209939 0.196056 0.126484
C29   C     C_2   0.791738 0.277685 0.281711 -0.137424
C30   C     C_2   0.638318 0.315460 0.319518 -0.308238
H18   H     H_    0.935732 0.296947 0.301425 0.134913
H19   H     H_    0.493179 0.296859 0.301704 0.128622
O11   O     O_R   0.770210 0.079270 0.910680 -0.500418
O12   O     O_R   0.440150 0.091160 0.082270 -0.549599
O13   O     O_R   0.269970 0.914530 0.082860 -0.543582
C31   C     C_R   0.608819 0.113309 0.110448 0.730809
O14   O     O_R   0.440480 0.090100 0.911240 -0.550508
O15   O     O_R   0.270310 0.913460 0.910610 -0.538284
C32   C     C_R   0.610077 0.111857 0.883013 0.777196
O16   O     O_R   0.769870 0.080340 0.082930 -0.540877
O17   O     O_3   0.603660 0.938980 0.996790 -0.375965
V3    V     V_3+5 0.328750 0.007610 0.996740 1.419231
O18   O     O_R   0.940600 0.902510 0.911180 -0.538203
C33   C     C_R   0.109532 0.880631 0.882825 0.704542
O19   O     O_R   0.940270 0.903570 0.082200 -0.545699
C34   C     C_R   0.109356 0.881836 0.110338 0.728597
V4    V     V_3+5 0.828770 0.986010 0.996670 1.451268
O20   O     O_3   0.103730 0.054750 0.996710 -0.364410
O21   O     O_3   0.960516 0.187095 0.818508 -0.538832
C35   C     C_3   0.051792 0.261917 0.856802 -0.230502
H20   H     H_    0.954646 0.296366 0.901883 0.113802
H21   H     H_    0.106071 0.311066 0.810633 0.113216
H22   H     H_    0.178210 0.236887 0.891483 0.165735

loop_
_geom_bond_atom_site_label_1
_geom_bond_atom_site_label_2
_ccdc_geom_bond_type
O14   C32   A    
C11   C12   A    
O12   C31   A    
C6    C7    A    
O18   V4    S    
C19   H9    S    
C12   C15   A    
C13   C14   A    
O19   V4    S    
C15   C16   A    
O5    C3    A    
C17   C18   A    
C11   C33   S    
C29   H18   S    
V2    O10   S    
O16   V4    S    
C5    C6    A    
O13   V3    S    
O8    V2    S    
C23   C24   D    
C25   H14   S    
O17   V3    S    
O15   C33   A    
C10   C14   A    
C4    C14   S    
O7    V1    S    
C1    O6    A    
C7    H4    S    
C20   H10   S    
C13   C18   A    
O9    C4    A    
H1    C17   S    
O11   V4    S    
C2    C30   S    
C28   C31   S    
C22   H12   S    
C23   C25   S    
C27   H16   S    
C30   H19   S    
O19   C34   A    
C1    C26   S    
C5    C10   A    
V4    O20   S    
C6    H3    S    
C19   C20   D    
C35   H21   S    
O21   C35   S    
C19   C21   S    
C12   C13   A    
C26   H15   S    
C3    C20   S    
C22   C34   S    
O2    C1    A    
C21   C22   D    
C16   C17   A    
O14   V3    S    
C25   C26   D    
C24   C32   S    
C21   H11   S    
O3    C4    A    
O1    V2    S    
C24   H13   S    
O12   V3    S    
O6    V2    S    
C28   H17   S    
O17   V4    S    
C9    C11   A    
C5    H2    S    
O2    V1    S    
V3    O20   S    
O4    C2    A    
C27   C29   S    
C27   C28   D    
O1    C2    A    
O18   C33   A    
O5    V1    S    
C35   H22   S    
O8    C3    A    
C8    H5    S    
C18   H8    S    
O11   C32   A    
O9    V2    S    
C29   C30   D    
O4    V1    S    
O3    V1    S    
V1    O10   S    
C31   O16   A    
O13   C34   A    
O15   V3    S    
O7    V2    S    
C35   H20   S    
C7    C8    A    
C15   H6    S    
C16   H7    S    
C9    C10   A    
C23   O21   S    
C8    C9    A    
