data_mof_unit_29306.cif
_audit_creation_date              2012-12-11T16:22:40-0500
_audit_creation_method            fapswitch 2.2
_symmetry_space_group_name_H-M    P1
_symmetry_Int_Tables_number       1
_space_group_crystal_system       triclinic
_cell_length_a                    16.928602
_cell_length_b                    16.864863
_cell_length_c                    19.533826
_cell_angle_alpha                 117.792889
_cell_angle_beta                  62.770454
_cell_angle_gamma                 100.371962
_cell_volume                      4382.85835628

loop_
_atom_site_label
_atom_site_type_symbol
_atom_type_description
_atom_site_fract_x
_atom_site_fract_y
_atom_site_fract_z
_atom_type_partial_charge
C1    C     C_R   0.038367 0.757894 0.011661 -0.040185
C2    C     C_R   0.236552 0.576218 0.834924 0.480803
C3    C     C_R   0.186368 0.481169 0.080282 -0.029083
C4    C     C_R   0.752786 0.448365 0.171746 -0.127715
C5    C     C_R   0.994901 0.339325 0.757786 -0.111394
C6    C     C_R   0.266776 0.516010 0.045894 0.093577
C7    C     C_R   0.950024 0.261929 0.755138 0.038133
C8    C     C_R   0.237484 0.546532 0.755343 -0.100806
C9    C     C_R   0.031060 0.224308 0.002146 0.122097
C10   C     C_R   0.877827 0.918519 0.489253 -0.150895
C11   C     C_R   0.911910 0.840291 0.414394 -0.158691
C12   C     C_R   0.745386 0.495604 0.254031 0.052001
C13   C     C_R   0.940841 0.840565 0.334838 0.144737
C14   C     C_R   0.928071 0.918475 0.331608 -0.152824
C15   C     C_R   0.893795 0.997145 0.406904 -0.166395
C16   C     C_R   0.804471 0.561673 0.963014 -0.122614
C17   C     C_R   0.872906 0.998582 0.485794 0.112376
C18   C     C_R   0.940799 0.141084 0.542708 -0.147032
C19   C     C_R   0.964189 0.201129 0.607801 -0.153846
C20   C     C_R   0.918003 0.205007 0.689988 0.130392
C21   C     C_R   0.842657 0.154012 0.708178 -0.148706
C22   C     C_R   0.819125 0.093633 0.642695 -0.162133
C23   C     C_R   0.723781 0.548548 0.021540 0.102480
C24   C     C_R   0.871493 0.083132 0.558545 0.105024
C25   C     C_R   0.503798 0.515879 0.402365 -0.096862
C26   C     C_R   0.584141 0.482311 0.331236 -0.206618
C27   C     C_R   0.661570 0.529361 0.329982 0.136965
C28   C     C_R   0.968771 0.672828 0.249087 -0.125567
C29   C     C_R   0.656784 0.613285 0.398158 -0.190600
C30   C     C_R   0.576139 0.646973 0.469374 -0.127761
C31   C     C_R   0.500223 0.596593 0.472826 0.233377
C32   C     C_R   0.454238 0.590209 0.606063 -0.222503
C33   C     C_R   0.391029 0.569529 0.670438 -0.032768
C34   C     C_R   0.981816 0.758904 0.255984 0.014788
C35   C     C_R   0.301511 0.570926 0.688147 0.113732
C36   C     C_R   0.274924 0.594943 0.641841 -0.275339
C37   C     C_R   0.338783 0.614110 0.574984 0.549469
C38   C     C_R   0.429353 0.608900 0.555761 -0.117373
C39   C     C_R   0.637244 0.593372 0.059683 0.041999
C40   C     C_R   0.738719 0.480296 0.035124 -0.119531
C41   C     C_R   0.338310 0.533211 0.073159 -0.124976
C42   C     C_R   0.421251 0.504114 0.132769 -0.247981
C43   C     C_R   0.355419 0.479310 0.103712 0.555065
C44   C     C_R   0.392174 0.605979 0.067378 -0.189874
C45   C     C_R   0.257171 0.551694 0.998334 -0.085453
C46   C     C_R   0.469404 0.617643 0.079011 -0.035923
C47   C     C_R   0.482181 0.566802 0.113812 0.049456
C48   C     C_R   0.563416 0.565388 0.113713 -0.181973
C49   C     C_R   0.624723 0.652574 0.033292 -0.296951
C50   C     C_R   0.539339 0.669593 0.047366 0.542554
C51   C     C_R   0.839810 0.178646 0.135288 0.108643
C52   C     C_R   0.033112 0.751719 0.173769 -0.077437
C53   C     C_R   0.962550 0.860240 0.992275 0.127363
C54   C     C_R   0.889810 0.945246 0.963023 -0.187932
C55   C     C_R   0.927353 0.864799 0.941371 -0.129628
C56   C     C_R   0.926035 0.261116 0.833079 -0.118360
C57   C     C_R   0.962528 0.938938 0.063761 -0.253520
C58   C     C_R   0.924092 0.019770 0.086461 0.182200
C59   C     C_R   0.886213 0.022583 0.036316 0.171980
C60   C     C_R   0.843923 0.102302 0.061443 -0.261341
C61   C     C_R   0.878267 0.176352 0.184165 -0.153094
C62   C     C_R   0.920313 0.097301 0.160046 -0.200720
C63   C     C_R   0.829827 0.520638 0.248654 -0.138201
C64   C     C_R   0.962433 0.688714 0.933713 -0.135197
C65   C     C_R   0.989328 0.772424 0.977407 0.032885
C66   C     C_R   0.160236 0.501732 0.756973 -0.197346
C67   C     C_R   0.053218 0.308818 0.050862 -0.102902
C68   C     C_R   0.975194 0.240419 0.974693 -0.138194
H1    H     H_    0.078316 0.806468 0.040302 0.129603
H2    H     H_    0.701914 0.410552 0.152864 0.092171
H3    H     H_    0.983163 0.133680 0.478291 0.126204
H4    H     H_    0.022277 0.240032 0.591997 0.121359
H5    H     H_    0.803929 0.158125 0.771820 0.118582
H6    H     H_    0.574178 0.708472 0.524477 0.141662
H7    H     H_    0.815055 0.605723 0.934206 0.101820
H8    H     H_    0.412601 0.548242 0.703824 0.155541
H9    H     H_    0.205121 0.597289 0.656828 0.172428
H10   H     H_    0.570999 0.527562 0.142462 0.129238
H11   H     H_    0.433857 0.464309 0.157457 0.192758
H12   H     H_    0.880044 0.217095 0.857567 0.089825
H13   H     H_    0.813824 0.105665 0.024395 0.126792
H14   H     H_    0.936494 0.653967 0.300739 0.094226
H15   H     H_    0.875002 0.235930 0.241061 0.132265
H16   H     H_    0.861726 0.946432 0.923549 0.138318
H17   H     H_    0.948940 0.096489 0.199272 0.133878
H18   H     H_    0.927042 0.805792 0.885587 0.129795
H19   H     H_    0.988268 0.936632 0.104417 0.113549
H20   H     H_    0.059498 0.806377 0.156957 0.099305
H21   H     H_    0.848194 0.549153 0.301163 0.096203
H22   H     H_    0.933002 0.673079 0.890457 0.100546
H23   H     H_    0.133922 0.481171 0.710340 0.135862
H24   H     H_    0.303537 0.591927 0.969695 0.195097
H25   H     H_    0.263302 0.774285 0.011123 0.387961
H26   H     H_    0.920195 0.781259 0.419203 0.118376
H27   H     H_    0.889763 0.058246 0.403094 0.120526
H28   H     H_    0.764754 0.049991 0.656213 0.128320
H29   H     H_    0.446319 0.474736 0.405632 0.150026
H30   H     H_    0.586127 0.417809 0.279057 0.129768
H31   H     H_    0.715359 0.652157 0.397025 0.126628
H32   H     H_    0.523704 0.583286 0.590310 0.155801
H33   H     H_    0.359178 0.708405 0.433471 0.381060
H34   H     H_    0.093661 0.322149 0.084416 0.160414
H35   H     H_    0.681247 0.680783 0.997282 0.183655
H36   H     H_    0.605362 0.844122 0.972809 0.381818
H37   H     H_    0.354729 0.251170 0.079783 0.386421
H38   H     H_    0.378368 0.648218 0.046155 0.209211
H39   H     H_    0.689974 0.445351 0.068511 0.095985
H40   H     H_    0.943246 0.190216 0.937104 0.106243
H41   H     H_    0.162793 0.464373 0.133073 0.154062
H42   H     H_    0.010474 0.368951 0.714697 0.096139
H43   H     H_    0.863693 0.917863 0.548956 0.125528
H44   H     H_    0.946765 0.919430 0.271075 0.107544
N1    N     N_R   0.034930 0.670790 0.995440 -0.034716
N2    N     N_R   0.867000 0.509260 0.948460 -0.045191
N3    N     N_R   0.003780 0.616410 0.165900 -0.049627
N4    N     N_R   0.825670 0.461520 0.995440 -0.045745
N5    N     N_R   0.045120 0.664150 0.118920 -0.028623
N6    N     N_R   0.884940 0.497570 0.165910 -0.040680
N7    N     N_R   0.985840 0.628110 0.948460 -0.049127
N8    N     N_R   0.174330 0.538480 0.004560 -0.044022
N9    N     N_R   0.954880 0.335850 0.881080 -0.040403
N10   N     N_R   0.115060 0.502430 0.834090 -0.066483
N11   N     N_R   0.014160 0.371890 0.051540 -0.055802
N12   N     N_R   0.965070 0.329210 0.004560 -0.046547
N13   N     N_R   0.164150 0.545120 0.881070 -0.091280
N14   N     N_R   0.133000 0.490740 0.051540 -0.070076
N15   N     N_R   0.996220 0.383590 0.834100 -0.038947
N16   N     N_R   0.835850 0.454880 0.118930 -0.040091
Ni1   Ni    Ni4+2 0.103690 0.603690 0.000000 0.307168
Ni2   Ni    Ni4+2 0.896310 0.396310 0.000000 0.213100
Ni3   Ni    Ni4+2 0.991110 0.505800 0.892250 0.218245
Ni4   Ni    Ni4+2 0.008890 0.494200 0.107750 0.222345
O1    O     O_2   0.380066 0.653896 0.859360 -0.282022
O2    O     O_2   0.227500 0.384082 0.173443 -0.315937
O3    O     O_2   0.290547 0.326335 0.016738 -0.303283
O4    O     O_3   0.384995 0.307742 0.081870 -0.527640
O5    O     O_2   0.287494 0.741154 0.850121 -0.263138
O6    O     O_3   0.228458 0.722714 0.989729 -0.594506
O7    O     O_2   0.294974 0.555218 0.444808 -0.299648
O8    O     O_2   0.215524 0.691218 0.572525 -0.268428
O9    O     O_3   0.378978 0.704077 0.472167 -0.527561
O10   O     O_2   0.518014 0.689189 0.928755 -0.253821
O11   O     O_2   0.445401 0.803560 0.077273 -0.286135
O12   O     O_3   0.616645 0.806601 0.994409 -0.541258
S1    S     S_3+6 0.286235 0.675541 0.882566 -0.058534
S2    S     S_3+6 0.304062 0.640746 0.515187 -0.033974
S3    S     S_3+6 0.527134 0.743378 0.011230 -0.031696
S4    S     S_3+6 0.310671 0.372650 0.093618 -0.056286

loop_
_geom_bond_atom_site_label_1
_geom_bond_atom_site_label_2
_ccdc_geom_bond_type
C50   S3    S    
C25   C31   A    
O7    S2    D    
C58   C62   A    
C6    C45   A    
N11   Ni4   S    
C27   C29   A    
C16   H7    S    
N2    Ni3   S    
C54   C55   A    
C35   C36   A    
C51   C61   A    
C64   H22   S    
N9    Ni2   S    
C3    C6    A    
C68   N12   A    
C4    H2    S    
C3    N14   A    
N11   N12   A    
C2    S1    S    
O11   S3    D    
C26   C27   A    
C29   C30   A    
C64   N7    A    
N1    Ni1   S    
C18   C24   A    
O5    S1    D    
C36   C37   A    
C3    H41   S    
N9    N15   A    
C36   H9    S    
C15   H27   S    
C30   C31   A    
C30   H6    S    
N8    N14   A    
C5    H42   S    
C10   C17   A    
C23   C40   A    
C21   H5    S    
C15   C17   A    
C18   C19   A    
C48   H10   S    
C49   C50   A    
C45   H24   S    
H25   O6    S    
N1    N7    A    
H33   O9    S    
N6    N16   A    
C19   C20   A    
N3    N5    A    
C6    C41   S    
N7    Ni3   S    
C66   N10   A    
C8    C66   A    
C43   S4    S    
C32   C38   A    
C37   S2    S    
C4    C12   A    
C53   C65   S    
C16   N2    A    
N3    Ni4   S    
C52   N5    A    
C28   C34   A    
C42   H11   S    
C13   C14   A    
C41   C43   A    
C5    N15   A    
C19   H4    S    
C1    N1    A    
C7    C56   A    
O12   S3    S    
C54   H16   S    
C44   C46   A    
C54   C59   A    
C53   C55   A    
C62   H17   S    
C32   H32   S    
C17   C24   S    
C4    N16   A    
C12   C27   S    
C28   H14   S    
N8    Ni1   S    
C52   H20   S    
C61   H15   S    
O8    S2    D    
C5    C7    A    
C12   C63   A    
C29   H31   S    
C25   C26   A    
C1    H1    S    
C57   H19   S    
C67   N11   A    
C8    C35   S    
C14   H44   S    
C9    C67   A    
C37   C38   A    
C28   N3    A    
C60   H13   S    
C33   H8    S    
C1    C65   A    
C47   C48   A    
N14   Ni4   S    
C63   H21   S    
H36   O12   S    
N12   Ni2   S    
C10   H43   S    
C56   N9    A    
O4    S4    S    
O9    S2    S    
C26   H30   S    
H37   O4    S    
C11   H26   S    
C25   H29   S    
C39   C49   A    
O3    S4    D    
C16   C23   A    
C40   H39   S    
C41   C44   A    
C22   C24   A    
O1    S1    D    
C42   C43   A    
N10   Ni3   S    
N5    Ni1   S    
C45   N8    A    
C18   H3    S    
C63   N6    A    
C46   C47   A    
C53   C57   A    
C22   H28   S    
O10   S3    D    
C2    C8    A    
N16   Ni2   S    
C49   H35   S    
N2    N4    A    
C66   H23   S    
C44   H38   S    
O2    S4    D    
C46   C50   A    
C34   C52   A    
C56   H12   S    
C31   C38   S    
O6    S1    S    
C32   C33   A    
C55   H18   S    
C58   C59   A    
C9    C68   A    
C13   C34   S    
C64   C65   A    
C11   C13   A    
C57   C58   A    
C40   N4    A    
N10   N13   A    
C23   C39   S    
C33   C35   A    
C42   C47   A    
C61   C62   A    
N15   Ni3   S    
N6    Ni4   S    
C10   C11   A    
C2    N13   A    
N13   Ni1   S    
C59   C60   A    
N4    Ni2   S    
C20   C21   A    
C7    C20   S    
C14   C15   A    
C51   C60   A    
C68   H40   S    
C21   C22   A    
C67   H34   S    
C39   C48   A    
