data_mof_unit_61198.cif
_audit_creation_date              2012-12-10T19:17:25-0500
_audit_creation_method            fapswitch 2.2
_symmetry_space_group_name_H-M    P1
_symmetry_Int_Tables_number       1
_space_group_crystal_system       triclinic
_cell_length_a                    16.027435
_cell_length_b                    14.794214
_cell_length_c                    15.974807
_cell_angle_alpha                 89.864897
_cell_angle_beta                  89.852632
_cell_angle_gamma                 89.985302
_cell_volume                      3787.81607835

loop_
_atom_site_label
_atom_site_type_symbol
_atom_type_description
_atom_site_fract_x
_atom_site_fract_y
_atom_site_fract_z
_atom_type_partial_charge
C1    C     C_R   0.341017 0.500003 0.500111 0.834378
C2    C     C_3   0.574451 0.435692 0.950576 -0.198403
C3    C     C_3   0.578700 0.449554 0.051393 -0.205580
C4    C     C_1   0.499791 0.499664 0.823691 0.205812
C5    C     C_1   0.497812 0.501501 0.176481 0.006582
C6    C     C_1   0.499203 0.500592 0.251419 -0.056369
C7    C     C_R   0.956283 0.503044 0.422669 -0.055929
C8    C     C_R   0.955636 0.496466 0.576806 -0.049571
C9    C     C_R   0.912422 0.499834 0.499677 -0.030656
C10   C     C_R   0.043606 0.496247 0.576422 -0.091487
C11   C     C_R   0.044267 0.503017 0.423334 -0.090343
C12   C     C_R   0.087386 0.499684 0.499958 0.021825
C13   C     C_1   0.822563 0.499922 0.499618 0.067068
C14   C     C_R   0.500118 0.500123 0.340200 0.827100
C15   C     C_1   0.177364 0.499840 0.500103 -0.019969
C16   C     C_1   0.252203 0.499967 0.500138 -0.121647
C17   C     C_1   0.747724 0.499964 0.499729 -0.068431
C18   C     C_R   0.491208 0.951597 0.575541 -0.057551
C19   C     C_R   0.490948 0.047873 0.575528 -0.049575
C20   C     C_R   0.499735 0.902787 0.499871 -0.068036
C21   C     C_R   0.499606 0.097155 0.499902 -0.067430
C22   C     C_R   0.507975 0.952024 0.424174 -0.055189
C23   C     C_R   0.508012 0.048322 0.424201 -0.054615
C24   C     C_1   0.499885 0.802436 0.499933 0.191811
C25   C     C_1   0.499813 0.197546 0.499977 0.186651
C26   C     C_R   0.658952 0.499990 0.499918 0.825421
C27   C     C_R   0.500242 0.499922 0.659860 0.820094
C28   C     C_3   0.497298 0.605530 0.050040 -0.232275
C29   C     C_3   0.413432 0.450512 0.050720 -0.224424
C30   C     C_3   0.408572 0.459813 0.948757 -0.252201
C31   C     C_3   0.512130 0.604135 0.948581 -0.253092
C32   C     C_1   0.500231 0.499790 0.748644 0.091119
C33   C     C_3   0.496307 0.502264 0.083715 -0.032169
C34   C     C_3   0.498531 0.499884 0.916070 -0.129469
Cu1   Cu    Cu3+1 0.500000 0.589220 0.500020 1.051963
Cu2   Cu    Cu3+1 0.500000 0.410780 0.500020 1.040390
N1    N     N_1   0.499980 0.276710 0.500030 -0.142111
N2    N     N_1   0.499980 0.723290 0.500030 -0.140009
O1    O     O_R   0.380310 0.575320 0.500040 -0.567583
O2    O     O_R   0.380310 0.424680 0.500040 -0.569603
O3    O     O_R   0.500000 0.575380 0.379460 -0.556404
O4    O     O_R   0.500000 0.424620 0.379460 -0.575472
O5    O     O_R   0.619690 0.575360 0.500000 -0.566427
O6    O     O_R   0.619690 0.424640 0.500000 -0.567064
O7    O     O_R   0.500000 0.575310 0.620580 -0.557992
O8    O     O_R   0.500000 0.424690 0.620580 -0.558252
C35   C     C_2   0.458086 0.677656 0.906258 0.929095
O9    O     O_2   0.417537 0.662888 0.843186 -0.561849
O10   O     O_R   0.465339 0.767085 0.934230 -0.715879
H1    H     H_    0.430353 0.810966 0.900376 0.369844
C36   C     C_2   0.336812 0.518927 0.913623 0.928713
O11   O     O_2   0.290466 0.563275 0.957973 -0.507181
O12   O     O_R   0.320616 0.517403 0.827308 -0.727744
H2    H     H_    0.271641 0.556956 0.810808 0.368232
C37   C     C_1   0.516333 0.903421 0.345866 0.271911
N3    N     N_1   0.522966 0.864556 0.283403 -0.199758
C38   C     C_1   0.516562 0.097328 0.345929 0.271211
N4    N     N_1   0.523362 0.136502 0.283483 -0.200720
C39   C     C_2   0.419477 0.656358 0.084053 0.924061
O13   O     O_2   0.363268 0.683346 0.039305 -0.516247
O14   O     O_R   0.414303 0.675563 0.170031 -0.718514
H3    H     H_    0.361970 0.710239 0.185674 0.365295
C40   C     C_2   0.330692 0.474407 0.094899 0.915690
O15   O     O_2   0.328463 0.520278 0.158300 -0.569928
O16   O     O_R   0.256650 0.433727 0.067501 -0.678431
H4    H     H_    0.206419 0.451412 0.102540 0.366172
C41   C     C_1   0.418605 0.354579 0.078702 0.333691
N5    N     N_1   0.420117 0.280218 0.101629 -0.148260
C42   C     C_1   0.562520 0.660559 0.092156 0.380180
N6    N     N_1   0.611684 0.704503 0.126165 -0.169206
C43   C     C_2   0.382096 0.368529 0.908534 0.895057
O17   O     O_2   0.326192 0.323745 0.940559 -0.512496
O18   O     O_R   0.410587 0.342917 0.829241 -0.735201
H5    H     H_    0.384865 0.284318 0.809033 0.362618
C44   C     C_2   0.599399 0.637333 0.917165 0.864859
O19   O     O_2   0.608353 0.657297 0.843031 -0.531977
O20   O     O_R   0.669054 0.645295 0.968855 -0.747780
H6    H     H_    0.720678 0.667124 0.938046 0.365940
C45   C     C_1   0.654578 0.498478 0.079504 0.340508
N7    N     N_1   0.714584 0.533973 0.102887 -0.178035
C46   C     C_1   0.593581 0.363544 0.097339 0.323765
N8    N     N_1   0.606384 0.297244 0.133861 -0.171378
C47   C     C_2   0.661579 0.452292 0.910405 0.874155
O21   O     O_2   0.723724 0.419803 0.943337 -0.558308
O22   O     O_R   0.670121 0.490105 0.830530 -0.725819
H7    H     H_    0.730229 0.492537 0.810705 0.364278
C48   C     C_2   0.560647 0.337181 0.920454 0.865167
O23   O     O_2   0.536079 0.277043 0.966740 -0.563637
O24   O     O_R   0.577775 0.315397 0.836669 -0.709302
H8    H     H_    0.568252 0.249144 0.823796 0.367925
C49   C     C_1   0.090931 0.503219 0.345290 0.343406
N9    N     N_1   0.128282 0.503326 0.283179 -0.211101
C50   C     C_1   0.089542 0.495457 0.654627 0.344576
N10   N     N_1   0.126253 0.494816 0.716916 -0.213027
C51   C     C_2   0.910466 0.506382 0.341486 0.859379
O25   O     O_2   0.851181 0.456101 0.329307 -0.574514
O26   O     O_R   0.935473 0.566957 0.278950 -0.727950
H9    H     H_    0.899677 0.562731 0.226864 0.361454
C52   C     C_2   0.909123 0.493341 0.657841 0.853521
O27   O     O_2   0.850169 0.544208 0.669959 -0.578588
O28   O     O_R   0.933097 0.432314 0.720291 -0.724651
H10   H     H_    0.896883 0.436728 0.772261 0.355928
C53   C     C_1   0.481346 0.096348 0.653718 0.275165
N11   N     N_1   0.473568 0.135020 0.716131 -0.248144
C54   C     C_1   0.482657 0.902563 0.653816 0.280424
N12   N     N_1   0.475862 0.863354 0.716244 -0.201483

loop_
_geom_bond_atom_site_label_1
_geom_bond_atom_site_label_2
_ccdc_geom_bond_type
C48   O23   D    
C29   C40   S    
C50   N10   T    
O18   H5    S    
Cu2   O4    S    
C51   O25   D    
C37   N3    T    
C3    C45   S    
C40   O16   S    
C30   C43   S    
C26   O6    A    
C35   O10   S    
O22   H7    S    
C7    C11   A    
O28   H10   S    
C47   O21   D    
C17   C26   S    
Cu2   N1    S    
C19   C21   A    
C30   C36   S    
C5    C6    T    
C3    C33   S    
C15   C16   T    
C29   C33   S    
C23   C38   S    
C18   C19   A    
C9    C13   S    
C1    O2    A    
C25   N1    T    
C29   C41   S    
C19   C53   S    
C28   C42   S    
C8    C9    A    
C5    C33   S    
C3    C46   S    
C24   N2    T    
Cu2   O8    S    
Cu1   O5    S    
C14   O4    A    
C27   O7    A    
C39   O13   D    
C31   C35   S    
C2    C47   S    
C42   N6    T    
C26   O5    A    
O26   H9    S    
C4    C34   S    
C39   O14   S    
C30   C34   S    
C41   N5    T    
C35   O9    D    
C20   C24   S    
Cu2   O2    S    
Cu1   N2    S    
C49   N9    T    
C43   O18   S    
C10   C50   S    
O20   H6    S    
C46   N8    T    
C36   O11   D    
C36   O12   S    
Cu1   Cu2   S    
Cu1   O1    S    
C44   O19   D    
C29   C30   S    
C6    C14   S    
C31   C44   S    
C52   O27   D    
C12   C15   S    
C31   C34   S    
C2    C48   S    
C1    C16   S    
C44   O20   S    
C4    C32   T    
C10   C12   A    
C14   O3    A    
C27   O8    A    
C47   O22   S    
C20   C22   A    
C28   C33   S    
O16   H4    S    
C48   O24   S    
Cu2   O6    S    
Cu1   O7    S    
C28   C39   S    
C7    C9    A    
C21   C25   S    
C52   O28   S    
C27   C32   S    
C8    C52   S    
C28   C31   S    
C40   O15   D    
C11   C12   A    
C51   O26   S    
O12   H2    S    
C22   C37   S    
C7    C51   S    
C54   N12   T    
C13   C17   T    
C21   C23   A    
C2    C3    S    
C18   C54   S    
C43   O17   D    
C2    C34   S    
C38   N4    T    
C18   C20   A    
O14   H3    S    
Cu1   O3    S    
C1    O1    A    
C45   N7    T    
C11   C49   S    
C8    C10   A    
O10   H1    S    
C53   N11   T    
C22   C23   A    
O24   H8    S    
