data_mof_unit_45064.cif
_audit_creation_date              2012-10-26T19:23:28-0400
_audit_creation_method            fapswitch 2.2
_symmetry_space_group_name_H-M    P1
_symmetry_Int_Tables_number       1
_space_group_crystal_system       triclinic
_cell_length_a                    27.596355
_cell_length_b                    12.967802
_cell_length_c                    11.935292
_cell_angle_alpha                 99.751484
_cell_angle_beta                  92.755133
_cell_angle_gamma                 94.830826
_cell_volume                      4186.08941179

loop_
_atom_site_label
_atom_site_type_symbol
_atom_type_description
_atom_site_fract_x
_atom_site_fract_y
_atom_site_fract_z
_atom_type_partial_charge
C1    C     C_R   0.499858 0.299720 0.478746 0.527607
C2    C     C_R   0.872472 0.399827 0.518085 0.022477
C3    C     C_R   0.355464 0.512250 0.505773 -0.009389
C4    C     C_R   0.644616 0.484325 0.497641 -0.001729
C5    C     C_R   0.974830 0.413065 0.563335 -0.004057
C6    C     C_R   0.028877 0.605405 0.569886 -0.003975
C7    C     C_R   0.978553 0.603664 0.589971 0.016915
C8    C     C_R   0.025979 0.421120 0.587897 0.016857
C9    C     C_R   0.950838 0.505283 0.569765 0.004544
C10   C     C_R   0.053068 0.514685 0.574223 0.004612
C11   C     C_R   0.948117 0.315891 0.525202 -0.117996
C12   C     C_R   0.500509 0.700378 0.521451 0.525237
C13   C     C_R   0.054275 0.692653 0.537929 -0.117945
C14   C     C_R   0.897213 0.306158 0.505262 0.012136
C15   C     C_R   0.104496 0.697337 0.522351 0.011885
C16   C     C_R   0.407960 0.503013 0.501371 0.531698
C17   C     C_R   0.591999 0.494865 0.498932 0.535063
C18   C     C_R   0.050945 0.339879 0.623741 0.017523
C19   C     C_R   0.954939 0.695283 0.627561 0.017400
C20   C     C_R   0.500075 0.814030 0.533891 -0.006886
C21   C     C_R   0.500864 0.186295 0.467172 -0.004464
C22   C     C_R   0.505529 0.016401 0.349942 -0.140587
C23   C     C_R   0.103832 0.517181 0.563760 -0.059217
C24   C     C_R   0.496342 0.984086 0.651936 -0.142249
C25   C     C_R   0.505284 0.124628 0.360280 -0.143277
C26   C     C_R   0.497203 0.875840 0.641537 -0.145932
C27   C     C_R   0.497984 0.139259 0.564370 -0.138598
C28   C     C_R   0.502162 0.861200 0.436874 -0.132630
C29   C     C_R   0.498845 0.031230 0.554958 0.048055
C30   C     C_R   0.502147 0.969314 0.446722 0.049421
C31   C     C_R   0.452795 0.400015 0.024138 -0.168575
C32   C     C_R   0.545195 0.602630 0.975272 -0.159269
C33   C     C_R   0.452865 0.418011 0.143572 0.155545
C34   C     C_R   0.899589 0.499126 0.555253 -0.059123
C35   C     C_R   0.542980 0.591589 0.856247 0.156298
C36   C     C_R   0.525749 0.532019 0.150687 0.152489
C37   C     C_R   0.477155 0.457323 0.844463 0.154224
C38   C     C_R   0.517363 0.534137 0.031345 -0.016730
C39   C     C_R   0.482276 0.463014 0.965895 -0.004797
C40   C     C_R   0.179434 0.436060 0.574818 0.380563
C41   C     C_R   0.824311 0.582639 0.566299 0.380072
C42   C     C_R   0.179358 0.600262 0.510184 0.380573
C43   C     C_R   0.821770 0.399439 0.492317 0.380707
C44   C     C_R   0.286496 0.594609 0.586492 -0.049211
C45   C     C_R   0.128306 0.428609 0.580656 0.019780
C46   C     C_R   0.718673 0.421486 0.567379 -0.057369
C47   C     C_R   0.337199 0.596311 0.578261 -0.021891
C48   C     C_R   0.667736 0.417272 0.561395 -0.018258
C49   C     C_R   0.323406 0.435973 0.436024 -0.153919
C50   C     C_R   0.672578 0.544126 0.432529 -0.154983
C51   C     C_R   0.272936 0.439426 0.437832 0.068810
C52   C     C_R   0.723156 0.541379 0.431185 0.068724
C53   C     C_R   0.254406 0.516847 0.518255 0.237766
C54   C     C_R   0.746646 0.483594 0.504566 0.239238
C55   C     C_3   0.435403 0.383696 0.778395 -0.236474
C56   C     C_R   0.875754 0.592610 0.574837 0.020183
C57   C     C_3   0.385697 0.426064 0.798183 -0.429084
C58   C     C_3   0.577778 0.568118 0.199043 -0.218774
C59   C     C_3   0.584082 0.679498 0.268135 -0.411645
C60   C     C_3   0.580351 0.662297 0.808707 -0.235985
C61   C     C_3   0.631768 0.629417 0.825912 -0.438916
C62   C     C_3   0.405867 0.372196 0.186788 -0.216032
C63   C     C_3   0.410328 0.273048 0.238237 -0.390301
C64   C     C_3   0.240285 0.359981 0.353214 -0.250614
C65   C     C_3   0.247677 0.375774 0.230990 -0.449094
C66   C     C_3   0.750610 0.600953 0.351407 -0.248978
C67   C     C_R   0.101212 0.337664 0.606200 0.008315
C68   C     C_3   0.735272 0.555753 0.226863 -0.453519
C69   C     C_3   0.123565 0.234140 0.601904 -0.363881
C70   C     C_3   0.881270 0.794233 0.604683 -0.363190
C71   C     C_3   0.640276 0.337578 0.620605 -0.286179
C72   C     C_3   0.644130 0.225584 0.559030 -0.433764
C73   C     C_3   0.372114 0.687736 0.641089 -0.261701
C74   C     C_3   0.348435 0.783570 0.699065 -0.458043
C75   C     C_3   0.869703 0.196604 0.474015 -0.239440
C76   C     C_3   0.898817 0.102909 0.485370 -0.480869
C77   C     C_3   0.130917 0.798958 0.497643 -0.238814
C78   C     C_R   0.903889 0.691734 0.606337 0.008527
C79   C     C_3   0.102267 0.896119 0.510642 -0.481914
C80   C     C_3   0.027440 0.268991 0.700874 -0.271763
C81   C     C_3   0.003068 0.331094 0.799953 -0.429200
C82   C     C_3   0.981472 0.789020 0.709975 -0.271505
C83   C     C_3   0.009638 0.755299 0.809275 -0.429594
C84   C     C_R   0.129662 0.606896 0.532892 0.022239
Cu1   Cu    Cu3+1 0.503580 0.507730 0.615930 0.878882
Cu2   Cu    Cu3+1 0.496420 0.492270 0.384070 0.918249
H1    H     H_    0.337737 0.372712 0.380106 0.102460
H2    H     H_    0.270953 0.653708 0.645433 0.132622
H3    H     H_    0.967941 0.248046 0.503839 0.121906
H4    H     H_    0.033668 0.754578 0.517621 0.122039
H5    H     H_    0.503779 0.814099 0.353355 0.120344
H6    H     H_    0.494941 0.186366 0.647501 0.115962
H7    H     H_    0.386383 0.507725 0.782120 0.170889
H8    H     H_    0.357288 0.376518 0.739060 0.149612
H9    H     H_    0.374913 0.425921 0.886315 0.135166
H10   H     H_    0.438653 0.367970 0.687223 0.214999
H11   H     H_    0.435599 0.303740 0.799728 0.087097
H12   H     H_    0.655083 0.594648 0.383374 0.109693
H13   H     H_    0.559105 0.730343 0.232753 0.133026
H14   H     H_    0.578184 0.679492 0.358903 0.185984
H15   H     H_    0.621981 0.714428 0.264003 0.106420
H16   H     H_    0.594546 0.508055 0.237957 0.168084
H17   H     H_    0.603020 0.567601 0.129407 0.086512
H18   H     H_    0.633255 0.545665 0.787457 0.173422
H19   H     H_    0.657934 0.678334 0.784372 0.149882
H20   H     H_    0.643210 0.640439 0.917963 0.132822
H21   H     H_    0.573868 0.664950 0.718580 0.214027
H22   H     H_    0.579275 0.744715 0.852837 0.099980
H23   H     H_    0.495223 0.840605 0.717439 0.127553
H24   H     H_    0.442066 0.232346 0.206731 0.152671
H25   H     H_    0.412402 0.291620 0.332308 0.174012
H26   H     H_    0.377161 0.217498 0.213316 0.104067
H27   H     H_    0.386402 0.432493 0.237432 0.165254
H28   H     H_    0.377994 0.347899 0.114424 0.083420
H29   H     H_    0.240515 0.456880 0.221038 0.175062
H30   H     H_    0.285369 0.361955 0.207813 0.139284
H31   H     H_    0.221961 0.319264 0.171459 0.138027
H32   H     H_    0.248468 0.279319 0.362656 0.145964
H33   H     H_    0.201161 0.365677 0.367394 0.164105
H34   H     H_    0.508913 0.159866 0.284820 0.125555
H35   H     H_    0.741183 0.471011 0.208048 0.172366
H36   H     H_    0.696310 0.565214 0.207451 0.137658
H37   H     H_    0.757494 0.598018 0.170693 0.138944
H38   H     H_    0.743448 0.685028 0.369782 0.147725
H39   H     H_    0.790522 0.597810 0.362287 0.165375
H40   H     H_    0.095503 0.166009 0.590135 0.092313
H41   H     H_    0.145651 0.219125 0.526483 0.160897
H42   H     H_    0.146234 0.234820 0.681461 0.172610
H43   H     H_    0.908857 0.859550 0.596563 0.092725
H44   H     H_    0.855744 0.787086 0.528367 0.159990
H45   H     H_    0.508640 0.969713 0.266667 0.100513
H46   H     H_    0.862144 0.816463 0.683688 0.173069
H47   H     H_    0.628843 0.215939 0.469628 0.166301
H48   H     H_    0.682673 0.206924 0.559306 0.165705
H49   H     H_    0.623030 0.169077 0.602666 0.142974
H50   H     H_    0.655501 0.346242 0.709978 0.130446
H51   H     H_    0.601077 0.347603 0.624737 0.195891
H52   H     H_    0.324299 0.812985 0.636722 0.170134
H53   H     H_    0.327424 0.763778 0.770845 0.143566
H54   H     H_    0.377299 0.847369 0.734153 0.141735
H55   H     H_    0.395223 0.660522 0.706697 0.168493
H56   H     H_    0.493813 0.030790 0.735456 0.099769
H57   H     H_    0.396504 0.715194 0.578544 0.160931
H58   H     H_    0.926363 0.093809 0.420436 0.142855
H59   H     H_    0.916706 0.112263 0.572346 0.145417
H60   H     H_    0.873705 0.029676 0.470758 0.142386
H61   H     H_    0.839462 0.191793 0.531694 0.184951
H62   H     H_    0.854379 0.185261 0.384530 0.193671
H63   H     H_    0.072179 0.886416 0.443419 0.142409
H64   H     H_    0.087704 0.911383 0.596453 0.145373
H65   H     H_    0.126916 0.965868 0.500911 0.142562
H66   H     H_    0.163433 0.820613 0.558358 0.185867
H67   H     H_    0.426557 0.339744 0.977956 0.100907
H68   H     H_    0.142809 0.785011 0.409169 0.193894
H69   H     H_    0.028630 0.397477 0.845260 0.157168
H70   H     H_    0.969443 0.361971 0.769994 0.163200
H71   H     H_    0.992667 0.278726 0.861204 0.130908
H72   H     H_    0.001311 0.205703 0.653043 0.124371
H73   H     H_    0.055399 0.228343 0.741792 0.143400
H74   H     H_    0.985725 0.701250 0.850206 0.156559
H75   H     H_    0.042140 0.716029 0.780597 0.163377
H76   H     H_    0.022447 0.825671 0.873889 0.129931
H77   H     H_    0.005832 0.839323 0.666487 0.124231
H78   H     H_    0.569805 0.665625 0.023749 0.104175
H79   H     H_    0.955061 0.841310 0.750513 0.143646
H80   H     H_    0.736991 0.375254 0.621027 0.127895
N1    N     N_R   0.202931 0.517134 0.533412 -0.395516
N2    N     N_R   0.799003 0.489057 0.519381 -0.394731
N3    N     N_R   0.508960 0.519350 0.790140 -0.223558
N4    N     N_R   0.491040 0.480650 0.209860 -0.204876
O1    O     O_R   0.502540 0.354460 0.582000 -0.534677
O2    O     O_2   0.799253 0.664568 0.606307 -0.528528
O3    O     O_2   0.795035 0.311494 0.439188 -0.541642
O4    O     O_2   0.204231 0.674442 0.463429 -0.539651
O5    O     O_R   0.497460 0.645540 0.418000 -0.498431
O6    O     O_R   0.496500 0.341410 0.386200 -0.500425
O7    O     O_R   0.503500 0.658590 0.613800 -0.526807
O8    O     O_R   0.433290 0.506540 0.597890 -0.518549
O9    O     O_R   0.566710 0.493460 0.402110 -0.510446
O10   O     O_R   0.427240 0.493490 0.402090 -0.503336
O11   O     O_R   0.572760 0.506510 0.597910 -0.517924
O12   O     O_2   0.206069 0.364340 0.611446 -0.528396

loop_
_geom_bond_atom_site_label_1
_geom_bond_atom_site_label_2
_ccdc_geom_bond_type
C66   C68   S    
C1    O6    A    
C34   C56   A    
C23   C45   A    
C80   C81   S    
C22   H45   S    
C70   C78   S    
C59   H13   S    
C73   C74   S    
C49   H1    S    
C55   H11   S    
C3    C49   A    
C56   C78   A    
C71   H51   S    
C73   H55   S    
Cu1   Cu2   S    
C1    C21   S    
C74   H52   S    
C29   C30   A    
C81   H70   S    
C24   C26   A    
C62   H28   S    
C36   C58   S    
C73   H57   S    
C38   C39   A    
C13   H4    S    
C11   C14   A    
C27   C29   A    
C82   H77   S    
C41   N2    A    
C70   H44   S    
C64   H32   S    
C68   H37   S    
Cu2   O5    S    
C3    C47   A    
C63   H26   S    
C24   C29   A    
C40   N1    A    
C80   H72   S    
C44   C53   A    
C53   N1    S    
C83   H74   S    
C69   H42   S    
C52   C54   A    
C33   C62   S    
C49   C51   A    
C22   C25   A    
C45   C67   A    
C50   C52   A    
C31   C33   A    
C58   H16   S    
C32   C38   A    
C19   C82   S    
C61   H19   S    
C60   H22   S    
C44   C47   A    
C79   H63   S    
C17   O9    A    
C12   O7    A    
C83   H75   S    
C76   H60   S    
C57   H7    S    
C63   H25   S    
C59   H14   S    
C65   H29   S    
C12   C20   S    
C46   H80   S    
C33   N4    A    
C77   H66   S    
Cu2   O10   S    
C31   H67   S    
C16   O8    A    
C40   O12   S    
C77   C79   S    
C40   C45   A    
C41   O2    S    
C46   C48   A    
C50   H12   S    
C81   H71   S    
C23   C84   A    
C59   H15   S    
C32   C35   A    
C61   H18   S    
C42   C84   A    
C47   C73   S    
C62   H27   S    
C42   O4    S    
C24   H56   S    
C71   H50   S    
Cu1   O7    S    
Cu1   O8    S    
C72   H49   S    
C20   C28   A    
C75   H61   S    
C58   C59   S    
C43   N2    A    
C74   H54   S    
C1    O1    A    
C70   H43   S    
Cu1   N3    S    
C4    C50   A    
C35   C60   S    
C67   C69   S    
C19   C78   A    
C75   C76   S    
C41   C56   A    
C5    C9    A    
C62   C63   S    
C77   H68   S    
C11   H3    S    
C72   H48   S    
C13   C15   A    
C2    C43   A    
C46   C54   A    
C70   H46   S    
C27   H6    S    
Cu1   O1    S    
C61   H20   S    
C64   H33   S    
C26   H23   S    
C6    C7    A    
C60   H21   S    
C12   O5    A    
C4    C17   S    
C76   H58   S    
C8    C10   A    
C83   H76   S    
C69   H40   S    
C7    C19   A    
C57   H8    S    
C79   H64   S    
C9    C34   A    
C75   H62   S    
C65   H30   S    
C66   H38   S    
C48   C71   S    
C68   H36   S    
C25   H34   S    
C52   C66   S    
C42   N1    A    
C79   H65   S    
C4    C48   A    
C7    C9    A    
C21   C25   A    
Cu1   O11   S    
C22   C30   A    
Cu2   N4    S    
C51   C64   S    
C54   N2    S    
C55   H10   S    
C80   H73   S    
C68   H35   S    
C76   H59   S    
C5    C8    A    
C5    C11   A    
C15   C84   A    
C10   C23   A    
C74   H53   S    
C36   N4    A    
C81   H69   S    
C66   H39   S    
C64   C65   S    
C63   H24   S    
C55   C57   S    
C18   C67   A    
C28   C30   A    
C37   C39   A    
C14   C75   S    
C6    C13   A    
C37   N3    A    
C43   O3    S    
C2    C34   A    
C72   H47   S    
C15   C77   S    
C20   C26   A    
C35   N3    A    
C32   H78   S    
C36   C38   A    
Cu2   O9    S    
C31   C39   A    
C28   H5    S    
Cu2   O6    S    
C21   C27   A    
C2    C14   A    
C8    C18   A    
C6    C10   A    
C37   C55   S    
C17   O11   A    
C71   C72   S    
C69   H41   S    
C18   C80   S    
C82   C83   S    
C57   H9    S    
C65   H31   S    
C60   C61   S    
C58   H17   S    
C51   C53   A    
C44   H2    S    
C3    C16   S    
C16   O10   A    
C82   H79   S    
