data_mof_unit_67579.cif
_audit_creation_date              2012-10-26T18:26:37-0400
_audit_creation_method            fapswitch 2.2
_symmetry_space_group_name_H-M    P1
_symmetry_Int_Tables_number       1
_space_group_crystal_system       triclinic
_cell_length_a                    15.903012
_cell_length_b                    8.920324
_cell_length_c                    7.737496
_cell_angle_alpha                 104.544515
_cell_angle_beta                  98.070776
_cell_angle_gamma                 101.868133
_cell_volume                      1018.1611403

loop_
_atom_site_label
_atom_site_type_symbol
_atom_type_description
_atom_site_fract_x
_atom_site_fract_y
_atom_site_fract_z
_atom_type_partial_charge
C1    C     C_R   0.497437 0.200032 0.452096 0.535945
C2    C     C_3   0.993300 0.650433 0.571016 -0.124502
C3    C     C_1   0.249482 0.500541 0.485220 -0.037170
C4    C     C_1   0.750486 0.499267 0.514734 -0.037111
C5    C     C_3   0.049729 0.560690 0.665934 0.026307
C6    C     C_3   0.950190 0.438844 0.333901 0.026353
C7    C     C_3   0.082338 0.501890 0.489507 0.038500
C8    C     C_3   0.917586 0.497658 0.510332 0.038532
C9    C     C_1   0.173813 0.501660 0.482755 -0.059137
C10   C     C_1   0.826129 0.498005 0.517140 -0.059134
C11   C     C_R   0.892436 0.375657 0.147038 0.040114
C12   C     C_R   0.502556 0.799966 0.547901 0.535964
C13   C     C_R   0.833283 0.460578 0.094169 -0.093511
C14   C     C_R   0.775436 0.398839 0.925743 -0.091987
C15   C     C_R   0.778378 0.255247 0.805107 -0.103125
C16   C     C_R   0.839583 0.173312 0.853683 -0.141927
C17   C     C_R   0.895944 0.232125 0.024877 -0.100821
C18   C     C_R   0.107490 0.623756 0.852771 0.040121
C19   C     C_R   0.104035 0.767299 0.975013 -0.100944
C20   C     C_R   0.160398 0.826001 0.146196 -0.142025
C21   C     C_R   0.221543 0.743941 0.194688 -0.102978
C22   C     C_R   0.224410 0.600313 0.073981 -0.091911
C23   C     C_R   0.339883 0.499784 0.495147 0.515936
C24   C     C_R   0.166569 0.538688 0.905559 -0.093537
C25   C     C_R   0.393354 0.325503 0.943176 0.199575
C26   C     C_R   0.341905 0.245291 0.046732 -0.089352
C27   C     C_R   0.256662 0.147582 0.981360 -0.165497
C28   C     C_R   0.219127 0.104663 0.799474 -0.115108
C29   C     C_R   0.268878 0.156027 0.684256 -0.171612
C30   C     C_R   0.353237 0.258379 0.753252 -0.060154
C31   C     C_R   0.606709 0.674339 0.056783 0.199561
C32   C     C_R   0.658189 0.754467 0.953215 -0.089152
C33   C     C_R   0.743580 0.851568 0.018400 -0.165290
C34   C     C_R   0.660109 0.500179 0.504845 0.516016
C35   C     C_R   0.781234 0.894027 0.200177 -0.115255
C36   C     C_R   0.731410 0.843047 0.315515 -0.171523
C37   C     C_R   0.646873 0.741366 0.246674 -0.060150
C38   C     C_2   0.492907 0.030016 0.426617 0.084285
C39   C     C_2   0.507086 0.969983 0.573370 0.084247
C40   C     C_3   0.973315 0.408701 0.607027 -0.114755
C41   C     C_3   0.026602 0.590840 0.392810 -0.114811
C42   C     C_3   0.006623 0.349108 0.428832 -0.124404
Cu1   Cu    Cu3+1 0.509330 0.517380 0.684380 0.907061
Cu2   Cu    Cu3+1 0.490670 0.482620 0.315620 0.907058
H1    H     H_    0.013437 0.225883 0.372295 0.084835
H2    H     H_    0.057872 0.833661 0.939138 0.089452
H3    H     H_    0.156552 0.935137 0.241308 0.085599
H4    H     H_    0.266047 0.790824 0.326092 0.125867
H5    H     H_    0.271343 0.536162 0.109630 0.164781
H6    H     H_    0.169187 0.426242 0.814836 0.120810
H7    H     H_    0.517477 0.969014 0.171403 0.240641
H8    H     H_    0.409688 0.939074 0.180301 0.227119
H9    H     H_    0.482511 0.031087 0.828526 0.240695
H10   H     H_    0.590278 0.060777 0.819665 0.227061
H11   H     H_    0.361676 0.248238 0.181940 0.179761
H12   H     H_    0.986499 0.773659 0.627583 0.084829
H13   H     H_    0.220390 0.103218 0.073695 0.108907
H14   H     H_    0.153646 0.026984 0.747328 0.115919
H15   H     H_    0.242109 0.116054 0.538906 0.087638
H16   H     H_    0.377259 0.272481 0.640624 0.177663
H17   H     H_    0.638330 0.751825 0.818141 0.179666
H18   H     H_    0.779872 0.895802 0.926011 0.108848
H19   H     H_    0.846852 0.971168 0.252177 0.115742
H20   H     H_    0.758253 0.882825 0.460828 0.087678
H21   H     H_    0.622744 0.727607 0.359325 0.177587
H22   H     H_    0.952619 0.335532 0.696967 0.124309
H23   H     H_    0.047279 0.664051 0.302911 0.124279
H24   H     H_    0.830594 0.572999 0.184845 0.120959
H25   H     H_    0.728444 0.462858 0.890009 0.164932
H26   H     H_    0.733875 0.208285 0.673693 0.125796
H27   H     H_    0.843470 0.064180 0.758633 0.085601
H28   H     H_    0.942160 0.165862 0.060806 0.089445
N1    N     N_2   0.476600 0.456420 0.038510 -0.136752
N2    N     N_2   0.523400 0.543580 0.961490 -0.136765
N3    N     N_3   0.470220 0.928374 0.241653 -0.600137
N4    N     N_3   0.529797 0.071629 0.758305 -0.600175
O1    O     O_R   0.506070 0.286130 0.619780 -0.487340
O2    O     O_R   0.493930 0.713870 0.380220 -0.487306
O3    O     O_R   0.490300 0.256770 0.308360 -0.537769
O4    O     O_R   0.509700 0.743230 0.691640 -0.537756
O5    O     O_R   0.386960 0.514660 0.655680 -0.506674
O6    O     O_R   0.613040 0.485340 0.344320 -0.506649
O7    O     O_R   0.371190 0.485310 0.344260 -0.543918
O8    O     O_R   0.628810 0.514690 0.655740 -0.543867

loop_
_geom_bond_atom_site_label_1
_geom_bond_atom_site_label_2
_ccdc_geom_bond_type
C1    O1    A    
N1    N2    D    
C3    C23   S    
C35   C36   A    
H8    N3    S    
C26   H11   S    
C19   H2    S    
C41   H23   S    
C26   C27   A    
C23   O7    A    
C18   C24   A    
C36   C37   A    
H7    N3    S    
C32   H17   S    
Cu2   O6    S    
C38   C39   D    
C2    C41   S    
C15   C16   A    
C12   O2    A    
C18   C19   A    
C7    C42   S    
C11   C17   A    
C29   H15   S    
C33   H18   S    
C6    C41   S    
C37   H21   S    
C21   H4    S    
Cu2   O7    S    
Cu1   N2    S    
C40   C42   S    
C40   H22   S    
C21   C22   A    
Cu1   O8    S    
C16   H27   S    
C34   O8    A    
C38   N3    S    
C24   H6    S    
C4    C34   S    
C27   H13   S    
C6    C11   S    
C5    C7    S    
C16   C17   A    
C31   N2    S    
C6    C8    S    
C5    C18   S    
C25   C26   A    
C31   C37   A    
C30   H16   S    
C42   H1    S    
Cu1   Cu2   S    
C29   C30   A    
C3    C9    T    
C31   C32   A    
C39   N4    S    
C1    C38   S    
C22   H5    S    
H10   N4    S    
C1    O3    A    
C14   H25   S    
C22   C24   A    
H9    N4    S    
C4    C10   T    
C36   H20   S    
C25   C30   A    
C7    C9    S    
C15   H26   S    
C28   C29   A    
C23   O5    A    
Cu2   O3    S    
C2    C8    S    
C28   H14   S    
Cu1   O1    S    
C8    C40   S    
C19   C20   A    
C32   C33   A    
C12   C39   S    
Cu2   O2    S    
Cu1   O4    S    
C2    H12   S    
C11   C13   A    
Cu1   O5    S    
C12   O4    A    
C33   C35   A    
C25   N1    S    
C7    C41   S    
Cu2   N1    S    
C20   H3    S    
C2    C5    S    
C20   C21   A    
C17   H28   S    
C8    C10   S    
C6    C42   S    
C5    C40   S    
C27   C28   A    
C14   C15   A    
C35   H19   S    
C34   O6    A    
C13   C14   A    
C13   H24   S    
