data_mof_unit_25217.cif
_audit_creation_date              2012-10-26T18:33:21-0400
_audit_creation_method            fapswitch 2.2
_symmetry_space_group_name_H-M    P1
_symmetry_Int_Tables_number       1
_space_group_crystal_system       triclinic
_cell_length_a                    15.082074
_cell_length_b                    13.767556
_cell_length_c                    10.773737
_cell_angle_alpha                 90.897653
_cell_angle_beta                  86.23537
_cell_angle_gamma                 88.869178
_cell_volume                      2231.50970395

loop_
_atom_site_label
_atom_site_type_symbol
_atom_type_description
_atom_site_fract_x
_atom_site_fract_y
_atom_site_fract_z
_atom_type_partial_charge
C1    C     C_R   0.328160 0.500525 0.502246 0.632409
C2    C     C_R   0.032784 0.635989 0.642814 -0.112613
C3    C     C_R   0.085193 0.566852 0.572296 0.010872
C4    C     C_R   0.501628 0.499068 0.259889 0.567500
C5    C     C_R   0.045328 0.503208 0.490170 0.009854
C6    C     C_R   0.097998 0.437611 0.413609 -0.007084
C7    C     C_R   0.056859 0.371843 0.336050 -0.106967
C8    C     C_R   0.964065 0.369229 0.337343 -0.126734
C9    C     C_R   0.176556 0.557812 0.586352 0.299609
C10   C     C_R   0.230610 0.500483 0.501054 0.021562
C11   C     C_R   0.190705 0.439171 0.416439 -0.153572
C12   C     C_3   0.585780 0.551640 0.922760 -0.287571
C13   C     C_R   0.454503 0.800854 0.591492 0.330323
C14   C     C_R   0.452389 0.204225 0.590563 0.368343
C15   C     C_R   0.552337 0.790006 0.409893 -0.009988
C16   C     C_R   0.553826 0.205912 0.411555 -0.009008
C17   C     C_R   0.558359 0.893585 0.408176 -0.024412
C18   C     C_R   0.558925 0.102261 0.408879 -0.025306
C19   C     C_R   0.671159 0.499147 0.496528 0.519543
C20   C     C_R   0.519234 0.948289 0.508814 0.021300
C21   C     C_R   0.518921 0.051888 0.508840 0.025274
C22   C     C_R   0.475710 0.899868 0.607531 -0.022258
C23   C     C_R   0.818441 0.431121 0.418533 -0.138936
C24   C     C_R   0.474135 0.104734 0.607019 -0.012569
C25   C     C_R   0.602316 0.944274 0.309997 -0.128819
C26   C     C_R   0.602834 0.047386 0.310534 -0.135682
C27   C     C_R   0.448766 0.054990 0.716139 -0.097097
C28   C     C_R   0.449990 0.953642 0.716579 -0.094907
C29   C     C_R   0.501630 0.500306 0.740400 0.571590
C30   C     C_3   0.418238 0.553438 0.082004 0.174963
C31   C     C_3   0.503715 0.390625 0.068865 0.187348
C32   C     C_3   0.418637 0.551898 0.938701 -0.185277
C33   C     C_3   0.505798 0.393520 0.925874 -0.194681
C34   C     C_R   0.767479 0.498452 0.493503 -0.004390
C35   C     C_3   0.585946 0.548724 0.066278 -0.336317
C36   C     C_3   0.501731 0.497133 0.122202 0.097247
C37   C     C_3   0.503058 0.499711 0.878830 -0.025999
C38   C     C_3   0.191496 0.548106 0.794343 -0.088720
C39   C     C_3   0.273098 0.582923 0.163100 -0.140094
C40   C     C_3   0.443780 0.238498 0.109867 -0.096876
C41   C     C_R   0.808384 0.568531 0.563854 -0.133255
C42   C     C_R   0.900383 0.570400 0.563296 0.012961
C43   C     C_R   0.952372 0.502954 0.488310 0.066956
C44   C     C_R   0.911357 0.434017 0.413894 0.018238
C45   C     C_R   0.941044 0.637999 0.637815 -0.151161
Cu1   Cu    Cu3+1 0.499990 0.597420 0.500010 1.022436
Cu2   Cu    Cu3+1 0.499990 0.402580 0.500010 1.044722
H1    H     H_    0.424365 0.630669 0.114217 0.095435
H2    H     H_    0.635685 0.084040 0.232646 0.095169
H3    H     H_    0.426391 0.094184 0.800679 0.146299
H4    H     H_    0.428691 0.917601 0.801639 0.157870
H5    H     H_    0.358756 0.515436 0.907519 0.163249
H6    H     H_    0.448540 0.353558 0.893190 0.185278
H7    H     H_    0.417035 0.628439 0.908973 0.145970
H8    H     H_    0.567068 0.355016 0.886104 0.084450
H9    H     H_    0.588420 0.624320 0.103887 0.123784
H10   H     H_    0.646975 0.509763 0.093114 0.106813
H11   H     H_    0.585572 0.628509 0.892289 0.139551
H12   H     H_    0.566654 0.355019 0.096224 0.072337
H13   H     H_    0.647456 0.515732 0.880196 0.125370
H14   H     H_    0.785794 0.378141 0.362660 0.105553
H15   H     H_    0.768258 0.620243 0.621460 0.118322
H16   H     H_    0.901782 0.690855 0.694508 0.114342
H17   H     H_    0.222217 0.474381 0.786016 0.145538
H18   H     H_    0.118729 0.542406 0.815876 0.093837
H19   H     H_    0.218354 0.586076 0.874645 0.150007
H20   H     H_    0.288113 0.805223 0.477989 0.327119
H21   H     H_    0.309228 0.330450 0.809489 0.338203
H22   H     H_    0.263575 0.631445 0.083211 0.107283
H23   H     H_    0.062551 0.687945 0.703250 0.178732
H24   H     H_    0.289554 0.626317 0.246101 0.146027
H25   H     H_    0.209146 0.546754 0.185654 0.143609
H26   H     H_    0.499812 0.216603 0.165772 0.099499
H27   H     H_    0.456690 0.212341 0.012123 0.088447
H28   H     H_    0.383605 0.201926 0.149060 0.166735
H29   H     H_    0.231902 0.392073 0.353859 0.180666
H30   H     H_    0.096366 0.321240 0.276298 0.133113
H31   H     H_    0.933549 0.316535 0.278731 0.111072
H32   H     H_    0.587210 0.746858 0.336640 0.123736
H33   H     H_    0.590322 0.246152 0.340197 0.110519
H34   H     H_    0.634757 0.904428 0.231693 0.102457
N1    N     N_R   0.499930 0.743810 0.499950 -0.252328
N2    N     N_R   0.499930 0.256190 0.499950 -0.246139
O1    O     O_R   0.370250 0.582280 0.500040 -0.407155
O2    O     O_2   0.354998 0.680619 0.727257 -0.248526
O3    O     O_2   0.297980 0.846392 0.726849 -0.289004
O4    O     O_3   0.285582 0.745259 0.527603 -0.473552
O5    O     O_2   0.288857 0.256768 0.532561 -0.250246
O6    O     O_2   0.295049 0.166125 0.721321 -0.310343
O7    O     O_3   0.340456 0.345646 0.728564 -0.547380
O8    O     O_3   0.339496 0.510967 0.134222 -0.526136
O9    O     O_3   0.427926 0.339978 0.116619 -0.496256
O10   O     O_R   0.370250 0.417720 0.500040 -0.410364
O11   O     O_R   0.499970 0.582270 0.317700 -0.548296
O12   O     O_R   0.499970 0.417730 0.317700 -0.485539
O13   O     O_R   0.629730 0.582260 0.499980 -0.523837
O14   O     O_R   0.629730 0.417740 0.499980 -0.526923
O15   O     O_R   0.500000 0.582270 0.682320 -0.473856
O16   O     O_R   0.500000 0.417730 0.682320 -0.478481
O17   O     O_3   0.212243 0.602219 0.686349 -0.470001
S1    S     S_3+6 0.346843 0.768297 0.649196 0.056267
S2    S     S_3+6 0.341889 0.242103 0.644247 0.028952

loop_
_geom_bond_atom_site_label_1
_geom_bond_atom_site_label_2
_ccdc_geom_bond_type
C33   H8    S    
C8    H31   S    
C4    C36   S    
O6    S2    D    
C18   C21   A    
C41   C42   A    
C35   C36   S    
C18   C26   A    
C24   C27   A    
C19   O14   A    
C7    C8    A    
C1    O1    A    
C29   O15   A    
C41   H15   S    
C30   H1    S    
C11   H29   S    
C5    C6    A    
C28   H4    S    
C14   S2    S    
C14   C24   A    
C17   C20   A    
Cu2   O16   S    
C40   H26   S    
C31   H12   S    
C12   C37   S    
C32   H5    S    
O4    S1    S    
O7    S2    S    
C38   H19   S    
H21   O7    S    
C39   H25   S    
C31   C33   S    
Cu2   N2    S    
C9    C10   A    
C27   H3    S    
C7    H30   S    
C12   H11   S    
Cu1   O15   S    
C22   C28   A    
C25   H34   S    
C34   C41   A    
C14   N2    A    
C32   H7    S    
C15   N1    A    
C38   H17   S    
C2    C45   A    
C33   H6    S    
C15   H32   S    
C29   O16   A    
Cu1   N1    S    
C38   O17   S    
C26   H2    S    
C6    C11   A    
C25   C26   A    
C13   N1    A    
C45   H16   S    
C16   N2    A    
C33   C37   S    
C23   C44   A    
C16   H33   S    
C42   C45   A    
C43   C44   A    
C3    C9    A    
C4    O12   A    
Cu1   O11   S    
C38   H18   S    
C23   C34   A    
C39   H22   S    
C32   C37   S    
C40   O9    S    
C12   C35   S    
C4    O11   A    
C16   C18   A    
C20   C22   A    
C9    O17   S    
Cu1   O1    S    
C42   C43   A    
C13   S1    S    
O2    S1    D    
C15   C17   A    
Cu1   Cu2   S    
Cu2   O12   S    
Cu2   O10   S    
C35   H9    S    
C39   O8    S    
C1    C10   S    
C8    C44   A    
C30   O8    S    
C3    C5    A    
C19   C34   S    
O5    S2    D    
C6    C7    A    
H20   O4    S    
Cu2   O14   S    
C40   H28   S    
C30   C36   S    
C35   H10   S    
C17   C25   A    
C2    C3    A    
C30   C32   S    
C40   H27   S    
C13   C22   A    
C5    C43   A    
C10   C11   A    
C12   H13   S    
C23   H14   S    
Cu1   O13   S    
C20   C21   A    
C1    O10   A    
C31   O9    S    
C21   C24   A    
C29   C37   S    
C27   C28   A    
C39   H24   S    
C31   C36   S    
C2    H23   S    
O3    S1    D    
C19   O13   A    
