data_mof_unit_10026.cif
_audit_creation_date              2012-12-10T18:31:49-0500
_audit_creation_method            fapswitch 2.2
_symmetry_space_group_name_H-M    P1
_symmetry_Int_Tables_number       1
_space_group_crystal_system       triclinic
_cell_length_a                    10.649796
_cell_length_b                    14.991366
_cell_length_c                    15.424825
_cell_angle_alpha                 82.199107
_cell_angle_beta                  90.21045
_cell_angle_gamma                 104.122603
_cell_volume                      2365.00610897

loop_
_atom_site_label
_atom_site_type_symbol
_atom_type_description
_atom_site_fract_x
_atom_site_fract_y
_atom_site_fract_z
_atom_type_partial_charge
C1    C     C_R   0.484673 0.441941 0.662227 0.864950
C2    C     C_3   0.120589 0.498827 0.501009 -0.024035
C3    C     C_3   0.078920 0.519710 0.404476 0.194154
C4    C     C_3   0.098773 0.576642 0.552976 -0.493193
C5    C     C_R   0.494796 0.407317 0.754525 -0.052305
C6    C     C_R   0.559445 0.591716 0.245755 -0.059561
C7    C     C_R   0.480749 0.282553 0.873908 -0.183632
C8    C     C_R   0.465523 0.312261 0.785805 -0.241384
C9    C     C_R   0.542785 0.471861 0.810966 -0.241713
C10   C     C_R   0.561898 0.444020 0.898973 0.046287
C11   C     C_R   0.525827 0.347722 0.931681 0.172721
C12   C     C_R   0.741296 0.499303 0.503220 0.954351
C13   C     C_R   0.605431 0.510613 0.956253 0.069895
C14   C     C_R   0.588287 0.481512 0.047048 0.043404
C15   C     C_R   0.560903 0.385473 0.078547 -0.298455
C16   C     C_R   0.532162 0.318969 0.021589 0.068876
C17   C     C_R   0.662089 0.605571 0.926068 -0.220346
C18   C     C_R   0.685351 0.671340 0.983522 -0.241359
C19   C     C_R   0.648153 0.644830 0.071569 0.176959
C20   C     C_R   0.597438 0.549652 0.103332 0.105074
C21   C     C_R   0.658429 0.712041 0.128152 -0.217098
C22   C     C_R   0.615502 0.685415 0.215414 -0.198544
C23   C     C_R   0.523870 0.558010 0.337887 0.857658
C24   C     C_R   0.548280 0.525566 0.189036 -0.269678
C25   C     C_R   0.718516 0.848290 0.618920 -0.323632
C26   C     C_R   0.674392 0.756348 0.605826 0.010076
C27   C     C_R   0.510924 0.793040 0.512395 -0.067442
C28   C     C_R   0.551310 0.887645 0.522483 -0.003815
C29   C     C_R   0.658321 0.914510 0.576513 0.186576
C30   C     C_R   0.491189 0.956111 0.480266 0.084635
C31   C     C_R   0.533062 0.049178 0.498720 0.081936
C32   C     C_R   0.648184 0.074077 0.544704 -0.254628
C33   C     C_R   0.707740 0.007631 0.584753 -0.217966
C34   C     C_R   0.257791 0.499237 0.500788 0.903168
C35   C     C_R   0.394495 0.935769 0.417946 -0.244465
C36   C     C_R   0.341535 0.004714 0.374907 -0.203077
C37   C     C_R   0.375197 0.094201 0.397359 0.160667
C38   C     C_R   0.464360 0.115914 0.464501 -0.040224
C39   C     C_R   0.319184 0.162100 0.353762 -0.329939
C40   C     C_R   0.349747 0.250279 0.378085 -0.026360
C41   C     C_R   0.477857 0.203577 0.494129 0.189824
C42   C     C_3   0.895069 0.403341 0.546266 -0.497189
C43   C     C_3   0.039076 0.402761 0.546343 0.363644
C44   C     C_3   0.931437 0.520347 0.404510 0.128216
C45   C     C_3   0.954643 0.575211 0.557480 -0.104832
C46   C     C_3   0.878074 0.499857 0.502748 0.038867
H1    H     H_    0.840716 0.345754 0.512303 0.136861
H2    H     H_    0.152556 0.646205 0.519922 0.160559
H3    H     H_    0.136126 0.591343 0.378697 0.058184
H4    H     H_    0.496845 0.454981 0.212013 0.156012
H5    H     H_    0.626489 0.737633 0.258855 0.162205
H6    H     H_    0.727468 0.743556 0.958266 0.144053
H7    H     H_    0.454382 0.208688 0.896801 0.163556
H8    H     H_    0.429469 0.261079 0.742646 0.166919
H9    H     H_    0.559940 0.544575 0.785885 0.161769
H10   H     H_    0.852302 0.386113 0.613926 0.199684
H11   H     H_    0.563681 0.360195 0.147367 0.155251
H12   H     H_    0.691790 0.630485 0.858477 0.141915
H13   H     H_    0.699145 0.784918 0.104853 0.137738
H14   H     H_    0.794248 0.029496 0.621257 0.151927
H15   H     H_    0.309930 0.304123 0.343412 0.138994
H16   H     H_    0.271558 0.987317 0.324824 0.140767
H17   H     H_    0.800619 0.867802 0.660092 0.141411
H18   H     H_    0.722538 0.704700 0.635771 0.135202
H19   H     H_    0.431845 0.765898 0.472185 0.122478
H20   H     H_    0.697417 0.145310 0.547377 0.138297
H21   H     H_    0.361639 0.868117 0.397790 0.131984
H22   H     H_    0.253573 0.147396 0.300760 0.148226
H23   H     H_    0.050225 0.347995 0.506531 0.111686
H24   H     H_    0.943909 0.644995 0.528636 0.172550
H25   H     H_    0.138339 0.568531 0.619718 0.233429
N1    N     N_R   0.573860 0.731700 0.552730 -0.098450
N2    N     N_R   0.426060 0.268290 0.447230 -0.097866
O1    O     O_R   0.462770 0.383110 0.605620 -0.611481
O2    O     O_R   0.510160 0.531900 0.639510 -0.618223
O3    O     O_R   0.661510 0.425600 0.483070 -0.618743
O4    O     O_R   0.708900 0.574390 0.516960 -0.615753
O5    O     O_R   0.489840 0.468100 0.360490 -0.627239
O6    O     O_R   0.537230 0.616890 0.394380 -0.616472
O7    O     O_R   0.291100 0.425610 0.483040 -0.619995
O8    O     O_R   0.338490 0.574400 0.516930 -0.639351
Zn1   Zn    Zn3+2 0.468350 0.400660 0.477370 0.940867
Zn2   Zn    Zn3+2 0.531650 0.599340 0.522630 0.940086
N3    N     N_3   0.915042 0.612026 0.364304 -0.461671
H26   H     H_    0.934448 0.621161 0.296890 0.176784
H27   H     H_    0.981557 0.666162 0.387898 0.149075
N4    N     N_3   0.503426 0.222204 0.056054 -0.480793
H28   H     H_    0.583669 0.209482 0.090217 0.191673
H29   H     H_    0.425342 0.208204 0.100902 0.186236
N5    N     N_3   0.524670 0.221999 0.578765 -0.434223
H30   H     H_    0.509684 0.161263 0.623589 0.166779
H31   H     H_    0.621621 0.258859 0.573666 0.183068
O9    O     O_3   0.077661 0.386959 0.634480 -0.660846
C47   C     C_3   0.118412 0.303504 0.653220 0.089055
H32   H     H_    0.182142 0.310462 0.710358 0.170451
H33   H     H_    0.178313 0.291176 0.599177 0.158403
C48   C     C_3   0.002270 0.220491 0.677616 -0.381433
H34   H     H_    0.944930 0.234280 0.732139 0.237447
H35   H     H_    0.938926 0.210438 0.620545 0.204239
C49   C     C_3   0.046663 0.131820 0.706051 -0.964052
H36   H     H_    0.098873 0.114389 0.650953 0.267390
H37   H     H_    0.961332 0.073390 0.726537 0.257921
H38   H     H_    0.111708 0.140605 0.762385 0.266092
N6    N     N_3   0.855285 0.449815 0.353672 -0.408811
H39   H     H_    0.873783 0.384712 0.371918 0.215862
H40   H     H_    0.880504 0.468209 0.287091 0.196847
O10   O     O_3   0.102821 0.452005 0.354181 -0.667180
C50   C     C_3   0.197639 0.490637 0.286291 0.135366
H41   H     H_    0.244344 0.435171 0.272985 0.159784
H42   H     H_    0.276220 0.547818 0.305037 0.103968
C51   C     C_3   0.135884 0.523626 0.202096 -0.402977
H43   H     H_    0.058272 0.465485 0.183883 0.230144
H44   H     H_    0.092403 0.581519 0.212767 0.208219
C52   C     C_3   0.236060 0.557385 0.126760 -0.924517
H45   H     H_    0.314059 0.616334 0.143011 0.270188
H46   H     H_    0.188663 0.581278 0.066828 0.266486
H47   H     H_    0.279274 0.500154 0.113146 0.266487
N7    N     N_3   0.904432 0.559598 0.648531 -0.459624
H48   H     H_    0.941459 0.619971 0.676684 0.177087
H49   H     H_    0.937505 0.506709 0.685663 0.234969

loop_
_geom_bond_atom_site_label_1
_geom_bond_atom_site_label_2
_ccdc_geom_bond_type
C45   N7    S    
N4    H28   S    
O9    C47   S    
C26   N1    A    
C39   H22   S    
C35   C36   A    
N6    H40   S    
C52   H45   S    
C44   N6    S    
C18   H6    S    
C7    C8    A    
C45   C46   S    
C50   H41   S    
C7    C11   A    
C30   C35   A    
C1    C5    S    
C1    O1    A    
C36   C37   A    
C19   C21   A    
N3    H27   S    
C21   H13   S    
C42   C46   S    
C30   C31   A    
O4    Zn2   S    
C15   C16   A    
C6    C22   A    
C29   C33   A    
C40   N2    A    
C25   C29   A    
C18   C19   A    
C25   H17   S    
C26   H18   S    
N7    H48   S    
C42   H10   S    
C51   H43   S    
C16   N4    S    
O10   C50   S    
C9    H9    S    
C34   O8    A    
C9    C10   A    
C17   H12   S    
C34   O7    A    
C2    C34   S    
C41   N5    S    
C43   H23   S    
C21   C22   A    
C24   H4    S    
C15   H11   S    
O1    Zn1   S    
C36   H16   S    
N6    H39   S    
O8    Zn2   S    
C44   C46   S    
C48   H34   S    
C4    C45   S    
C3    H3    S    
C52   H47   S    
C3    C44   S    
C1    O2    A    
C14   C20   A    
N3    H26   S    
C38   C41   A    
O7    Zn1   S    
C48   H35   S    
C8    H8    S    
C39   C40   A    
C47   C48   S    
C3    O10   S    
C25   C26   A    
C49   H38   S    
C40   H15   S    
C2    C4    S    
C5    C9    A    
C37   C38   A    
C27   H19   S    
C11   C16   A    
O5    Zn1   S    
N5    H31   S    
C31   C32   A    
C35   H21   S    
C2    C43   S    
C6    C24   A    
C12   O4    A    
C49   H37   S    
C17   C18   A    
C51   H44   S    
C47   H33   S    
C12   C46   S    
C33   H14   S    
C12   O3    A    
C42   C43   S    
C7    H7    S    
O3    Zn1   S    
N2    Zn1   S    
C48   C49   S    
C32   H20   S    
C4    H2    S    
C28   C29   A    
C45   H24   S    
C44   N3    S    
C10   C13   A    
C5    C8    A    
C52   H46   S    
C50   C51   S    
C31   C38   A    
C13   C17   A    
C32   C33   A    
C19   C20   A    
C28   C30   A    
C2    C3    S    
C37   C39   A    
O6    Zn2   S    
O2    Zn2   S    
N5    H30   S    
C6    C23   S    
C49   H36   S    
C43   O9    S    
C50   H42   S    
C51   C52   S    
C42   H1    S    
C23   O5    A    
C47   H32   S    
N7    H49   S    
N1    Zn2   S    
C10   C11   A    
C41   N2    A    
C27   C28   A    
N4    H29   S    
C14   C15   A    
C23   O6    A    
C13   C14   A    
C20   C24   A    
C4    H25   S    
C27   N1    A    
C22   H5    S    
