data_mof_unit_59085.cif
_audit_creation_date              2012-12-10T17:33:40-0500
_audit_creation_method            fapswitch 2.2
_symmetry_space_group_name_H-M    P1
_symmetry_Int_Tables_number       1
_space_group_crystal_system       triclinic
_cell_length_a                    11.69015
_cell_length_b                    12.374581
_cell_length_c                    13.099192
_cell_angle_alpha                 116.475467
_cell_angle_beta                  77.10881
_cell_angle_gamma                 101.527299
_cell_volume                      1642.47918096

loop_
_atom_site_label
_atom_site_type_symbol
_atom_type_description
_atom_site_fract_x
_atom_site_fract_y
_atom_site_fract_z
_atom_type_partial_charge
C1    C     C_R   0.509373 0.854544 0.285561 0.863228
C2    C     C_R   0.458536 0.226149 0.836843 -0.064738
C3    C     C_R   0.580110 0.808596 0.075111 0.312028
C4    C     C_R   0.624564 0.721554 0.966477 0.316345
C5    C     C_R   0.609645 0.599511 0.948211 0.270133
C6    C     C_R   0.518089 0.558207 0.018733 -0.103551
C7    C     C_R   0.471040 0.644913 0.126754 -0.061023
C8    C     C_R   0.474453 0.433576 0.985763 0.109976
C9    C     C_R   0.399273 0.393640 0.066805 0.093998
C10   C     C_R   0.356596 0.480982 0.176466 -0.051106
C11   C     C_R   0.383933 0.604270 0.199804 -0.169249
C12   C     C_R   0.715813 0.000025 0.499861 0.834402
C13   C     C_R   0.496372 0.349351 0.870738 -0.213152
C14   C     C_R   0.391910 0.185192 0.918209 -0.229443
C15   C     C_R   0.515632 0.769935 0.160672 -0.263886
C16   C     C_R   0.692141 0.351775 0.329392 -0.147101
C17   C     C_R   0.342403 0.759773 0.647320 0.084937
C18   C     C_R   0.305374 0.662332 0.677719 -0.252548
C19   C     C_R   0.362256 0.557412 0.619645 -0.201042
C20   C     C_R   0.457684 0.548802 0.530074 0.013579
C21   C     C_R   0.492287 0.651742 0.502478 0.278118
C22   C     C_R   0.522148 0.444107 0.469120 -0.023719
C23   C     C_R   0.480856 0.144683 0.713934 0.791962
C24   C     C_R   0.620158 0.446736 0.383470 0.110371
C25   C     C_R   0.650070 0.548214 0.358030 -0.227926
C26   C     C_R   0.588029 0.647254 0.415828 -0.211685
C27   C     C_R   0.495058 0.337581 0.490427 0.012386
C28   C     C_R   0.668328 0.256581 0.364597 0.080803
C29   C     C_R   0.284134 0.000010 0.500284 0.800423
C30   C     C_1   0.837543 0.000147 0.499945 -0.168943
C31   C     C_1   0.940003 0.999955 0.500091 -0.001761
C32   C     C_1   0.059758 0.999718 0.500246 0.003776
C33   C     C_1   0.162293 0.999702 0.500313 -0.168434
C34   C     C_R   0.360737 0.268264 0.031742 -0.166324
Cu1   Cu    Cu3+1 0.526510 0.098270 0.475420 0.986962
Cu2   Cu    Cu3+1 0.473490 0.901730 0.524580 0.920688
H1    H     H_    0.359251 0.089945 0.892990 0.152519
H2    H     H_    0.725646 0.555299 0.295498 0.181640
H3    H     H_    0.418957 0.326946 0.550415 0.127938
H4    H     H_    0.297258 0.840439 0.692657 0.124361
H5    H     H_    0.330624 0.485201 0.647244 0.136255
H6    H     H_    0.232282 0.668194 0.746617 0.146058
H7    H     H_    0.621409 0.720364 0.391618 0.212160
H8    H     H_    0.302007 0.233458 0.089304 0.182552
H9    H     H_    0.536678 0.379758 0.804277 0.204104
H10   H     H_    0.337058 0.668320 0.277380 0.190587
N1    N     N_R   0.566700 0.246290 0.438210 -0.218761
N2    N     N_R   0.434010 0.754320 0.561170 -0.205949
O1    O     O_R   0.533340 0.972510 0.318140 -0.508286
O2    O     O_R   0.488570 0.806530 0.359650 -0.614399
O3    O     O_R   0.685190 0.083000 0.479260 -0.553534
O4    O     O_R   0.640410 0.917020 0.520770 -0.608546
O5    O     O_R   0.511430 0.193470 0.640350 -0.588572
O6    O     O_R   0.466660 0.027490 0.681860 -0.596183
O7    O     O_R   0.359590 0.082980 0.479230 -0.583109
O8    O     O_R   0.314810 0.917000 0.520740 -0.577455
C35   C     C_2   0.793027 0.352230 0.236662 0.787357
O9    O     O_2   0.893944 0.352041 0.248127 -0.544718
O10   O     O_R   0.771603 0.354863 0.136975 -0.791396
H11   H     H_    0.846300 0.354231 0.079913 0.327501
C36   C     C_2   0.282376 0.448052 0.268663 0.847452
O11   O     O_2   0.197916 0.503162 0.327722 -0.562939
O12   O     O_R   0.312683 0.358573 0.292164 -0.776127
H12   H     H_    0.257300 0.346728 0.358867 0.340829
O13   O     O_3   0.621028 0.930091 0.106124 -0.530506
C37   C     C_3   0.579224 0.979197 0.044293 0.131585
H13   H     H_    0.516217 0.044400 0.105767 0.153390
H14   H     H_    0.531186 0.911163 0.972962 0.093020
C38   C     C_3   0.684389 0.048349 0.996879 -0.280400
H15   H     H_    0.730169 0.116985 0.068983 0.250265
H16   H     H_    0.748783 0.985074 0.935856 0.246440
C39   C     C_3   0.646441 0.111965 0.935778 -0.908440
H17   H     H_    0.596969 0.045453 0.865342 0.252779
H18   H     H_    0.725622 0.155869 0.897872 0.257521
H19   H     H_    0.590529 0.183448 0.998818 0.295913
O14   O     O_3   0.690056 0.524664 0.864649 -0.616410
C40   C     C_3   0.768417 0.499302 0.917455 0.086118
H20   H     H_    0.799473 0.410027 0.856478 0.165991
H21   H     H_    0.725793 0.489747 0.998640 0.158378
C41   C     C_3   0.875742 0.596268 0.939862 -0.325167
H22   H     H_    0.919251 0.601983 0.857526 0.235531
H23   H     H_    0.846669 0.686232 0.001526 0.236843
C42   C     C_3   0.964790 0.566627 0.990227 -0.924009
H24   H     H_    0.924005 0.564703 0.074637 0.269269
H25   H     H_    0.042134 0.637431 0.003795 0.260199
H26   H     H_    0.995886 0.477117 0.930211 0.256232
O15   O     O_3   0.702571 0.759096 0.888756 -0.568156
C43   C     C_3   0.656406 0.712056 0.783781 0.090445
H27   H     H_    0.569616 0.744919 0.798585 0.079167
H28   H     H_    0.643412 0.610976 0.743072 0.179737
C44   C     C_3   0.740855 0.754549 0.697944 -0.360990
H29   H     H_    0.700193 0.722873 0.619021 0.186419
H30   H     H_    0.755144 0.855375 0.735493 0.216539
C45   C     C_3   0.859558 0.704367 0.663883 -0.699222
H31   H     H_    0.846704 0.603402 0.624381 0.257014
H32   H     H_    0.904370 0.737562 0.740588 0.262207
H33   H     H_    0.917139 0.735273 0.599887 0.233143
C46   C     C_2   0.762258 0.178312 0.331748 0.924232
O16   O     O_2   0.756159 0.076357 0.254194 -0.558454
O17   O     O_R   0.861036 0.224129 0.388656 -0.728482
H34   H     H_    0.920875 0.163614 0.358340 0.332039

loop_
_geom_bond_atom_site_label_1
_geom_bond_atom_site_label_2
_ccdc_geom_bond_type
C16   C28   A    
C37   H14   S    
C21   C26   A    
C28   N1    A    
C8    C13   A    
Cu1   O5    S    
C19   C20   A    
C17   N2    A    
O15   C43   S    
Cu1   N1    S    
Cu2   O2    S    
C4    O15   S    
C40   H20   S    
C7    C11   A    
C38   H15   S    
C41   C42   S    
C30   C31   T    
C35   O10   S    
C37   C38   S    
C28   C46   S    
C29   C33   S    
C38   H16   S    
C18   C19   A    
C36   O12   S    
C2    C13   A    
C42   H24   S    
C27   H3    S    
C8    C9    A    
Cu1   O1    S    
C1    C15   S    
C1    O2    A    
C36   O11   D    
Cu2   O4    S    
C21   N2    A    
C43   H27   S    
C7    C15   A    
C37   H13   S    
O10   H11   S    
C16   C24   A    
C3    O13   S    
C39   H19   S    
C12   O4    A    
C26   H7    S    
C23   O5    A    
C40   H21   S    
Cu1   O7    S    
C34   H8    S    
O14   C40   S    
C39   H18   S    
C44   H29   S    
C39   H17   S    
C6    C8    A    
C29   O7    A    
C45   H33   S    
C25   C26   A    
C17   H4    S    
C38   C39   S    
Cu2   O8    S    
C25   H2    S    
C44   H30   S    
C31   C32   S    
C43   C44   S    
C17   C18   A    
C24   C25   A    
C45   H32   S    
C41   H23   S    
C42   H25   S    
C43   H28   S    
C46   O16   D    
C46   O17   S    
C22   C27   A    
Cu1   O3    S    
C9    C34   A    
C22   C24   A    
C10   C36   S    
C3    C4    A    
C12   O3    A    
C3    C15   A    
C23   O6    A    
C9    C10   A    
C40   C41   S    
C27   N1    A    
C12   C30   S    
C20   C22   A    
C41   H22   S    
C14   C34   A    
C6    C7    A    
C29   O8    A    
C32   C33   T    
C5    O14   S    
C18   H6    S    
C14   H1    S    
C13   H9    S    
C35   O9    D    
C5    C6    A    
O17   H34   S    
Cu2   N2    S    
C16   C35   S    
C45   H31   S    
C2    C14   A    
Cu2   O6    S    
C10   C11   A    
O12   H12   S    
C4    C5    A    
C42   H26   S    
C20   C21   A    
O13   C37   S    
C2    C23   S    
C11   H10   S    
Cu1   Cu2   S    
C1    O1    A    
C19   H5    S    
C44   C45   S    
