data_mof_unit_42372.cif
_audit_creation_date              2012-12-11T14:06:36-0500
_audit_creation_method            fapswitch 2.2
_symmetry_space_group_name_H-M    P1
_symmetry_Int_Tables_number       1
_space_group_crystal_system       triclinic
_cell_length_a                    6.933974
_cell_length_b                    17.27496
_cell_length_c                    24.116723
_cell_angle_alpha                 104.964864
_cell_angle_beta                  90.402589
_cell_angle_gamma                 89.829422
_cell_volume                      2790.75409973

loop_
_atom_site_label
_atom_site_type_symbol
_atom_type_description
_atom_site_fract_x
_atom_site_fract_y
_atom_site_fract_z
_atom_type_partial_charge
O1    O     O_R   0.494290 0.391990 0.999150 -0.532685
O2    O     O_R   0.827170 0.534410 0.082350 -0.533349
O3    O     O_R   0.994360 0.608010 0.000850 -0.535932
C1    C     C_R   0.659169 0.553488 0.105502 0.710179
O4    O     O_R   0.824210 0.388010 0.004470 -0.547370
O5    O     O_R   0.991370 0.460560 0.922410 -0.533790
C2    C     C_R   0.654639 0.354877 0.001492 0.769552
O6    O     O_R   0.497270 0.539440 0.077590 -0.537468
O7    O     O_3   0.659770 0.523970 0.973170 -0.370249
V1    V     V_3+5 0.935840 0.495550 0.004980 1.435472
O8    O     O_R   0.320910 0.465590 0.917650 -0.536631
C3    C     C_R   0.151315 0.449814 0.893743 0.723847
O9    O     O_R   0.323870 0.611990 0.995530 -0.554863
C4    C     C_R   0.154321 0.645126 0.998624 0.756246
V2    V     V_3+5 0.435470 0.504450 0.995020 1.417899
O10   O     O_3   0.161670 0.476030 0.026830 -0.364123
C5    C     C_2   0.142701 0.730147 0.997885 -0.354847
H1    H     H_    0.276129 0.760069 0.992413 0.144171
C6    C     C_2   0.973661 0.770442 0.003569 -0.344969
H2    H     H_    0.840451 0.740516 0.009185 0.151603
C7    C     C_R   0.055453 0.223318 0.627236 0.571364
N1    N     N_R   0.061190 0.304624 0.650782 -0.556998
C8    C     C_R   0.027056 0.356969 0.617699 0.616940
C9    C     C_R   0.992273 0.328387 0.558384 -0.068249
C10   C     C_R   0.992730 0.245442 0.533141 -0.022856
C11   C     C_R   0.020149 0.192048 0.567900 -0.021589
C12   C     C_R   0.947428 0.380801 0.524496 -0.163495
C13   C     C_R   0.911486 0.352183 0.465361 0.081967
C14   C     C_R   0.939832 0.269473 0.438271 -0.055036
C15   C     C_R   0.965262 0.215902 0.473085 -0.030618
C16   C     C_R   0.959597 0.132743 0.448072 -0.026797
C17   C     C_R   0.977659 0.079844 0.483484 -0.173812
C18   C     C_R   0.010264 0.109105 0.542552 -0.138530
C19   C     C_R   0.949358 0.238074 0.377961 0.530481
N2    N     N_R   0.949486 0.156638 0.353731 -0.545563
C20   C     C_R   0.937689 0.104601 0.388064 0.561010
O11   O     O_2   0.084747 0.172972 0.660912 -0.519572
O12   O     O_2   0.026045 0.436590 0.642224 -0.503085
H3    H     H_    0.929792 0.444237 0.544501 0.172020
O13   O     O_2   0.969559 0.288370 0.343969 -0.532236
O14   O     O_2   0.904527 0.026121 0.364532 -0.541442
H4    H     H_    0.972350 0.015587 0.465420 0.166670
H5    H     H_    0.027955 0.066521 0.568228 0.170245
C21   C     C_R   0.113043 0.076668 0.263004 0.109824
C22   C     C_R   0.116442 0.054029 0.202185 -0.223460
H6    H     H_    0.229425 0.014820 0.179984 0.122714
C23   C     C_R   0.970307 0.078212 0.169588 -0.071458
C24   C     C_R   0.823061 0.128064 0.198102 -0.190820
H7    H     H_    0.710150 0.148583 0.174026 0.136171
C25   C     C_R   0.820650 0.153347 0.257774 -0.123281
H8    H     H_    0.708552 0.194494 0.277999 0.134955
C26   C     C_R   0.960016 0.126981 0.291487 0.357502
C27   C     C_R   0.270076 0.376709 0.732766 0.400747
C28   C     C_R   0.287710 0.417606 0.791304 0.321708
C29   C     C_R   0.136299 0.414236 0.830257 -0.240022
C30   C     C_R   0.966738 0.372370 0.808209 -0.214455
H9    H     H_    0.847928 0.368262 0.836225 0.175168
C31   C     C_R   0.946423 0.334857 0.749910 -0.090793
H10   H     H_    0.812023 0.305133 0.734184 0.172925
C32   C     C_R   0.095772 0.336510 0.711622 0.196024
C33   C     C_R   0.691054 0.853813 0.622282 0.598655
N3    N     N_R   0.530130 0.834678 0.648944 -0.558781
C34   C     C_R   0.387355 0.787622 0.617749 0.588197
C35   C     C_R   0.404033 0.757186 0.557859 -0.038763
C36   C     C_R   0.568221 0.776252 0.529963 -0.019607
C37   C     C_R   0.713033 0.825172 0.562247 -0.027514
C38   C     C_R   0.260675 0.708082 0.525298 -0.149966
C39   C     C_R   0.279918 0.678556 0.465973 -0.153664
C40   C     C_R   0.442419 0.697287 0.437528 -0.036589
C41   C     C_R   0.587467 0.746236 0.469647 -0.025678
C42   C     C_R   0.751615 0.765061 0.441610 -0.040496
C43   C     C_R   0.895150 0.814197 0.474260 -0.154350
C44   C     C_R   0.876199 0.843816 0.533790 -0.149145
C45   C     C_R   0.463631 0.668204 0.377661 0.596813
N4    N     N_R   0.624023 0.686971 0.350803 -0.559354
C46   C     C_R   0.767322 0.734246 0.381548 0.583133
O15   O     O_2   0.830432 0.899645 0.653698 -0.505459
O16   O     O_2   0.228792 0.770660 0.644512 -0.508252
H11   H     H_    0.132737 0.692360 0.545483 0.173619
H12   H     H_    0.166787 0.641116 0.442501 0.166580
O17   O     O_2   0.324833 0.621597 0.346524 -0.509235
O18   O     O_2   0.924029 0.751518 0.354183 -0.499582
H13   H     H_    0.023050 0.829732 0.453971 0.170438
H14   H     H_    0.990240 0.881161 0.557430 0.167764
C47   C     C_R   0.561837 0.700211 0.251524 0.392218
C48   C     C_R   0.570253 0.667171 0.191256 -0.019914
C49   C     C_R   0.650673 0.589296 0.168571 -0.229867
C50   C     C_R   0.728101 0.547224 0.207085 0.324172
C51   C     C_R   0.724436 0.582316 0.266134 -0.114754
H15   H     H_    0.784179 0.549339 0.294575 0.164717
C52   C     C_R   0.639586 0.657130 0.289102 0.194993
C53   C     C_R   0.509364 0.808864 0.745032 -0.095315
H16   H     H_    0.525443 0.745452 0.724820 0.138948
C54   C     C_R   0.487357 0.835397 0.805032 0.036390
C55   C     C_R   0.467286 0.918467 0.831136 -0.059498
C56   C     C_R   0.468390 0.972591 0.796554 -0.217033
H17   H     H_    0.454432 0.036317 0.815902 0.124820
C57   C     C_R   0.489955 0.945317 0.736941 -0.057413
H18   H     H_    0.489785 0.988088 0.711094 0.143611
C58   C     C_R   0.511073 0.863270 0.710673 0.343542
C59   C     C_2   0.642865 0.269654 0.001921 -0.340298
H19   H     H_    0.777219 0.238625 0.005313 0.151818
C60   C     C_2   0.472658 0.230323 0.997980 -0.339166
H20   H     H_    0.338303 0.261355 0.994593 0.151687
O19   O     O_R   0.618210 0.960470 0.922400 -0.534776
O20   O     O_R   0.291310 0.111960 0.995450 -0.544649
O21   O     O_R   0.124210 0.039530 0.077580 -0.536324
C61   C     C_R   0.460880 0.145102 0.998424 0.773771
O22   O     O_R   0.288310 0.965490 0.917650 -0.538158
O23   O     O_R   0.121180 0.892010 0.999220 -0.537114
C62   C     C_R   0.456881 0.950032 0.894211 0.704353
O24   O     O_R   0.621230 0.107990 0.000760 -0.534352
O25   O     O_3   0.455770 0.976060 0.026840 -0.372327
V3    V     V_3+5 0.179680 0.004440 0.995020 1.416188
O26   O     O_R   0.791670 0.888040 0.004570 -0.549226
C63   C     C_R   0.961424 0.855113 0.002012 0.768498
O27   O     O_R   0.794680 0.034510 0.082370 -0.544438
C64   C     C_R   0.963735 0.049263 0.106056 0.704444
V4    V     V_3+5 0.680070 0.995560 0.005010 1.397895
O28   O     O_3   0.953840 0.023940 0.973160 -0.365839
O29   O     O_3   0.424191 0.379898 0.697380 -0.607021
H21   H     H_    0.401650 0.342678 0.659170 0.294473
O30   O     O_3   0.453637 0.461314 0.808229 -0.612199
H22   H     H_    0.418164 0.510556 0.837719 0.284834
O31   O     O_3   0.475984 0.774533 0.271886 -0.637526
H23   H     H_    0.483133 0.791480 0.314269 0.312663
C65   C     C_3   0.497977 0.718355 0.152553 -0.296074
C66   C     C_3   0.644916 0.783637 0.150066 -0.325408
C67   C     C_3   0.567279 0.839069 0.115026 -0.719799
H24   H     H_    0.538174 0.804683 0.070092 0.214652
H25   H     H_    0.432167 0.868646 0.134231 0.220364
H26   H     H_    0.675656 0.886141 0.114753 0.222160
H27   H     H_    0.679693 0.820350 0.194033 0.241832
H28   H     H_    0.780360 0.755114 0.130146 0.184553
H29   H     H_    0.468308 0.682835 0.108202 0.163327
H30   H     H_    0.357712 0.746143 0.168910 0.207884
O32   O     O_3   0.806148 0.471141 0.189485 -0.623239
H31   H     H_    0.768694 0.445950 0.149261 0.286793
C68   C     C_3   0.485179 0.773708 0.839600 -0.374726
C69   C     C_3   0.690920 0.748948 0.851230 -0.306727
C70   C     C_3   0.689627 0.683092 0.882922 -0.709323
H32   H     H_    0.612533 0.703699 0.924366 0.211499
H33   H     H_    0.617589 0.628758 0.856282 0.235998
H34   H     H_    0.840096 0.667153 0.891558 0.217514
H35   H     H_    0.768668 0.726515 0.810009 0.212339
H36   H     H_    0.770159 0.801697 0.877611 0.198799
H37   H     H_    0.409212 0.796929 0.881004 0.160650
H38   H     H_    0.402697 0.720269 0.815544 0.190770
C71   C     C_3   0.807043 0.408615 0.436666 -0.318955
C72   C     C_3   0.941602 0.471396 0.423157 -0.265006
C73   C     C_3   0.823933 0.538657 0.409031 -0.765637
H39   H     H_    0.705505 0.513697 0.378466 0.242562
H40   H     H_    0.760351 0.577264 0.448821 0.224773
H41   H     H_    0.917733 0.575795 0.389269 0.236394
H42   H     H_    0.037166 0.497676 0.460440 0.185653
H43   H     H_    0.033826 0.442904 0.385974 0.248456
H44   H     H_    0.729045 0.375859 0.397299 0.205503
H45   H     H_    0.691623 0.439490 0.466157 0.170022
C74   C     C_3   0.267449 0.041934 0.294834 -0.331292
C75   C     C_3   0.387502 0.105290 0.337730 -0.323283
C76   C     C_3   0.449668 0.075570 0.389519 -0.687764
H46   H     H_    0.322370 0.063552 0.413474 0.225907
H47   H     H_    0.534172 0.019358 0.375377 0.266343
H48   H     H_    0.538892 0.121931 0.418963 0.212583
H49   H     H_    0.518386 0.117954 0.315953 0.196313
H50   H     H_    0.310263 0.162905 0.353146 0.209745
H51   H     H_    0.199899 0.999379 0.316043 0.236188
H52   H     H_    0.369725 0.004101 0.263943 0.165105

loop_
_geom_bond_atom_site_label_1
_geom_bond_atom_site_label_2
_ccdc_geom_bond_type
C39   H12   S    
C28   O30   S    
C59   H19   S    
C47   O31   S    
C55   C56   A    
C65   H30   S    
C9    C12   A    
C1    O6    A    
C66   C67   S    
C76   H46   S    
C47   C52   A    
O30   H22   S    
C1    C49   S    
C47   C48   A    
C74   H52   S    
C68   H37   S    
C14   C15   A    
O20   V3    S    
C19   O13   S    
C7    N1    A    
C13   C14   A    
C65   H29   S    
C67   H24   S    
O27   V4    S    
C74   C75   S    
N1    C32   S    
C15   C16   A    
C31   C32   A    
O26   C63   A    
C30   H9    S    
C19   N2    A    
C73   H41   S    
O22   C62   A    
O4    V1    S    
O25   V4    S    
O8    V2    S    
C33   C37   A    
C23   C64   S    
N2    C20   A    
C12   H3    S    
C39   C40   A    
C56   C57   A    
C25   C26   A    
C8    C9    A    
C41   C42   A    
O1    V2    S    
C75   H50   S    
C51   C52   A    
C71   H45   S    
O23   V3    S    
C44   H14   S    
C33   N3    A    
N4    C52   S    
C67   H26   S    
C21   C26   A    
C24   C25   A    
O19   C62   A    
C13   C71   S    
C59   C60   D    
C72   H43   S    
O9    C4    A    
C54   C68   S    
C4    C5    S    
C20   O14   S    
C40   C41   A    
C70   H32   S    
C66   H27   S    
C74   H51   S    
N1    C8    A    
C76   H47   S    
C27   C32   A    
C25   H8    S    
C22   C23   A    
C68   H38   S    
C45   N4    A    
C38   C39   A    
C18   H5    S    
C35   C38   A    
C38   H11   S    
C9    C10   A    
C70   H34   S    
C46   O18   S    
O4    C2    A    
C48   C49   A    
C10   C11   A    
C22   H6    S    
C37   C44   A    
C14   C19   A    
C61   O24   A    
C36   C41   A    
O2    C1    A    
N4    C46   A    
O21   V3    S    
C55   C62   S    
N3    C34   A    
C66   H28   S    
C11   C18   A    
C23   C24   A    
C73   H39   S    
C56   H17   S    
C29   C30   A    
C53   C54   A    
C5    H1    S    
C40   C45   A    
C75   H49   S    
C69   C70   S    
V4    O28   S    
O29   H21   S    
C60   C61   S    
O3    C4    A    
O22   V3    S    
N3    C58   S    
C24   H7    S    
C36   C37   A    
O6    V2    S    
C57   C58   A    
C72   H42   S    
O9    V2    S    
O31   H23   S    
C45   O17   S    
C69   H36   S    
C65   C66   S    
O2    V1    S    
O23   C63   A    
N2    C26   S    
C76   H48   S    
C21   C22   A    
C53   C58   A    
O25   V3    S    
O7    V1    S    
C10   C15   A    
C33   O15   S    
C28   C29   A    
O21   C64   A    
C48   C65   S    
O1    C2    A    
C16   C17   A    
C43   C44   A    
C69   H35   S    
O5    V1    S    
O24   V4    S    
C68   C69   S    
C27   C28   A    
C8    O12   S    
O32   H31   S    
O26   V4    S    
C72   C73   S    
C35   C36   A    
C6    H2    S    
C70   H33   S    
C31   H10   S    
C42   C43   A    
O3    V1    S    
V1    O10   S    
O27   C64   A    
C17   C18   A    
O5    C3    A    
C42   C46   A    
O20   C61   A    
C6    C63   S    
C7    C11   A    
C53   H16   S    
C5    C6    D    
C30   C31   A    
C73   H40   S    
O7    V2    S    
C54   C55   A    
C75   C76   S    
C50   O32   S    
C43   H13   S    
C34   C35   A    
C3    C29   S    
C7    O11   S    
C50   C51   A    
C49   C50   A    
C57   H18   S    
C2    C59   S    
C60   H20   S    
C21   C74   S    
C17   H4    S    
C16   C20   A    
O19   V4    S    
C27   O29   S    
C67   H25   S    
C51   H15   S    
C71   C72   S    
C71   H44   S    
V3    O28   S    
V2    O10   S    
O8    C3    A    
C12   C13   A    
C34   O16   S    
