data_mof_unit_21577.cif
_audit_creation_date              2012-10-26T20:08:15-0400
_audit_creation_method            fapswitch 2.2
_symmetry_space_group_name_H-M    P1
_symmetry_Int_Tables_number       1
_space_group_crystal_system       triclinic
_cell_length_a                    10.898296
_cell_length_b                    10.736121
_cell_length_c                    9.674173
_cell_angle_alpha                 92.993489
_cell_angle_beta                  91.201523
_cell_angle_gamma                 91.745335
_cell_volume                      1129.57315374

loop_
_atom_site_label
_atom_site_type_symbol
_atom_type_description
_atom_site_fract_x
_atom_site_fract_y
_atom_site_fract_z
_atom_type_partial_charge
C1    C     C_R   0.497607 0.262544 0.497309 0.546776
C2    C     C_R   0.432247 0.067465 0.598274 -0.142873
C3    C     C_R   0.501585 0.871678 0.503942 0.023673
C4    C     C_R   0.493946 0.128270 0.493955 0.023851
C5    C     C_R   0.453418 0.398265 0.064034 0.102724
C6    C     C_R   0.538832 0.604887 0.937280 0.104624
C7    C     C_R   0.457488 0.399245 0.916681 0.020594
C8    C     C_R   0.542814 0.600056 0.084107 0.031312
C9    C     C_R   0.262811 0.503607 0.498372 0.540976
C10   C     C_R   0.737600 0.500370 0.501759 0.544706
C11   C     C_R   0.218198 0.686185 0.097103 -0.105020
C12   C     C_R   0.500926 0.737463 0.502381 0.542718
C13   C     C_R   0.814370 0.488056 0.985313 -0.107689
C14   C     C_R   0.166545 0.656316 0.222482 -0.049554
C15   C     C_R   0.843831 0.457638 0.847941 -0.057989
C16   C     C_R   0.111366 0.537681 0.237111 0.059458
C17   C     C_R   0.895068 0.549385 0.766447 0.055177
C18   C     C_R   0.105254 0.450885 0.123683 -0.091150
C19   C     C_R   0.919875 0.670216 0.825016 -0.104416
C20   C     C_R   0.156138 0.481667 0.998104 -0.100515
C21   C     C_R   0.893258 0.699253 0.962901 -0.118814
C22   C     C_R   0.213279 0.598814 0.985064 -0.094455
C23   C     C_R   0.872029 0.500811 0.504574 -0.007540
C24   C     C_R   0.839117 0.608896 0.042472 -0.108010
C25   C     C_R   0.931596 0.492606 0.377392 -0.160197
C26   C     C_R   0.069984 0.513991 0.621538 -0.160511
C27   C     C_3   0.400267 0.281916 0.126598 -0.228576
C28   C     C_3   0.324538 0.188017 0.030719 -0.357376
C29   C     C_3   0.265974 0.085096 0.113073 -0.457420
C30   C     C_3   0.569608 0.730873 0.879287 -0.224238
C31   C     C_3   0.609725 0.840785 0.981732 -0.359096
C32   C     C_3   0.640563 0.958830 0.906521 -0.450475
C33   C     C_R   0.128892 0.508338 0.495265 -0.011134
C34   C     C_R   0.943366 0.516528 0.628499 -0.033177
C35   C     C_R   0.058440 0.507158 0.371132 -0.035352
C36   C     C_R   0.557684 0.060694 0.393137 -0.151417
C37   C     C_R   0.435391 0.938989 0.602679 -0.153353
C38   C     C_R   0.561797 0.932406 0.398380 -0.141506
Cu1   Cu    Cu3+1 0.500000 0.500020 0.640660 0.904449
Cu2   Cu    Cu3+1 0.500000 0.499980 0.359340 0.907264
H1    H     H_    0.254283 0.622052 0.888496 0.119757
H2    H     H_    0.963264 0.740805 0.764755 0.098373
H3    H     H_    0.151865 0.414114 0.911246 0.093255
H4    H     H_    0.914073 0.792090 0.007935 0.101155
H5    H     H_    0.879098 0.481704 0.281606 0.131354
H6    H     H_    0.123189 0.523246 0.716718 0.133135
H7    H     H_    0.607037 0.107094 0.313437 0.109480
H8    H     H_    0.384754 0.892489 0.681220 0.103565
H9    H     H_    0.612783 0.880634 0.320769 0.108281
H10   H     H_    0.381481 0.119381 0.675959 0.107114
H11   H     H_    0.337910 0.033998 0.167807 0.160574
H12   H     H_    0.815262 0.633708 0.147989 0.106976
H13   H     H_    0.201944 0.125409 0.189964 0.151377
H14   H     H_    0.213492 0.017879 0.041519 0.136623
H15   H     H_    0.250691 0.235726 0.975851 0.153945
H16   H     H_    0.385074 0.142602 0.953333 0.144203
H17   H     H_    0.478895 0.228946 0.163820 0.162772
H18   H     H_    0.339274 0.312147 0.211428 0.207547
H19   H     H_    0.712231 0.940736 0.828621 0.158742
H20   H     H_    0.557118 0.992431 0.854715 0.159332
H21   H     H_    0.675516 0.033331 0.982507 0.136341
H22   H     H_    0.534061 0.862079 0.053908 0.148907
H23   H     H_    0.423694 0.320481 0.852360 0.123106
H24   H     H_    0.691960 0.817851 0.043176 0.153662
H25   H     H_    0.643502 0.718179 0.802981 0.199837
H26   H     H_    0.482600 0.762163 0.833968 0.167090
H27   H     H_    0.578352 0.676965 0.149794 0.122408
H28   H     H_    0.262407 0.776789 0.086930 0.090220
H29   H     H_    0.773104 0.417917 0.047663 0.106823
H30   H     H_    0.170829 0.724847 0.308844 0.096333
H31   H     H_    0.828127 0.362971 0.805626 0.106653
H32   H     H_    0.062140 0.359549 0.132834 0.092661
N1    N     N_R   0.500030 0.500030 0.852070 -0.240958
N2    N     N_R   0.499970 0.499970 0.147930 -0.238078
O1    O     O_R   0.499990 0.319660 0.618740 -0.512640
O2    O     O_R   0.500010 0.680340 0.381260 -0.514765
O3    O     O_R   0.499990 0.319630 0.381170 -0.530881
O4    O     O_R   0.500010 0.680370 0.618830 -0.532392
O5    O     O_R   0.319650 0.500020 0.618780 -0.517832
O6    O     O_R   0.680350 0.499980 0.381220 -0.515016
O7    O     O_R   0.319640 0.500000 0.381210 -0.494974
O8    O     O_R   0.680360 0.500000 0.618790 -0.490515

loop_
_geom_bond_atom_site_label_1
_geom_bond_atom_site_label_2
_ccdc_geom_bond_type
C24   H12   S    
C4    C36   A    
C1    O3    A    
C28   H16   S    
C7    N1    A    
C38   H9    S    
C29   H13   S    
C28   C29   S    
C19   C21   A    
C32   H21   S    
C16   C35   S    
C30   C31   S    
C11   C14   A    
C22   H1    S    
C29   H14   S    
C36   H7    S    
C9    O5    A    
C5    N2    A    
C3    C12   S    
C2    H10   S    
C17   C19   A    
C5    C27   S    
C26   C34   A    
C3    C38   A    
C12   O4    A    
Cu2   O6    S    
Cu1   O1    S    
C19   H2    S    
C23   C25   A    
C9    C33   S    
C14   H30   S    
C31   H22   S    
C31   H24   S    
C28   H15   S    
C18   H32   S    
C1    O1    A    
Cu1   O4    S    
C27   H17   S    
Cu1   Cu2   S    
C5    C7    A    
C10   O6    A    
C6    C8    A    
C10   O8    A    
Cu2   O2    S    
C13   C24   A    
Cu1   O5    S    
C2    C4    A    
C21   H4    S    
C26   C33   A    
C31   C32   S    
C23   C34   A    
C8    N2    A    
C37   H8    S    
C7    H23   S    
C30   H26   S    
C25   C35   A    
C6    C30   S    
C20   C22   A    
C13   C15   A    
C12   O2    A    
C14   C16   A    
C17   C34   S    
C32   H20   S    
C25   H5    S    
C20   H3    S    
C11   H28   S    
C6    N1    A    
C29   H11   S    
C15   C17   A    
Cu2   O7    S    
Cu1   O8    S    
C27   H18   S    
C10   C23   S    
C15   H31   S    
C11   C22   A    
C1    C4    S    
C36   C38   A    
C2    C37   A    
C13   H29   S    
C33   C35   A    
Cu2   N2    S    
C18   C20   A    
Cu1   N1    S    
C30   H25   S    
C26   H6    S    
C3    C37   A    
C8    H27   S    
C16   C18   A    
C21   C24   A    
C27   C28   S    
Cu2   O3    S    
C32   H19   S    
C9    O7    A    
