data_mof_unit_29365.cif
_audit_creation_date              2012-10-26T18:50:24-0400
_audit_creation_method            fapswitch 2.2
_symmetry_space_group_name_H-M    P1
_symmetry_Int_Tables_number       1
_space_group_crystal_system       triclinic
_cell_length_a                    9.640997
_cell_length_b                    10.798065
_cell_length_c                    15.511536
_cell_angle_alpha                 85.13897
_cell_angle_beta                  74.264861
_cell_angle_gamma                 91.136934
_cell_volume                      1547.16536128

loop_
_atom_site_label
_atom_site_type_symbol
_atom_type_description
_atom_site_fract_x
_atom_site_fract_y
_atom_site_fract_z
_atom_type_partial_charge
C1    C     C_R   0.996284 0.262126 0.505242 0.585348
C2    C     C_R   0.230041 0.532336 0.042103 0.050533
C3    C     C_R   0.329211 0.503130 0.092698 0.030245
C4    C     C_R   0.918675 0.504002 0.671533 0.549735
C5    C     C_R   0.082546 0.537620 0.085189 -0.151755
C6    C     C_R   0.031817 0.515636 0.178213 -0.150216
C7    C     C_R   0.276051 0.490017 0.187008 -0.144170
C8    C     C_R   0.067737 0.107789 0.655481 0.151681
C9    C     C_R   0.140047 0.039428 0.709455 -0.112503
C10   C     C_R   0.169063 0.915922 0.696766 -0.155445
C11   C     C_R   0.121719 0.858163 0.632435 -0.129208
C12   C     C_R   0.674909 0.503857 0.907040 0.030822
C13   C     C_R   0.056410 0.926784 0.573261 -0.010380
C14   C     C_R   0.040520 0.056000 0.580144 0.050343
C15   C     C_R   0.987463 0.126758 0.515365 0.002275
C16   C     C_R   0.999490 0.736706 0.503864 0.540578
C17   C     C_R   0.928210 0.067610 0.456358 -0.173602
C18   C     C_R   0.929202 0.940016 0.456536 -0.163498
C19   C     C_R   0.997920 0.869721 0.511115 -0.004079
C20   C     C_R   0.711029 0.641101 0.362225 -0.088183
C21   C     C_R   0.682270 0.682774 0.281037 -0.061335
C22   C     C_R   0.542622 0.666633 0.275254 -0.160275
C23   C     C_R   0.771452 0.463746 0.957274 0.047920
C24   C     C_R   0.430951 0.638625 0.353831 0.161268
C25   C     C_R   0.458820 0.569050 0.430224 0.168616
C26   C     C_R   0.607498 0.568684 0.431461 0.107948
C27   C     C_R   0.543656 0.434029 0.565008 -0.007554
C28   C     C_R   0.081915 0.497868 0.328256 0.528124
C29   C     C_R   0.396077 0.434456 0.565213 -0.017906
C30   C     C_R   0.874018 0.503701 0.769897 -0.009286
C31   C     C_R   0.129121 0.498841 0.229831 -0.012652
C32   C     C_R   0.916686 0.446643 0.913913 -0.149555
C33   C     C_R   0.968341 0.468822 0.821060 -0.151578
C34   C     C_R   0.526217 0.516334 0.952131 0.032196
C35   C     C_R   0.730279 0.525304 0.812959 -0.144567
C36   C     C_3   0.844671 0.186878 0.735262 -0.294681
C37   C     C_3   0.790880 0.753065 0.200895 -0.255814
C38   C     C_3   0.923921 0.812644 0.220311 -0.304474
C39   C     C_3   0.026262 0.877166 0.134630 -0.447316
C40   C     C_3   0.345271 0.842156 0.381649 -0.290650
C41   C     C_R   0.477777 0.491102 0.047598 0.028665
C42   C     C_R   0.578540 0.451378 0.094542 -0.145674
C43   C     C_R   0.722022 0.438181 0.050075 -0.147107
C44   C     C_R   0.423663 0.550312 0.904962 -0.144959
C45   C     C_R   0.278641 0.556607 0.949181 -0.146895
Cu1   Cu    Cu3+1 0.140660 0.499990 0.500010 0.953642
Cu2   Cu    Cu3+1 0.859340 0.500010 0.499990 0.921432
H1    H     H_    0.794554 0.405718 0.088827 0.107338
H2    H     H_    0.347441 0.476701 0.229073 0.125715
H3    H     H_    0.516466 0.706883 0.215391 0.113015
H4    H     H_    0.316685 0.380326 0.618653 0.109717
H5    H     H_    0.917469 0.517698 0.210096 0.138294
H6    H     H_    0.203882 0.581222 0.910074 0.106049
H7    H     H_    0.989707 0.412043 0.951501 0.108519
H8    H     H_    0.080249 0.452495 0.789163 0.112279
H9    H     H_    0.663518 0.555516 0.770618 0.120507
H10   H     H_    0.549980 0.425575 0.165880 0.108378
H11   H     H_    0.450355 0.571035 0.833195 0.099055
H12   H     H_    0.006598 0.561546 0.047126 0.104317
H13   H     H_    0.048001 0.261830 0.726617 0.239287
H14   H     H_    0.791026 0.272344 0.758098 0.149659
H15   H     H_    0.834093 0.119494 0.795236 0.135057
H16   H     H_    0.787284 0.147733 0.689824 0.151760
H17   H     H_    0.065121 0.809061 0.084614 0.162843
H18   H     H_    0.970957 0.951768 0.104860 0.149727
H19   H     H_    0.120916 0.919623 0.150822 0.142308
H20   H     H_    0.888039 0.883395 0.268358 0.151915
H21   H     H_    0.984729 0.742111 0.249264 0.161237
H22   H     H_    0.824247 0.689747 0.146966 0.148035
H23   H     H_    0.882632 0.120654 0.408969 0.129958
H24   H     H_    0.735207 0.829921 0.173487 0.143738
H25   H     H_    0.272742 0.721000 0.306145 0.232432
H26   H     H_    0.251823 0.900748 0.382884 0.139517
H27   H     H_    0.439310 0.887251 0.329228 0.121767
H28   H     H_    0.367937 0.838736 0.448320 0.166108
H29   H     H_    0.163441 0.079033 0.766099 0.099206
H30   H     H_    0.219511 0.862250 0.741186 0.114116
H31   H     H_    0.134797 0.759356 0.631906 0.156338
H32   H     H_    0.879690 0.895834 0.411771 0.113356
H33   H     H_    0.573713 0.379424 0.618344 0.112077
H34   H     H_    0.813014 0.667005 0.370428 0.183263
N1    N     N_R   0.648320 0.501210 0.499140 -0.242691
N2    N     N_R   0.352470 0.501290 0.499110 -0.235187
N3    N     N_2   0.995684 0.214529 0.688792 -0.500977
N4    N     N_2   0.313656 0.717535 0.361276 -0.439065
O1    O     O_R   0.118810 0.319640 0.500010 -0.479742
O2    O     O_R   0.881240 0.319660 0.500000 -0.497236
O3    O     O_R   0.055570 0.499980 0.629840 -0.510350
O4    O     O_R   0.818000 0.500010 0.629830 -0.506453
O5    O     O_R   0.118760 0.680340 0.500000 -0.473764
O6    O     O_R   0.881190 0.680360 0.499990 -0.523172
O7    O     O_R   0.182000 0.499990 0.370170 -0.490340
O8    O     O_R   0.944430 0.500020 0.370160 -0.523961

loop_
_geom_bond_atom_site_label_1
_geom_bond_atom_site_label_2
_ccdc_geom_bond_type
C1    O2    A    
C16   O5    A    
C37   H22   S    
C27   C29   A    
Cu2   O4    S    
C41   C42   A    
H25   N4    S    
C39   H17   S    
C12   C23   A    
C30   C35   A    
C29   N2    A    
C3    C7    A    
C29   H4    S    
C38   C39   S    
H13   N3    S    
Cu1   O7    S    
C23   C43   A    
C40   H26   S    
C18   C19   A    
Cu2   N1    S    
C20   H34   S    
C44   H11   S    
C8    C9    A    
C1    C15   S    
C9    H29   S    
C36   H16   S    
C43   H1    S    
C22   H3    S    
C6    C31   A    
C45   H6    S    
C17   H23   S    
C26   N1    A    
C21   C22   A    
C39   H18   S    
C34   C41   A    
C36   H15   S    
C42   H10   S    
C32   H7    S    
C10   H30   S    
Cu1   O3    S    
C28   C31   S    
C2    C45   A    
C7    C31   A    
C5    H12   S    
C34   C44   A    
C24   C25   A    
C7    H2    S    
C27   H33   S    
C13   C19   A    
C18   H32   S    
C24   N4    S    
C25   C26   A    
C28   O8    A    
Cu2   O2    S    
C40   N4    S    
C37   C38   S    
C11   H31   S    
C17   C18   A    
Cu2   O8    S    
C33   H8    S    
C28   O7    A    
C38   H20   S    
C12   C35   A    
C4    O3    A    
C38   H21   S    
C37   H24   S    
C39   H19   S    
C22   C24   A    
C2    C5    A    
C42   C43   A    
C12   C34   A    
C36   H14   S    
C44   C45   A    
C4    O4    A    
C9    C10   A    
C1    O1    A    
C15   C17   A    
Cu1   Cu2   S    
C3    C41   A    
C8    C14   A    
C30   C33   A    
C35   H9    S    
C8    N3    S    
Cu2   O6    S    
C27   N1    A    
Cu1   O5    S    
C40   H28   S    
C23   C32   A    
C2    C3    A    
C32   C33   A    
C11   C13   A    
C5    C6    A    
C20   C26   A    
C36   N3    S    
C16   C19   S    
C40   H27   S    
C10   C11   A    
Cu1   N2    S    
C21   C37   S    
C20   C21   A    
C16   O6    A    
C25   N2    A    
C14   C15   A    
C6    H5    S    
C13   C14   A    
C4    C30   S    
Cu1   O1    S    
