data_mof_unit_55367.cif
_audit_creation_date              2012-12-11T14:50:29-0500
_audit_creation_method            fapswitch 2.2
_symmetry_space_group_name_H-M    P1
_symmetry_Int_Tables_number       1
_space_group_crystal_system       triclinic
_cell_length_a                    11.06171
_cell_length_b                    11.023194
_cell_length_c                    18.769442
_cell_angle_alpha                 89.42066
_cell_angle_beta                  89.254853
_cell_angle_gamma                 59.914653
_cell_volume                      1980.14548337

loop_
_atom_site_label
_atom_site_type_symbol
_atom_type_description
_atom_site_fract_x
_atom_site_fract_y
_atom_site_fract_z
_atom_type_partial_charge
C1    C     C_R   0.230737 0.648310 0.608111 0.542789
C2    C     C_R   0.586357 0.122397 0.780066 -0.177058
C3    C     C_R   0.569870 0.144189 0.708534 -0.158115
C4    C     C_R   0.654408 0.622324 0.600767 0.526750
C5    C     C_R   0.676519 0.140182 0.666473 0.023796
C6    C     C_R   0.172948 0.558858 0.719066 -0.149107
C7    C     C_R   0.175340 0.556728 0.794345 -0.004963
C8    C     C_R   0.161151 0.676800 0.830232 0.033183
C9    C     C_R   0.157575 0.786536 0.790635 -0.177173
C10   C     C_R   0.153672 0.787014 0.717382 -0.161992
C11   C     C_R   0.171892 0.669570 0.680697 0.010688
C12   C     C_3   0.655603 0.582967 0.806804 -0.030859
C13   C     C_R   0.598767 0.590985 0.269967 -0.121737
C14   C     C_R   0.609504 0.606145 0.197025 -0.155704
C15   C     C_R   0.669449 0.683696 0.172493 0.038827
C16   C     C_R   0.631805 0.219308 0.599470 0.528246
C17   C     C_R   0.723292 0.741505 0.220519 -0.119386
C18   C     C_R   0.714192 0.724606 0.293555 -0.158698
C19   C     C_R   0.650425 0.650455 0.318054 0.030593
C20   C     C_R   0.582870 0.114672 0.293527 -0.153905
C21   C     C_R   0.581289 0.100991 0.220784 -0.146250
C22   C     C_R   0.645130 0.155626 0.175921 0.026719
C23   C     C_3   0.717341 0.684569 0.809914 0.034793
C24   C     C_R   0.704741 0.229702 0.203950 -0.159547
C25   C     C_R   0.709800 0.240197 0.277086 -0.151527
C26   C     C_R   0.646927 0.184504 0.321987 0.023775
C27   C     C_R   0.231509 0.761125 0.281437 0.027009
C28   C     C_R   0.295386 0.619347 0.393636 0.562700
C29   C     C_R   0.138750 0.793372 0.226018 0.033147
C30   C     C_R   0.145023 0.681394 0.185797 0.009009
C31   C     C_R   0.216489 0.544358 0.211983 -0.162865
C32   C     C_R   0.273180 0.520904 0.279832 -0.156866
C33   C     C_R   0.273761 0.631089 0.316717 -0.005137
C34   C     C_3   0.675064 0.647971 0.676578 0.060384
C35   C     C_R   0.726615 0.045085 0.888956 0.546961
C36   C     C_R   0.748957 0.706070 0.882929 0.538009
C37   C     C_R   0.114394 0.708025 0.904449 0.529673
C38   C     C_R   0.673371 0.107125 0.103473 0.539802
C39   C     C_R   0.696555 0.690532 0.097749 0.530146
C40   C     C_R   0.643071 0.623835 0.392880 0.533227
C41   C     C_R   0.084808 0.714295 0.115103 0.541409
C42   C     C_R   0.617046 0.231119 0.394757 0.533563
C43   C     C_3   0.608705 0.825535 0.776636 -0.249801
C44   C     C_3   0.568780 0.805915 0.700968 -0.118251
C45   C     C_3   0.821022 0.634112 0.683553 -0.247176
C46   C     C_3   0.850779 0.639160 0.763176 -0.244972
C47   C     C_3   0.799539 0.375257 0.718016 -0.232917
C48   C     C_3   0.948873 0.318184 0.745455 -0.460182
C49   C     C_3   0.198857 0.423484 0.832925 -0.280396
C50   C     C_3   0.316682 0.365127 0.887823 -0.410667
C51   C     C_3   0.268403 0.871924 0.305398 -0.243582
C52   C     C_3   0.338836 0.915509 0.247505 -0.444817
C53   C     C_3   0.407579 0.867739 0.699373 -0.299411
C54   C     C_3   0.325903 0.027744 0.696674 -0.473257
C55   C     C_3   0.014553 0.942763 0.221210 -0.217676
C56   C     C_3   0.670525 0.530962 0.727815 0.056660
C57   C     C_3   0.045088 0.044779 0.178833 -0.377226
C58   C     C_3   0.695455 0.468712 0.867975 -0.253556
C59   C     C_3   0.599339 0.523241 0.933831 -0.422776
C60   C     C_3   0.538199 0.522888 0.705941 -0.275822
C61   C     C_3   0.488811 0.451144 0.757340 -0.461989
C62   C     C_R   0.810532 0.085482 0.695507 -0.157357
C63   C     C_R   0.829148 0.057313 0.769287 -0.163891
C64   C     C_R   0.715487 0.080117 0.812530 -0.001215
Cr1   Cr    Cr6+3 0.392930 0.397900 0.502230 0.999113
Cr2   Cr    Cr6+3 0.398240 0.708600 0.501260 0.973582
Cr3   Cr    Cr6+3 0.708800 0.393470 0.496460 0.992024
Cr4   Cr    Cr6+3 0.937620 0.938540 0.007640 0.980918
Cr5   Cr    Cr6+3 0.625150 0.937450 0.994520 0.977545
Cr6   Cr    Cr6+3 0.937990 0.625080 0.001190 0.980924
H1    H     H_    0.661666 0.885391 0.771246 0.135345
H2    H     H_    0.515780 0.884754 0.811832 0.148898
H3    H     H_    0.146865 0.876436 0.689407 0.128607
H4    H     H_    0.551406 0.531586 0.289237 0.111149
H5    H     H_    0.571773 0.557867 0.160166 0.105654
H6    H     H_    0.775245 0.796809 0.201160 0.114854
H7    H     H_    0.756855 0.768090 0.330425 0.113866
H8    H     H_    0.531355 0.073759 0.327406 0.128852
H9    H     H_    0.535020 0.042495 0.199859 0.138964
H10   H     H_    0.750065 0.275960 0.169516 0.113010
H11   H     H_    0.757481 0.297114 0.298252 0.147912
H12   H     H_    0.937109 0.540269 0.781378 0.141832
H13   H     H_    0.221150 0.458476 0.182170 0.134187
H14   H     H_    0.313643 0.418318 0.304024 0.153380
H15   H     H_    0.588588 0.874041 0.663975 0.151832
H16   H     H_    0.888015 0.715411 0.769619 0.118509
H17   H     H_    0.823391 0.722046 0.655066 0.109238
H18   H     H_    0.541517 0.652644 0.815941 0.135081
H19   H     H_    0.013617 0.345146 0.710927 0.134708
H20   H     H_    0.953980 0.342892 0.801464 0.141119
H21   H     H_    0.002268 0.202077 0.744250 0.114550
H22   H     H_    0.769856 0.308195 0.746161 0.151035
H23   H     H_    0.904842 0.539356 0.657448 0.146832
H24   H     H_    0.811156 0.339527 0.662846 0.199751
H25   H     H_    0.416135 0.345639 0.864010 0.158645
H26   H     H_    0.294434 0.435316 0.933780 0.168642
H27   H     H_    0.330884 0.264524 0.909113 0.149576
H28   H     H_    0.102382 0.441200 0.860486 0.178327
H29   H     H_    0.224152 0.339022 0.793648 0.108924
H30   H     H_    0.359365 0.854101 0.197901 0.171938
H31   H     H_    0.275524 0.028982 0.235608 0.131008
H32   H     H_    0.439086 0.901548 0.266782 0.146010
H33   H     H_    0.174155 0.966040 0.326417 0.146267
H34   H     H_    0.895686 0.078690 0.663393 0.116033
H35   H     H_    0.343513 0.833694 0.348709 0.201234
H36   H     H_    0.341768 0.073418 0.745541 0.138673
H37   H     H_    0.356397 0.065955 0.648625 0.156820
H38   H     H_    0.213180 0.063868 0.692324 0.130204
H39   H     H_    0.372925 0.836347 0.652601 0.220027
H40   H     H_    0.372161 0.834126 0.747230 0.137595
H41   H     H_    0.144117 0.989751 0.148072 0.166109
H42   H     H_    0.964000 0.103463 0.138861 0.166784
H43   H     H_    0.045897 0.123267 0.215063 0.116337
H44   H     H_    0.924016 0.940491 0.198124 0.163484
H45   H     H_    0.927681 0.028290 0.793200 0.126542
H46   H     H_    0.977566 0.984471 0.275693 0.130385
H47   H     H_    0.601973 0.612067 0.958987 0.201609
H48   H     H_    0.489821 0.557467 0.919343 0.124606
H49   H     H_    0.633395 0.437856 0.974019 0.143621
H50   H     H_    0.690135 0.376967 0.851609 0.138393
H51   H     H_    0.804820 0.417846 0.884872 0.182944
H52   H     H_    0.572218 0.353315 0.777354 0.156977
H53   H     H_    0.432389 0.520726 0.802534 0.157999
H54   H     H_    0.423949 0.419503 0.728294 0.172046
H55   H     H_    0.447540 0.626118 0.697303 0.154298
H56   H     H_    0.496627 0.132438 0.808814 0.142395
H57   H     H_    0.556381 0.470142 0.654058 0.191159
H58   H     H_    0.465698 0.182091 0.688762 0.139231
H59   H     H_    0.187926 0.467137 0.690670 0.115596
H60   H     H_    0.152181 0.876599 0.816386 0.128436
O1    O     O_R   0.507430 0.255570 0.581420 -0.530852
O2    O     O_R   0.837200 0.593290 0.915250 -0.544257
O3    O     O_R   0.065330 0.635370 0.931590 -0.519729
O4    O     O_R   0.280190 0.527390 0.578910 -0.500811
O5    O     O_R   0.068300 0.828790 0.091860 -0.523563
O6    O     O_R   0.798730 0.057480 0.079370 -0.519787
O7    O     O_R   0.584680 0.080480 0.076790 -0.519396
O8    O     O_R   0.626790 0.809640 0.067050 -0.506359
O9    O     O_R   0.816010 0.596460 0.076500 -0.511089
O10   O     O_R   0.045680 0.638310 0.081070 -0.501506
O11   O     O_3   0.833590 0.833690 0.001120 -0.272517
O12   O     O_R   0.524460 0.695920 0.424060 -0.540946
O13   O     O_R   0.260310 0.739740 0.584580 -0.542807
O14   O     O_R   0.532250 0.695150 0.573830 -0.522511
O15   O     O_R   0.744930 0.503430 0.576380 -0.537123
O16   O     O_R   0.699250 0.276390 0.571950 -0.526263
O17   O     O_R   0.499020 0.256400 0.419850 -0.532922
O18   O     O_R   0.272400 0.528160 0.429140 -0.491022
O19   O     O_R   0.251910 0.740570 0.423020 -0.531369
O20   O     O_R   0.736530 0.504260 0.414810 -0.506515
O21   O     O_R   0.691460 0.277160 0.422180 -0.509440
O22   O     O_3   0.499990 0.499990 0.499980 -0.277606
O23   O     O_R   0.089490 0.825610 0.930610 -0.531441
O24   O     O_R   0.818370 0.054540 0.929880 -0.501098
O25   O     O_R   0.605870 0.077310 0.915530 -0.543310
O26   O     O_R   0.646440 0.806700 0.917570 -0.531946

loop_
_geom_bond_atom_site_label_1
_geom_bond_atom_site_label_2
_ccdc_geom_bond_type
C53   H40   S    
C34   C56   S    
C43   H2    S    
C40   O12   A    
C27   C29   A    
C47   H22   S    
C1    C11   S    
C35   O24   A    
C45   H23   S    
C23   C43   S    
C7    C8    A    
C53   C54   S    
C27   C33   A    
Cr6   O10   S    
C12   C23   S    
C52   H32   S    
C29   C30   A    
C54   H37   S    
C61   H54   S    
C60   H55   S    
C45   H17   S    
C35   O25   A    
Cr4   O24   S    
C36   O2    A    
C30   C31   A    
C10   H3    S    
C50   H25   S    
C57   H42   S    
Cr2   O14   S    
C55   H46   S    
Cr5   O11   S    
C22   C38   S    
C31   H13   S    
C16   O16   A    
C18   C19   A    
C16   O1    A    
C41   O10   A    
C49   H28   S    
C46   H12   S    
C44   C53   S    
C24   H10   S    
C31   C32   A    
C2    C64   A    
C8    C9    A    
C58   H51   S    
C48   H21   S    
Cr3   O15   S    
Cr6   O3    S    
C43   H1    S    
C30   C41   S    
C35   C64   S    
C38   O6    A    
Cr1   O17   S    
C4    C34   S    
C9    C10   A    
Cr1   O4    S    
C12   C58   S    
C39   O8    A    
Cr6   O9    S    
C59   H47   S    
C23   C46   S    
C48   H20   S    
C13   C14   A    
Cr3   O20   S    
C25   H11   S    
C6    H59   S    
C42   O17   A    
C58   H50   S    
Cr1   O1    S    
C27   C51   S    
C62   H34   S    
C60   H57   S    
Cr5   O7    S    
C32   H14   S    
C39   O9    A    
C52   H31   S    
C28   O18   A    
Cr5   O26   S    
C12   H18   S    
Cr3   O21   S    
C51   C52   S    
C37   O23   A    
Cr4   O6    S    
C34   C44   S    
C24   C25   A    
C7    C49   S    
Cr2   O19   S    
Cr4   O23   S    
C10   C11   A    
C6    C11   A    
C54   H36   S    
C3    H58   S    
C13   C19   A    
C57   H43   S    
Cr2   O13   S    
C29   C55   S    
C58   C59   S    
C45   C46   S    
C52   H30   S    
C56   C60   S    
C61   H52   S    
C43   C44   S    
Cr2   O22   S    
C62   C63   A    
C1    O13   A    
C17   H6    S    
C47   C48   S    
C51   H35   S    
C21   H9    S    
Cr3   O16   S    
Cr6   O2    S    
C17   C18   A    
C40   O20   A    
Cr4   O11   S    
C34   C45   S    
Cr5   O25   S    
C13   H4    S    
Cr1   O18   S    
C42   O21   A    
C15   C39   S    
C12   C56   S    
C2    H56   S    
C28   C33   S    
C49   C50   S    
C59   H48   S    
C48   H19   S    
C55   C57   S    
C37   O3    A    
C8    C37   S    
C44   H15   S    
Cr6   O11   S    
C41   O5    A    
C36   O26   A    
C53   H39   S    
Cr5   O8    S    
C15   C17   A    
C50   H27   S    
C59   H49   S    
Cr3   O22   S    
Cr4   O5    S    
C3    C5    A    
C4    O14   A    
C6    C7    A    
Cr2   O12   S    
C55   H44   S    
C20   H8    S    
C50   H26   S    
C54   H38   S    
C61   H53   S    
C14   H5    S    
Cr1   O22   S    
C2    C3    A    
C25   C26   A    
C63   H45   S    
C5    C16   S    
C32   C33   A    
C49   H29   S    
C57   H41   S    
C20   C26   A    
C18   H7    S    
C4    O15   A    
C38   O7    A    
C5    C62   A    
C22   C24   A    
C26   C42   S    
C19   C40   S    
C63   C64   A    
C9    H60   S    
C28   O19   A    
C20   C21   A    
C23   C36   S    
C14   C15   A    
C60   C61   S    
C21   C22   A    
C51   H33   S    
C47   H24   S    
C1    O4    A    
C47   C56   S    
C46   H16   S    
