data_mof_unit_20473.cif
_audit_creation_date              2012-10-26T19:03:01-0400
_audit_creation_method            fapswitch 2.2
_symmetry_space_group_name_H-M    P1
_symmetry_Int_Tables_number       1
_space_group_crystal_system       triclinic
_cell_length_a                    15.032137
_cell_length_b                    11.175332
_cell_length_c                    9.892931
_cell_angle_alpha                 111.257412
_cell_angle_beta                  98.979323
_cell_angle_gamma                 90.223337
_cell_volume                      1526.5430646

loop_
_atom_site_label
_atom_site_type_symbol
_atom_type_description
_atom_site_fract_x
_atom_site_fract_y
_atom_site_fract_z
_atom_type_partial_charge
C1    C     C_R   0.494477 0.255124 0.441745 0.533842
C2    C     C_2   0.484715 0.504480 0.921033 -0.006874
C3    C     C_R   0.329140 0.495203 0.499535 0.541000
C4    C     C_R   0.670864 0.504832 0.500479 0.542054
C5    C     C_R   0.810770 0.603304 0.462833 0.002994
C6    C     C_R   0.189227 0.396589 0.536965 0.000985
C7    C     C_R   0.767231 0.509545 0.499963 0.001670
C8    C     C_R   0.232791 0.490530 0.500144 0.003375
C9    C     C_R   0.815375 0.417161 0.538411 -0.150440
C10   C     C_R   0.184717 0.583286 0.462360 -0.145488
C11   C     C_R   0.907440 0.412513 0.537765 0.007643
C12   C     C_R   0.505100 0.744745 0.558441 0.532779
C13   C     C_R   0.092662 0.587965 0.463079 0.007728
C14   C     C_R   0.953129 0.503189 0.500358 0.043943
C15   C     C_R   0.046954 0.497176 0.500285 0.043741
C16   C     C_R   0.905346 0.599833 0.463540 0.032500
C17   C     C_R   0.094716 0.400419 0.536897 0.032542
C18   C     C_R   0.954094 0.317288 0.573351 -0.138880
C19   C     C_R   0.046047 0.683362 0.427808 -0.138815
C20   C     C_3   0.757463 0.708464 0.429513 -0.281354
C21   C     C_3   0.768541 0.833236 0.564304 -0.443635
C22   C     C_3   0.242427 0.290970 0.569456 -0.283188
C23   C     C_R   0.046258 0.310830 0.572599 -0.135293
C24   C     C_3   0.230176 0.165950 0.434860 -0.441065
C25   C     C_3   0.610695 0.648065 0.968349 -0.115327
C26   C     C_3   0.684300 0.693963 0.905105 -0.352234
C27   C     C_3   0.389947 0.350484 0.032320 -0.112282
C28   C     C_3   0.357837 0.244375 0.079386 -0.352173
C29   C     C_R   0.953862 0.689703 0.428349 -0.135419
C30   C     C_2   0.484873 0.118327 0.412782 -0.101982
C31   C     C_2   0.514268 0.881483 0.588616 -0.100112
C32   C     C_2   0.509723 0.068573 0.518045 0.101143
C33   C     C_2   0.484352 0.933084 0.486963 0.100354
C34   C     C_2   0.498360 0.521071 0.085509 -0.006729
Cu1   Cu    Cu3+1 0.515770 0.521810 0.644910 0.915231
Cu2   Cu    Cu3+1 0.484230 0.478190 0.355090 0.917430
H1    H     H_    0.780159 0.346904 0.566866 0.108356
H2    H     H_    0.543985 0.597990 0.165510 0.118594
H3    H     H_    0.742413 0.817051 0.655702 0.147438
H4    H     H_    0.840464 0.869142 0.601425 0.151898
H5    H     H_    0.729518 0.907906 0.536755 0.144063
H6    H     H_    0.777421 0.725128 0.334163 0.123515
H7    H     H_    0.684405 0.681331 0.394749 0.166294
H8    H     H_    0.158056 0.130875 0.398798 0.151496
H9    H     H_    0.255965 0.181381 0.342776 0.147797
H10   H     H_    0.268920 0.090932 0.462144 0.148729
H11   H     H_    0.315648 0.317261 0.602513 0.165185
H12   H     H_    0.219968 0.653732 0.434238 0.108098
H13   H     H_    0.223134 0.274891 0.665563 0.122767
H14   H     H_    0.371881 0.813609 0.372315 0.244999
H15   H     H_    0.461149 0.797146 0.278117 0.246680
H16   H     H_    0.619617 0.189220 0.644201 0.247536
H17   H     H_    0.524229 0.206967 0.725624 0.253765
H18   H     H_    0.728910 0.615479 0.860355 0.164096
H19   H     H_    0.657473 0.736997 0.824266 0.187688
H20   H     H_    0.727943 0.771012 0.996404 0.078352
H21   H     H_    0.578906 0.734450 0.035480 0.110099
H22   H     H_    0.648821 0.604132 0.042394 0.101819
H23   H     H_    0.919042 0.246940 0.601567 0.106524
H24   H     H_    0.412479 0.179200 0.085712 0.160387
H25   H     H_    0.329471 0.281725 0.181900 0.188721
H26   H     H_    0.302350 0.184434 0.992837 0.080266
H27   H     H_    0.330256 0.401564 0.005889 0.114279
H28   H     H_    0.415897 0.295934 0.929387 0.094589
H29   H     H_    0.081136 0.753888 0.399914 0.106644
H30   H     H_    0.078024 0.234373 0.600181 0.112362
H31   H     H_    0.922152 0.766342 0.401091 0.112067
H32   H     H_    0.551726 0.940207 0.695838 0.120395
H33   H     H_    0.451553 0.057776 0.303239 0.114281
H34   H     H_    0.427551 0.445425 0.845738 0.122635
N1    N     N_2   0.460520 0.445420 0.137370 -0.215521
N2    N     N_2   0.539480 0.554580 0.862630 -0.216587
N3    N     N_3   0.424816 0.861676 0.351310 -0.658722
N4    N     N_3   0.563664 0.142146 0.658761 -0.657510
O1    O     O_R   0.508410 0.332340 0.577400 -0.504705
O2    O     O_R   0.491590 0.667660 0.422600 -0.511405
O3    O     O_R   0.481780 0.295500 0.332650 -0.506011
O4    O     O_R   0.518220 0.704500 0.667350 -0.503437
O5    O     O_R   0.383570 0.518390 0.622380 -0.508011
O6    O     O_R   0.616430 0.481610 0.377620 -0.498836
O7    O     O_R   0.356940 0.481550 0.377630 -0.503957
O8    O     O_R   0.643060 0.518450 0.622370 -0.507376

loop_
_geom_bond_atom_site_label_1
_geom_bond_atom_site_label_2
_ccdc_geom_bond_type
C11   C18   A    
C1    O3    A    
Cu1   Cu2   S    
C3    O5    A    
C26   H19   S    
C20   H7    S    
C5    C20   S    
Cu1   O1    S    
C17   C23   A    
C24   H9    S    
C23   H30   S    
C4    O6    A    
H16   N4    S    
Cu2   O3    S    
C32   N4    S    
C11   C14   A    
C6    C22   S    
C7    C9    A    
C5    C16   A    
Cu2   O2    S    
C29   H31   S    
H17   N4    S    
C12   O4    A    
C3    O7    A    
C31   C33   D    
Cu2   N1    S    
C28   H25   S    
C2    C34   S    
C22   H11   S    
C25   H21   S    
C4    C7    S    
C2    N2    D    
C26   H18   S    
Cu1   O8    S    
C28   H24   S    
C31   H32   S    
C13   C19   A    
C18   C23   A    
C1    O1    A    
C3    C8    S    
Cu2   O6    S    
H14   N3    S    
C5    C7    A    
C6    C8    A    
C16   C29   A    
C21   H3    S    
Cu2   O7    S    
C9    H1    S    
C25   N2    S    
C9    C11   A    
C27   H27   S    
C22   H13   S    
C21   H5    S    
C33   N3    S    
Cu1   N2    S    
C13   C15   A    
C12   C31   S    
C10   H12   S    
C24   H8    S    
C14   C16   A    
C25   H22   S    
C19   C29   A    
C30   H33   S    
C27   N1    S    
C15   C17   A    
C6    C17   A    
C34   H2    S    
H15   N3    S    
C10   C13   A    
C26   H20   S    
C20   H6    S    
Cu1   O4    S    
C24   H10   S    
C32   C33   S    
C12   O2    A    
C25   C26   S    
C30   C32   D    
C21   H4    S    
Cu1   O5    S    
C1    C30   S    
C19   H29   S    
C22   C24   S    
C27   H28   S    
C18   H23   S    
C4    O8    A    
C20   C21   S    
C8    C10   A    
C27   C28   S    
C14   C15   A    
C2    H34   S    
C34   N1    D    
C28   H26   S    
