data_mof_unit_11861.cif
_audit_creation_date              2012-12-10T17:12:42-0500
_audit_creation_method            fapswitch 2.2
_symmetry_space_group_name_H-M    P1
_symmetry_Int_Tables_number       1
_space_group_crystal_system       triclinic
_cell_length_a                    23.373408
_cell_length_b                    10.726938
_cell_length_c                    10.026555
_cell_angle_alpha                 90.729772
_cell_angle_beta                  89.818627
_cell_angle_gamma                 90.210998
_cell_volume                      2513.6758065

loop_
_atom_site_label
_atom_site_type_symbol
_atom_type_description
_atom_site_fract_x
_atom_site_fract_y
_atom_site_fract_z
_atom_type_partial_charge
C1    C     C_R   0.500683 0.262675 0.499188 0.937510
C2    C     C_R   0.969436 0.388804 0.294409 -0.157020
C3    C     C_R   0.028965 0.387691 0.292732 -0.160976
C4    C     C_R   0.059923 0.459683 0.385589 -0.015343
C5    C     C_R   0.030704 0.535574 0.478958 -0.020712
C6    C     C_R   0.061426 0.608090 0.572691 -0.017597
C7    C     C_R   0.031922 0.684589 0.664110 -0.163117
C8    C     C_R   0.972360 0.687441 0.664092 -0.156009
C9    C     C_R   0.119569 0.455901 0.389748 0.489333
C10   C     C_R   0.121053 0.600151 0.573746 0.508492
C11   C     C_R   0.242170 0.597909 0.425362 -0.129910
C12   C     C_R   0.389576 0.496481 0.500262 0.890249
C13   C     C_R   0.300950 0.590572 0.428966 -0.263672
C14   C     C_R   0.327478 0.496188 0.500251 -0.081951
C15   C     C_R   0.294892 0.404697 0.568453 0.118207
C16   C     C_R   0.234230 0.413272 0.565333 0.182429
C17   C     C_R   0.208940 0.511054 0.492700 0.264629
C18   C     C_R   0.764006 0.487672 0.606751 -0.094254
C19   C     C_R   0.704690 0.478569 0.610130 -0.222918
C20   C     C_R   0.672751 0.511513 0.497938 -0.041955
C21   C     C_R   0.700481 0.556315 0.383732 -0.211410
C22   C     C_R   0.759591 0.567180 0.381372 -0.091972
C23   C     C_R   0.497836 0.737323 0.500656 0.936507
C24   C     C_R   0.791509 0.531603 0.492177 0.304814
C25   C     C_2   0.490721 0.931918 0.388344 -0.147589
C26   C     C_2   0.489967 0.868598 0.502215 -0.340176
C27   C     C_2   0.487657 0.066092 0.389906 -0.163462
C28   C     C_2   0.503967 0.130884 0.497677 -0.325687
C29   C     C_2   0.531267 0.576051 0.927563 0.163313
C30   C     C_2   0.539107 0.553269 0.075170 -0.130656
C31   C     C_R   0.610628 0.501882 0.499663 0.872759
C32   C     C_R   0.881541 0.611717 0.573762 0.504324
C33   C     C_R   0.880252 0.462287 0.394542 0.504908
C34   C     C_R   0.939919 0.462734 0.388253 -0.013513
C35   C     C_R   0.970603 0.537684 0.479703 -0.022157
C36   C     C_R   0.941332 0.613320 0.573131 -0.013833
H1    H     H_    0.946687 0.330993 0.222677 0.192904
H2    H     H_    0.683942 0.444073 0.699165 0.164840
H3    H     H_    0.676504 0.583940 0.296728 0.155386
H4    H     H_    0.780755 0.601931 0.293004 0.150728
H5    H     H_    0.494283 0.885521 0.291703 0.174793
H6    H     H_    0.482036 0.912057 0.598717 0.147929
H7    H     H_    0.473360 0.111781 0.299855 0.172220
H8    H     H_    0.521014 0.088415 0.586578 0.151257
H9    H     H_    0.485071 0.421934 0.896290 0.148251
H10   H     H_    0.576624 0.589613 0.125615 0.178477
H11   H     H_    0.050569 0.328948 0.219920 0.190977
H12   H     H_    0.462958 0.476647 0.101459 0.163457
H13   H     H_    0.054692 0.741492 0.736624 0.191471
H14   H     H_    0.950761 0.746598 0.736517 0.192691
H15   H     H_    0.222026 0.671803 0.370026 0.156062
H16   H     H_    0.326053 0.659851 0.376726 0.165379
H17   H     H_    0.788692 0.459364 0.692345 0.151846
N1    N     N_R   0.852472 0.535861 0.486406 -0.357017
N2    N     N_R   0.148400 0.522906 0.485088 -0.351031
N3    N     N_2   0.500610 0.501330 0.852150 -0.225301
N4    N     N_2   0.500630 0.501360 0.147810 -0.213465
O1    O     O_R   0.499990 0.319060 0.613040 -0.618296
O2    O     O_2   0.850126 0.387518 0.311027 -0.557993
O3    O     O_2   0.148686 0.384276 0.301322 -0.562442
O4    O     O_2   0.151576 0.667782 0.663107 -0.565167
O5    O     O_R   0.500010 0.319100 0.386900 -0.607849
O6    O     O_R   0.416150 0.499940 0.613100 -0.617082
O7    O     O_R   0.416160 0.499980 0.386960 -0.615272
O8    O     O_R   0.499990 0.680900 0.613100 -0.641881
O9    O     O_R   0.500010 0.680940 0.386960 -0.609108
O10   O     O_R   0.583840 0.500020 0.613040 -0.632718
O11   O     O_R   0.583850 0.500060 0.386900 -0.614381
O12   O     O_2   0.852575 0.685273 0.660610 -0.558438
Zn1   Zn    Zn3+2 0.499990 0.499970 0.650990 0.925951
Zn2   Zn    Zn3+2 0.500010 0.500030 0.349010 0.944439
C37   C     C_3   0.558550 0.690979 0.866470 -0.304315
C38   C     C_3   0.597757 0.767544 0.958281 -0.961808
H18   H     H_    0.573900 0.801832 0.047397 0.265502
H19   H     H_    0.635118 0.711215 0.989157 0.266711
H20   H     H_    0.614080 0.849852 0.903659 0.269198
H21   H     H_    0.584360 0.663586 0.778452 0.248365
H22   H     H_    0.523708 0.753949 0.834927 0.219270
C39   C     C_3   0.324823 0.295166 0.634192 -0.438790
C40   C     C_3   0.342918 0.197605 0.530309 -0.842839
H23   H     H_    0.304745 0.159946 0.477576 0.266137
H24   H     H_    0.372647 0.238579 0.456161 0.252674
H25   H     H_    0.365052 0.119632 0.580240 0.254050
H26   H     H_    0.362610 0.326601 0.691838 0.229546
H27   H     H_    0.297858 0.248737 0.709574 0.219551
C41   C     C_3   0.196139 0.320090 0.637225 -0.428800
C42   C     C_3   0.189995 0.354196 0.784959 -0.813327
H28   H     H_    0.232345 0.361815 0.834104 0.256039
H29   H     H_    0.167481 0.444628 0.796574 0.287945
H30   H     H_    0.164481 0.281352 0.835977 0.256332
H31   H     H_    0.152614 0.315949 0.593926 0.217219
H32   H     H_    0.212509 0.223736 0.624484 0.218134

loop_
_geom_bond_atom_site_label_1
_geom_bond_atom_site_label_2
_ccdc_geom_bond_type
C42   H28   S    
C38   H18   S    
C19   C20   A    
C1    O5    A    
C7    C8    A    
C31   O10   A    
C29   C30   S    
C18   C24   A    
C32   C36   A    
C23   O9    A    
C34   C35   A    
C41   H31   S    
C5    C6    A    
C12   O7    A    
C23   C26   S    
C24   N1    S    
O8    Zn1   S    
C30   N4    D    
C18   C19   A    
C8    C36   A    
O7    Zn2   S    
C37   H22   S    
C18   H17   S    
C15   C39   S    
C35   C36   A    
H9    N3    S    
C16   C17   A    
C1    C28   S    
C9    N2    A    
C17   N2    S    
C37   C38   S    
C29   C37   S    
C2    C34   A    
C33   O2    S    
C13   C14   A    
C16   C41   S    
C38   H19   S    
C40   H25   S    
C32   N1    A    
C31   O11   A    
H12   N4    S    
C7    H13   S    
C40   H24   S    
C25   H5    S    
C12   O6    A    
C41   C42   S    
O1    Zn1   S    
C25   C26   D    
C28   H8    S    
C37   H21   S    
C19   H2    S    
C13   H16   S    
O9    Zn2   S    
C21   H3    S    
O6    Zn1   S    
C22   H4    S    
C33   C34   A    
N4    Zn2   S    
C10   N2    A    
C32   O12   S    
C12   C14   S    
N3    Zn1   S    
C42   H29   S    
C38   H20   S    
C22   C24   A    
C10   O4    S    
C3    C4    A    
C8    H14   S    
C39   H27   S    
C26   H6    S    
C33   N1    A    
C11   C17   A    
C30   H10   S    
C40   H23   S    
C6    C10   A    
C6    C7    A    
C29   N3    D    
C25   C27   S    
O10   Zn1   S    
C9    O3    S    
C2    C3    A    
C41   H32   S    
C1    O1    A    
C11   C13   A    
C2    H1    S    
C23   O8    A    
C39   H26   S    
O11   Zn2   S    
C5    C35   A    
C3    H11   S    
O5    Zn2   S    
C11   H15   S    
C39   C40   S    
C27   H7    S    
C4    C5    A    
C20   C21   A    
C42   H30   S    
C27   C28   D    
C14   C15   A    
C4    C9    A    
C21   C22   A    
C15   C16   A    
C20   C31   S    
