data_mof_unit_46422.cif
_audit_creation_date              2012-12-11T16:44:23-0500
_audit_creation_method            fapswitch 2.2
_symmetry_space_group_name_H-M    P1
_symmetry_Int_Tables_number       1
_space_group_crystal_system       triclinic
_cell_length_a                    27.271298
_cell_length_b                    7.197645
_cell_length_c                    22.776548
_cell_angle_alpha                 89.993124
_cell_angle_beta                  101.310496
_cell_angle_gamma                 89.995583
_cell_volume                      4383.96022987

loop_
_atom_site_label
_atom_site_type_symbol
_atom_type_description
_atom_site_fract_x
_atom_site_fract_y
_atom_site_fract_z
_atom_type_partial_charge
O1    O     O_R   0.707300 0.594030 0.176840 -0.531621
O2    O     O_R   0.292700 0.405970 0.823160 -0.531621
O3    O     O_R   0.792700 0.094030 0.323160 -0.531496
O4    O     O_R   0.207300 0.905970 0.676840 -0.531496
O5    O     O_R   0.697330 0.262360 0.295660 -0.541520
O6    O     O_R   0.302670 0.737640 0.704340 -0.541520
O7    O     O_R   0.802670 0.762360 0.204340 -0.541567
O8    O     O_R   0.197330 0.237640 0.795660 -0.541567
C1    C     C_R   0.684372 0.432796 0.311238 0.776099
C2    C     C_R   0.315628 0.567203 0.688762 0.776100
C3    C     C_R   0.815627 0.932801 0.188759 0.775994
C4    C     C_R   0.184373 0.067199 0.811241 0.775994
O9    O     O_R   0.701410 0.264250 0.175600 -0.544654
O10   O     O_R   0.298590 0.735750 0.824400 -0.544654
O11   O     O_R   0.798590 0.764250 0.324400 -0.544751
O12   O     O_R   0.201410 0.235750 0.675600 -0.544752
O13   O     O_R   0.796800 0.094950 0.202240 -0.505391
O14   O     O_R   0.203200 0.905050 0.797760 -0.505390
O15   O     O_R   0.703200 0.594950 0.297760 -0.505537
O16   O     O_R   0.296800 0.405050 0.702240 -0.505538
C5    C     C_R   0.689724 0.432621 0.153555 0.760395
C6    C     C_R   0.310276 0.567379 0.846445 0.760395
C7    C     C_R   0.810278 0.932587 0.346447 0.760085
C8    C     C_R   0.189722 0.067413 0.653553 0.760085
O17   O     O_3   0.781290 0.427390 0.258880 -0.362932
O18   O     O_3   0.218710 0.572610 0.741120 -0.362932
O19   O     O_3   0.718710 0.927390 0.241120 -0.363002
O20   O     O_3   0.281290 0.072610 0.758880 -0.363002
V1    V     V_3+5 0.744190 0.152150 0.248350 1.613935
V2    V     V_3+5 0.255810 0.847850 0.751650 1.613935
V3    V     V_3+5 0.755810 0.652150 0.251650 1.613622
V4    V     V_3+5 0.244190 0.347850 0.748350 1.613622
C9    C     C_R   0.154407 0.061762 0.595537 -0.179184
C10   C     C_R   0.845593 0.938238 0.404463 -0.179184
C11   C     C_R   0.345586 0.561552 0.904459 -0.179254
C12   C     C_R   0.654413 0.438447 0.095541 -0.179254
C13   C     C_R   0.139905 0.094204 0.488054 -0.096538
C14   C     C_R   0.860094 0.905796 0.511946 -0.096538
C15   C     C_R   0.359999 0.591986 0.011993 -0.096418
C16   C     C_R   0.640001 0.408013 0.988007 -0.096418
C17   C     C_R   0.171834 0.105418 0.543590 -0.261310
C18   C     C_R   0.828166 0.894581 0.456410 -0.261310
C19   C     C_R   0.328087 0.603832 0.956459 -0.261465
C20   C     C_R   0.671913 0.396167 0.043541 -0.261465
C21   C     C_R   0.103552 0.017393 0.591963 0.675606
C22   C     C_R   0.896448 0.982607 0.408037 0.675606
C23   C     C_R   0.396483 0.517929 0.907995 0.675770
C24   C     C_R   0.603517 0.482071 0.092005 0.675770
C25   C     C_R   0.068759 0.029619 0.536172 -0.024033
C26   C     C_R   0.931241 0.970381 0.463828 -0.024033
C27   C     C_R   0.431236 0.529481 0.963830 -0.024060
C28   C     C_R   0.568764 0.470519 0.036170 -0.024060
C29   C     C_R   0.089075 0.052584 0.483861 -0.047015
C30   C     C_R   0.910925 0.947416 0.516138 -0.047015
C31   C     C_R   0.410867 0.551039 0.016155 -0.047058
C32   C     C_R   0.589133 0.448961 0.983845 -0.047058
C33   C     C_R   0.015276 0.011853 0.529406 -0.146835
C34   C     C_R   0.984724 0.988146 0.470594 -0.146835
C35   C     C_R   0.484733 0.512281 0.970608 -0.146787
C36   C     C_R   0.515267 0.487719 0.029392 -0.146787
C37   C     C_R   0.009197 0.976098 0.421368 0.746583
C38   C     C_R   0.990803 0.023902 0.578632 0.746583
C39   C     C_R   0.490768 0.474305 0.078566 0.746671
C40   C     C_R   0.509231 0.525695 0.921434 0.746671
C41   C     C_R   0.059395 0.021872 0.427600 -0.220253
C42   C     C_R   0.940605 0.978128 0.572400 -0.220253
C43   C     C_R   0.440537 0.519536 0.072376 -0.220120
C44   C     C_R   0.559463 0.480464 0.927624 -0.220120
H1    H     H_    0.076038 0.021297 0.388093 0.169676
H2    H     H_    0.923962 0.978703 0.611907 0.169676
H3    H     H_    0.423866 0.517881 0.111860 0.169669
H4    H     H_    0.576134 0.482119 0.888140 0.169669
H5    H     H_    0.789168 0.859944 0.454133 0.145317
H6    H     H_    0.210832 0.140056 0.545867 0.145317
H7    H     H_    0.710949 0.362181 0.045789 0.145424
H8    H     H_    0.289051 0.637819 0.954211 0.145424
H9    H     H_    0.155113 0.116715 0.448087 0.149180
H10   H     H_    0.844887 0.883285 0.551913 0.149180
H11   H     H_    0.344746 0.613402 0.051981 0.149231
H12   H     H_    0.655254 0.386598 0.948019 0.149231
C45   C     C_R   0.880753 0.113491 0.146981 0.546799
C46   C     C_R   0.119247 0.886509 0.853018 0.546799
C47   C     C_R   0.619154 0.613354 0.352881 0.546820
C48   C     C_R   0.380846 0.386646 0.647119 0.546820
C49   C     C_R   0.916288 0.126231 0.110339 0.648023
C50   C     C_R   0.083712 0.873769 0.889661 0.648024
C51   C     C_R   0.583614 0.626109 0.389519 0.648041
C52   C     C_R   0.416386 0.373891 0.610480 0.648041
C53   C     C_R   0.927144 0.971793 0.077302 -0.068169
C54   C     C_R   0.072856 0.028206 0.922697 -0.068169
C55   C     C_R   0.572850 0.471803 0.422683 -0.068180
C56   C     C_R   0.427150 0.528197 0.577317 -0.068180
C57   C     C_R   0.902823 0.802593 0.083297 -0.165257
C58   C     C_R   0.097177 0.197406 0.916703 -0.165258
C59   C     C_R   0.597262 0.302702 0.416812 -0.165267
C60   C     C_R   0.402738 0.697298 0.583188 -0.165267
H13   H     H_    0.910729 0.681126 0.058653 0.227732
H14   H     H_    0.089271 0.318874 0.941347 0.227732
H15   H     H_    0.589427 0.181330 0.441552 0.227512
H16   H     H_    0.410573 0.818670 0.558447 0.227512
C61   C     C_R   0.867275 0.789283 0.120035 -0.188541
C62   C     C_R   0.132725 0.210716 0.879965 -0.188541
C63   C     C_R   0.632809 0.289375 0.380073 -0.188561
C64   C     C_R   0.367191 0.710625 0.619927 -0.188561
H17   H     H_    0.848632 0.657564 0.122652 0.210924
H18   H     H_    0.151368 0.342436 0.877347 0.210924
H19   H     H_    0.651523 0.157745 0.377551 0.210406
H20   H     H_    0.348477 0.842255 0.622449 0.210406
C65   C     C_R   0.855158 0.944962 0.151811 -0.263377
C66   C     C_R   0.144842 0.055038 0.848189 -0.263377
C67   C     C_R   0.644838 0.444942 0.348179 -0.263255
C68   C     C_R   0.355162 0.555058 0.651821 -0.263255
C69   C     C_R   0.003254 0.856500 0.041954 -0.291890
C70   C     C_R   0.996746 0.143500 0.958046 -0.291890
C71   C     C_R   0.496840 0.356175 0.458183 -0.291762
C72   C     C_R   0.503160 0.643825 0.541817 -0.291762
H21   H     H_    0.006695 0.745952 0.074786 0.211212
H22   H     H_    0.993304 0.254048 0.925214 0.211212
H23   H     H_    0.493469 0.245359 0.425457 0.211378
H24   H     H_    0.506531 0.754641 0.574543 0.211378
C73   C     C_R   0.038881 0.870335 0.005411 0.719692
C74   C     C_R   0.961119 0.129665 0.994589 0.719692
C75   C     C_R   0.461220 0.369979 0.494735 0.719588
C76   C     C_R   0.538780 0.630021 0.505264 0.719588
C77   C     C_R   0.035825 0.013820 0.962720 -0.066007
C78   C     C_R   0.964175 0.986180 0.037280 -0.066007
C79   C     C_R   0.464181 0.513795 0.537291 -0.066065
C80   C     C_R   0.535819 0.486205 0.462709 -0.066065
F1    F     F_    0.077096 0.746266 0.012969 -0.639595
F2    F     F_    0.922903 0.253734 0.987031 -0.639595
F3    F     F_    0.423099 0.245544 0.487312 -0.639713
F4    F     F_    0.576901 0.754456 0.512688 -0.639713
F5    F     F_    0.909454 0.055935 0.358404 -0.615819
F6    F     F_    0.090546 0.944065 0.641596 -0.615818
F7    F     F_    0.590425 0.554224 0.141745 -0.615774
F8    F     F_    0.409575 0.445775 0.858255 -0.615774
F9    F     F_    0.986836 0.903319 0.367952 -0.601743
F10   F     F_    0.013163 0.096681 0.632048 -0.601743
F11   F     F_    0.513148 0.400690 0.131855 -0.601676
F12   F     F_    0.486852 0.599310 0.868145 -0.601676
F13   F     F_    0.872290 0.266417 0.178465 -0.622247
F14   F     F_    0.127710 0.733582 0.821534 -0.622248
F15   F     F_    0.627530 0.766129 0.321270 -0.621901
F16   F     F_    0.372470 0.233871 0.678730 -0.621901
F17   F     F_    0.941063 0.289099 0.108396 -0.617079
F18   F     F_    0.058937 0.710901 0.891604 -0.617079
F19   F     F_    0.558745 0.788844 0.391331 -0.616707
F20   F     F_    0.441255 0.211156 0.608669 -0.616707

loop_
_geom_bond_atom_site_label_1
_geom_bond_atom_site_label_2
_ccdc_geom_bond_type
O17   V3    S    
C47   C51   A    
C25   C29   A    
O1    C5    A    
C51   C55   A    
C23   F8    S    
C3    C65   S    
C9    C21   A    
C24   F7    S    
O3    C7    A    
C1    C67   S    
C10   C18   A    
O1    V3    S    
C46   F14   S    
O15   V3    S    
C4    C66   S    
C25   C33   A    
C33   C38   A    
C5    C12   S    
O7    C3    A    
C6    C11   S    
C21   F6    S    
C48   C68   A    
C51   F19   S    
C36   C39   A    
C46   C66   A    
O9    V1    S    
C49   F17   S    
C14   C18   A    
C40   F12   S    
O4    C8    A    
C59   H15   S    
O19   V1    S    
C58   H14   S    
C61   C65   A    
C56   C60   A    
O13   V1    S    
C31   C43   A    
C76   F4    S    
O2    V4    S    
O3    V1    S    
C28   C36   A    
C17   H6    S    
C1    O15   A    
C15   C31   A    
C52   C56   A    
C2    O16   A    
C16   C32   A    
C72   C79   A    
O2    C6    A    
C16   H12   S    
C2    C68   S    
C10   C22   A    
C11   C19   A    
C16   C20   A    
C43   H3    S    
C44   H4    S    
C76   C80   A    
C13   C29   A    
C34   C37   A    
C45   F13   S    
C11   C23   A    
C35   C36   A    
O12   C8    A    
C53   C57   A    
O10   V2    S    
C50   F18   S    
C59   C63   A    
C54   C58   A    
O5    V1    S    
C53   C78   S    
C61   H17   S    
C39   C43   A    
O7    V3    S    
C55   C80   S    
C38   C42   A    
C26   C34   A    
C71   C75   A    
C50   C54   A    
C57   C61   A    
C64   C68   A    
C70   C77   A    
C49   C53   A    
O18   V4    S    
C15   C19   A    
C69   C78   A    
C14   H10   S    
C46   C50   A    
C13   H9    S    
C71   C80   A    
C72   H24   S    
O8    V4    S    
C74   C78   A    
C20   H7    S    
C73   C77   A    
C37   C41   A    
C57   H13   S    
C75   C79   A    
C14   C30   A    
C21   C25   A    
O8    C4    A    
C7    C10   S    
C52   F20   S    
O9    C5    A    
C26   C30   A    
C38   F10   S    
C70   H22   S    
C69   H21   S    
O6    V2    S    
C45   C65   A    
C71   H23   S    
C60   C64   A    
O14   V2    S    
C47   C67   A    
C12   C20   A    
C27   C35   A    
C56   C79   S    
C40   C44   A    
C64   H20   S    
C29   C41   A    
O16   V4    S    
C19   H8    S    
C3    O13   A    
C18   H5    S    
C72   C76   A    
C75   F3    S    
C39   F11   S    
C48   C52   A    
C73   F1    S    
O6    C2    A    
C23   C27   A    
O11   V3    S    
C30   C42   A    
C63   C67   A    
O12   V4    S    
C22   C26   A    
C8    C9    S    
C9    C17   A    
O10   C6    A    
O20   V2    S    
C32   C44   A    
C22   F5    S    
C47   F15   S    
C37   F9    S    
C33   C34   A    
C42   H2    S    
C41   H1    S    
C60   H16   S    
O11   C7    A    
C54   C77   S    
C12   C24   A    
C27   C31   A    
C13   C17   A    
O4    V2    S    
C62   C66   A    
C55   C59   A    
C70   C74   A    
C35   C40   A    
C24   C28   A    
C69   C73   A    
C58   C62   A    
C62   H18   S    
C4    O14   A    
C48   F16   S    
C63   H19   S    
O5    C1    A    
C74   F2    S    
C45   C49   A    
C28   C32   A    
C15   H11   S    
