data_mof_unit_31389.cif
_audit_creation_date              2013-03-05T16:01:59-0500
_audit_creation_method            fapswitch 2.2
_symmetry_space_group_name_H-M    P1
_symmetry_Int_Tables_number       1
_space_group_crystal_system       triclinic
_cell_length_a                    14.954134
_cell_length_b                    14.191876
_cell_length_c                    14.123972
_cell_angle_alpha                 90.000082
_cell_angle_beta                  88.576023
_cell_angle_gamma                 89.999878
_cell_volume                      2996.56555669

loop_
_atom_site_label
_atom_site_type_symbol
_atom_site_description
_atom_site_fract_x
_atom_site_fract_y
_atom_site_fract_z
_atom_type_partial_charge
O1    O     O_R   0.367850 0.580280 0.500020 -0.586032
O2    O     O_R   0.632150 0.419720 0.499980 -0.562650
O3    O     O_R   0.632150 0.580280 0.499980 -0.586032
O4    O     O_R   0.367850 0.419720 0.500020 -0.562649
C1    C     C_R   0.327356 0.499812 0.501995 0.993707
C2    C     C_R   0.672644 0.499812 0.498005 0.993711
O5    O     O_R   0.500000 0.580290 0.373720 -0.584929
O6    O     O_R   0.500000 0.419710 0.626280 -0.570521
O7    O     O_R   0.500000 0.580290 0.626280 -0.584929
O8    O     O_R   0.500000 0.419710 0.373720 -0.570521
C3    C     C_R   0.499967 0.500027 0.329365 0.951308
C4    C     C_R   0.500032 0.500027 0.670635 0.951310
Zn1   Zn    Zn3+2 0.500000 0.607200 0.500000 1.104139
Zn2   Zn    Zn3+2 0.500000 0.392800 0.500000 1.125154
C5    C     C_1   0.499954 0.500107 0.227877 0.027971
C6    C     C_1   0.500046 0.500107 0.772123 0.027971
C7    C     C_1   0.499981 0.500170 0.142572 0.095677
C8    C     C_1   0.500019 0.500170 0.857428 0.095678
C9    C     C_1   0.499998 0.500212 0.042659 0.083544
C10   C     C_1   0.500002 0.500212 0.957341 0.083545
C11   C     C_R   0.815705 0.498784 0.411006 0.288862
C12   C     C_R   0.184295 0.498787 0.588994 0.288858
C13   C     C_R   0.768055 0.497857 0.497584 -0.274658
C14   C     C_R   0.231945 0.497858 0.502416 -0.274659
C15   C     C_R   0.810236 0.491237 0.584217 0.263427
C16   C     C_R   0.189764 0.491235 0.415783 0.263429
C17   C     C_R   0.903385 0.488242 0.585305 -0.001739
C18   C     C_R   0.096615 0.488240 0.414696 -0.001742
C19   C     C_R   0.953188 0.490014 0.498922 -0.034458
C20   C     C_R   0.046811 0.490014 0.501078 -0.034459
C21   C     C_R   0.909337 0.490367 0.410592 -0.051903
C22   C     C_R   0.090663 0.490370 0.589409 -0.051900
C23   C     C_R   0.946959 0.478592 0.671233 -0.242432
C24   C     C_R   0.053040 0.478588 0.328767 -0.242422
C25   C     C_R   0.040302 0.479956 0.675137 0.512312
C26   C     C_R   0.959698 0.479951 0.324864 0.512303
H1    H     H_    0.907974 0.466550 0.735390 0.189417
H2    H     H_    0.092025 0.466543 0.264611 0.189421
C27   C     C_R   0.546338 0.798351 0.430703 0.356094
C28   C     C_R   0.444043 0.202351 0.561370 0.351740
C29   C     C_R   0.453662 0.798351 0.569297 0.356096
C30   C     C_R   0.555957 0.202351 0.438629 0.351739
N1    N     N_R   0.500000 0.750030 0.500000 -0.205549
N2    N     N_R   0.500000 0.249970 0.500000 -0.206740
C31   C     C_R   0.447019 0.898926 0.566918 -0.190250
C32   C     C_R   0.556165 0.101389 0.435230 -0.191388
C33   C     C_R   0.552981 0.898926 0.433081 -0.190251
C34   C     C_R   0.443835 0.101390 0.564770 -0.191387
C35   C     C_R   0.500000 0.949691 0.500000 0.001341
C36   C     C_R   0.500000 0.050870 0.500000 0.006398
C37   C     C_R   0.389439 0.949987 0.629531 0.237351
C38   C     C_R   0.611420 0.049108 0.370587 0.231411
C39   C     C_R   0.610561 0.949986 0.370468 0.237350
C40   C     C_R   0.388580 0.049109 0.629413 0.231410
N3    N     N_R   0.768973 0.515344 0.324995 0.243254
O9    O     O_R   0.709804 0.455458 0.296051 -0.331449
O10   O     O_R   0.785736 0.590895 0.275541 -0.313382
N4    N     N_R   0.231027 0.515348 0.675004 0.243260
O11   O     O_R   0.290195 0.455462 0.703950 -0.331446
O12   O     O_R   0.214264 0.590900 0.724458 -0.313370
N5    N     N_R   0.757863 0.490582 0.670938 0.177426
O13   O     O_R   0.758989 0.562977 0.727397 -0.376896
O14   O     O_R   0.708998 0.417705 0.693291 -0.379064
N6    N     N_R   0.242137 0.490578 0.329062 0.177426
O15   O     O_R   0.241011 0.562972 0.272603 -0.376898
O16   O     O_R   0.291000 0.417700 0.306710 -0.379058
O17   O     O_3   0.083461 0.456464 0.758375 -0.551048
C41   C     C_3   0.047507 0.504982 0.838223 0.119735
H3    H     H_    0.985235 0.470086 0.864593 0.138819
H4    H     H_    0.033991 0.580465 0.821921 0.170680
C42   C     C_3   0.113885 0.500831 0.918148 -0.623736
H5    H     H_    0.178230 0.534035 0.896022 0.299052
H6    H     H_    0.086398 0.539124 0.980935 0.177436
H7    H     H_    0.126365 0.426365 0.938152 0.264132
O18   O     O_3   0.916540 0.456454 0.241627 -0.551049
C43   C     C_3   0.952487 0.504979 0.161779 0.119746
H8    H     H_    0.014766 0.470095 0.135409 0.138808
H9    H     H_    0.965988 0.580466 0.178082 0.170687
C44   C     C_3   0.886110 0.500814 0.081853 -0.623716
H10   H     H_    0.821754 0.533999 0.103981 0.299053
H11   H     H_    0.913589 0.539118 0.019068 0.177439
H12   H     H_    0.873649 0.426342 0.061845 0.264122
N7    N     N_R   0.583334 0.746699 0.352524 0.236848
O19   O     O_R   0.658981 0.702921 0.360411 -0.284866
O20   O     O_R   0.544661 0.749186 0.271055 -0.326105
N8    N     N_R   0.384576 0.256212 0.620637 0.245031
O21   O     O_R   0.408089 0.279682 0.705490 -0.298951
O22   O     O_R   0.302413 0.269338 0.595466 -0.300094
N9    N     N_R   0.416670 0.746701 0.647478 0.236847
O23   O     O_R   0.341025 0.702917 0.639593 -0.284864
O24   O     O_R   0.455342 0.749194 0.728947 -0.326106
N10   N     N_R   0.615422 0.256212 0.379362 0.245031
O25   O     O_R   0.591909 0.279679 0.294509 -0.298953
O26   O     O_R   0.697585 0.269340 0.404532 -0.300091
N11   N     N_R   0.324828 0.902592 0.689164 0.256287
O27   O     O_R   0.333451 0.903050 0.780599 -0.234597
O28   O     O_R   0.249312 0.876099 0.653919 -0.272429
N12   N     N_R   0.670541 0.094648 0.303665 0.258023
O29   O     O_R   0.755620 0.098376 0.320470 -0.249474
O30   O     O_R   0.644145 0.108192 0.217645 -0.248892
N13   N     N_R   0.675170 0.902591 0.310833 0.256288
O31   O     O_R   0.666541 0.903045 0.219398 -0.234599
O32   O     O_R   0.750690 0.876105 0.346073 -0.272424
N14   N     N_R   0.329460 0.094649 0.696336 0.258023
O33   O     O_R   0.244380 0.098375 0.679534 -0.249474
O34   O     O_R   0.355858 0.108196 0.782354 -0.248893

loop_
_geom_bond_atom_site_label_1
_geom_bond_atom_site_label_2
_geom_bond_distance
_ccdc_geom_bond_type
C29   N9    1.425584 S    
N3    O9    1.300131 A    
N13   O31   1.301054 A    
C17   C19   1.413754 A    
N11   O27   1.301055 A    
C43   C44   1.522756 S    
O3    C2    1.292588 A    
N14   O34   1.301027 A    
C11   N3    1.435812 S    
C33   C35   1.415226 A    
C17   C23   1.398437 A    
C34   C40   1.424565 A    
C11   C21   1.405142 A    
C12   C22   1.405144 A    
O1    C1    1.292588 A    
C40   N14   1.432203 S    
C43   H9    1.115251 S    
N8    O22   1.300944 A    
C31   C37   1.418012 A    
N4    O12   1.300645 A    
C32   C38   1.424564 A    
C28   C34   1.433634 A    
C30   C32   1.433634 A    
C28   N8    1.427859 S    
N5    O14   1.300715 A    
O7    Zn1   1.824005 S    
C16   N6    1.437369 S    
C23   C25   1.398450 A    
C3    C5    1.433413 S    
C4    C6    1.433413 S    
C39   N13   1.433497 S    
C41   H3    1.110820 S    
C38   N12   1.432204 S    
C25   O17   1.395545 S    
N9    O24   1.301080 A    
C28   N2    1.368289 A    
C30   N10   1.427859 S    
O3    Zn1   2.012770 S    
C33   C39   1.418013 A    
C34   C36   1.420618 A    
C18   C24   1.398438 A    
N13   O32   1.300908 A    
C29   N1    1.369192 A    
O2    C2    1.287875 A    
C30   N2    1.368288 A    
N14   O33   1.301105 A    
O17   C41   1.415955 S    
C22   C25   1.417668 A    
C43   H8    1.110835 S    
O8    Zn2   1.824006 S    
C44   H11   1.110240 S    
N8    O21   1.300702 A    
C27   N1    1.369193 A    
N4    O11   1.300130 A    
C27   C33   1.431254 A    
C23   H1    1.078852 S    
N6    O16   1.300714 A    
O5    C3    1.299993 A    
O18   C43   1.415963 S    
C19   C20   1.401138 A    
C26   O18   1.395542 S    
C42   H7    1.110922 S    
N7    O19   1.297836 A    
C31   C35   1.415225 A    
O6    C4    1.300675 A    
N10   O26   1.300944 A    
C15   N5    1.437368 S    
C6    C8    1.204833 T    
N7    O20   1.301080 A    
N12   O29   1.301104 A    
N12   O30   1.301025 A    
N3    O10   1.300645 A    
C12   C14   1.399975 A    
O1    Zn1   2.012773 S    
Zn1   N1    2.027026 S    
C38   C39   1.406786 A    
Zn2   N2    2.027027 S    
C5    C7    1.204833 T    
O6    Zn2   1.824003 S    
C24   H2    1.078851 S    
C14   C16   1.393659 A    
O4    C1    1.287875 A    
C12   N4    1.435812 S    
C44   H12   1.110955 S    
N11   O28   1.300908 A    
C15   C17   1.394074 A    
C32   C36   1.420615 A    
C16   C18   1.394073 A    
C37   C40   1.406786 A    
N6    O15   1.300929 A    
C9    C10   1.205018 T    
C11   C13   1.399976 A    
C27   N7    1.425583 S    
C42   H5    1.109343 S    
C19   C21   1.423784 A    
C20   C22   1.423785 A    
C1    C14   1.426916 S    
C41   C42   1.522752 S    
C2    C13   1.426914 S    
C18   C20   1.413754 A    
N10   O25   1.300701 A    
C7    C9    1.411169 S    
C24   C26   1.398447 A    
C8    C10   1.411169 S    
C13   C15   1.393659 A    
O4    Zn2   2.012771 S    
N5    O13   1.300933 A    
O2    Zn2   2.012772 S    
O7    C4    1.299994 A    
O8    C3    1.300675 A    
C44   H10   1.109376 S    
O5    Zn1   1.824005 S    
C41   H4    1.115237 S    
C35   C36   1.435916 A    
C42   H6    1.110221 S    
C29   C31   1.431254 A    
C21   C26   1.417668 A    
N9    O23   1.297836 A    
C37   N11   1.433497 S    
