data_mof_unit_29862.cif
_audit_creation_date              2012-12-10T21:11:37-0500
_audit_creation_method            fapswitch 2.2
_symmetry_space_group_name_H-M    P1
_symmetry_Int_Tables_number       1
_space_group_crystal_system       triclinic
_cell_length_a                    17.605069
_cell_length_b                    16.687696
_cell_length_c                    10.431584
_cell_angle_alpha                 89.99854
_cell_angle_beta                  90.730553
_cell_angle_gamma                 89.999003
_cell_volume                      3064.42549218

loop_
_atom_site_label
_atom_site_type_symbol
_atom_type_description
_atom_site_fract_x
_atom_site_fract_y
_atom_site_fract_z
_atom_type_partial_charge
C1    C     C_R   0.353162 0.500001 0.500882 0.880817
C2    C     C_R   0.464101 0.167615 0.597514 -0.274515
C3    C     C_R   0.464656 0.748039 0.595661 0.018323
C4    C     C_R   0.535381 0.251962 0.404379 0.018337
C5    C     C_R   0.535347 0.748040 0.404343 0.018322
C6    C     C_R   0.464617 0.251960 0.595618 0.018333
C7    C     C_R   0.500003 0.875574 0.500004 0.163777
C8    C     C_R   0.499998 0.124426 0.499996 0.163767
C9    C     C_1   0.500002 0.963398 0.500001 -0.049518
C10   C     C_1   0.500000 0.036603 0.499998 -0.049516
C11   C     C_R   0.485546 0.500001 0.259685 0.909252
C12   C     C_R   0.646836 0.500000 0.499082 0.880818
C13   C     C_R   0.514484 0.499999 0.740296 0.909283
C14   C     C_R   0.447546 0.647211 0.099530 0.050602
C15   C     C_R   0.552543 0.352798 0.900422 0.050639
C16   C     C_R   0.552558 0.647192 0.900399 0.050626
C17   C     C_R   0.447529 0.352801 0.099551 0.050625
C18   C     C_R   0.472593 0.719508 0.047280 -0.227170
C19   C     C_R   0.527501 0.280497 0.952663 -0.227102
C20   C     C_R   0.527517 0.719499 0.952616 -0.227116
C21   C     C_R   0.472576 0.280499 0.047325 -0.227139
C22   C     C_R   0.521888 0.573449 0.944290 0.028091
C23   C     C_R   0.886395 0.500006 0.496342 0.161643
C24   C     C_R   0.478199 0.426551 0.055678 0.028062
C25   C     C_R   0.478210 0.573456 0.055672 0.028077
C26   C     C_R   0.521878 0.426548 0.944298 0.028080
C27   C     C_R   0.530738 0.499997 0.878665 -0.240330
C28   C     C_R   0.469335 0.500004 0.121300 -0.240295
C29   C     C_R   0.847654 0.572818 0.495937 -0.163459
C30   C     C_R   0.152321 0.427194 0.502416 -0.163394
C31   C     C_R   0.152322 0.572821 0.502400 -0.163398
C32   C     C_R   0.847663 0.427190 0.496099 -0.163462
C33   C     C_R   0.768956 0.572928 0.496153 -0.183087
C34   C     C_R   0.113585 0.500009 0.501696 0.161611
C35   C     C_R   0.231025 0.427079 0.502944 -0.183009
C36   C     C_R   0.231026 0.572931 0.502929 -0.183011
C37   C     C_R   0.768965 0.427075 0.496309 -0.183120
C38   C     C_R   0.729261 0.500001 0.497232 -0.037266
C39   C     C_R   0.270730 0.500003 0.502284 -0.037436
C40   C     C_1   0.385228 0.650029 0.188236 0.170088
C41   C     C_1   0.614848 0.349992 0.811689 0.170044
C42   C     C_1   0.614864 0.649987 0.811664 0.170025
C43   C     C_1   0.385206 0.349997 0.188248 0.170090
C44   C     C_1   0.966301 0.500010 0.497976 -0.063522
C45   C     C_1   0.033679 0.500011 0.499717 -0.063536
C46   C     C_R   0.464146 0.832384 0.597563 -0.274522
C47   C     C_R   0.535894 0.167617 0.402478 -0.274517
C48   C     C_R   0.535861 0.832385 0.402445 -0.274510
H1    H     H_    0.450531 0.223873 0.081571 0.149887
H2    H     H_    0.260593 0.370165 0.503540 0.168550
H3    H     H_    0.260596 0.629843 0.503512 0.168562
H4    H     H_    0.739399 0.370161 0.496054 0.168553
H5    H     H_    0.435893 0.863548 0.674556 0.139686
H6    H     H_    0.564178 0.136453 0.325518 0.139687
H7    H     H_    0.564116 0.863552 0.325455 0.139682
H8    H     H_    0.435815 0.136448 0.674471 0.139689
H9    H     H_    0.436686 0.715195 0.670972 0.135912
H10   H     H_    0.563380 0.284808 0.329099 0.135891
H11   H     H_    0.563317 0.715198 0.329031 0.135892
H12   H     H_    0.549559 0.776121 0.918355 0.149889
H13   H     H_    0.436618 0.284803 0.670899 0.135888
H14   H     H_    0.549546 0.223871 0.918422 0.149889
H15   H     H_    0.450547 0.776137 0.081506 0.149885
H16   H     H_    0.878223 0.629200 0.495832 0.136272
H17   H     H_    0.121746 0.370814 0.502243 0.136273
H18   H     H_    0.121749 0.629203 0.502216 0.136276
H19   H     H_    0.878239 0.370812 0.496121 0.136277
H20   H     H_    0.739383 0.629840 0.495775 0.168514
N1    N     N_R   0.500000 0.707230 0.500000 -0.088182
N2    N     N_R   0.500000 0.292770 0.500000 -0.088186
N3    N     N_1   0.335063 0.652639 0.258674 -0.210633
N4    N     N_1   0.665003 0.347393 0.741230 -0.210645
N5    N     N_1   0.665019 0.652576 0.741204 -0.210577
N6    N     N_1   0.335037 0.347398 0.258676 -0.210639
O1    O     O_R   0.389110 0.566570 0.499990 -0.617592
O2    O     O_R   0.610890 0.433430 0.500010 -0.617630
O3    O     O_R   0.610890 0.566570 0.500010 -0.617617
O4    O     O_R   0.389110 0.433430 0.499990 -0.617605
O5    O     O_R   0.499990 0.566540 0.316770 -0.617892
O6    O     O_R   0.500010 0.433460 0.683230 -0.617874
O7    O     O_R   0.500010 0.566540 0.683230 -0.617886
O8    O     O_R   0.499990 0.433460 0.316770 -0.617878
Zn1   Zn    Zn3+2 0.500000 0.588860 0.500000 0.957151
Zn2   Zn    Zn3+2 0.500000 0.411140 0.500000 0.957149

loop_
_geom_bond_atom_site_label_1
_geom_bond_atom_site_label_2
_ccdc_geom_bond_type
C48   H7    S    
C40   N3    T    
C13   O7    A    
C31   H18   S    
C14   C18   A    
O6    Zn2   S    
O2    Zn2   S    
C4    N2    A    
C25   C28   A    
C15   C19   A    
C26   C27   A    
C30   C35   A    
C23   C29   A    
C6    H13   S    
C3    N1    A    
C24   C26   A    
C18   H15   S    
O3    Zn1   S    
C19   H14   S    
C29   C33   A    
C7    C9    S    
C5    N1    A    
C22   C25   A    
C20   H12   S    
N2    Zn2   S    
C9    C10   T    
C43   N6    T    
C29   H16   S    
C1    O4    A    
C2    C6    A    
C21   H1    S    
O7    Zn1   S    
C11   O8    A    
C5    C48   A    
C17   C24   A    
C30   C34   A    
C1    O1    A    
C7    C46   A    
C15   C41   S    
C37   H4    S    
C5    H11   S    
C15   C26   A    
C17   C21   A    
C23   C44   S    
C35   C39   A    
C17   C43   S    
C37   C38   A    
N1    Zn1   S    
C16   C20   A    
C12   O3    A    
C35   H2    S    
C31   C34   A    
C34   C45   S    
C32   C37   A    
C36   H3    S    
C11   O5    A    
C32   H19   S    
C3    H9    S    
O8    Zn2   S    
C22   C27   A    
C47   H6    S    
C16   C42   S    
C44   C45   T    
C6    N2    A    
C42   N5    T    
C16   C22   A    
C19   C21   A    
C36   C39   A    
C2    C8    A    
C24   C28   A    
C3    C46   A    
C41   N4    T    
C33   C38   A    
C7    C48   A    
C12   O2    A    
C8    C47   A    
C2    H8    S    
C23   C32   A    
O5    Zn1   S    
O1    Zn1   S    
C11   C28   S    
C46   H5    S    
C18   C20   A    
C14   C25   A    
C12   C38   S    
C13   O6    A    
C30   H17   S    
C1    C39   S    
C14   C40   S    
O4    Zn2   S    
C8    C10   S    
C4    H10   S    
C31   C36   A    
C13   C27   S    
C33   H20   S    
C4    C47   A    
