data_mof_unit_8267.cif
_audit_creation_date              2012-12-10T16:48:39-0500
_audit_creation_method            fapswitch 2.2
_symmetry_space_group_name_H-M    P1
_symmetry_Int_Tables_number       1
_space_group_crystal_system       triclinic
_cell_length_a                    7.776347
_cell_length_b                    8.587699
_cell_length_c                    10.513146
_cell_angle_alpha                 88.307585
_cell_angle_beta                  98.784737
_cell_angle_gamma                 93.350973
_cell_volume                      692.504201642

loop_
_atom_site_label
_atom_site_type_symbol
_atom_type_description
_atom_site_fract_x
_atom_site_fract_y
_atom_site_fract_z
_atom_type_partial_charge
C1    C     C_R   0.544558 0.794767 0.496581 0.964686
C2    C     C_2   0.431599 0.041884 0.504404 -0.388157
C3    C     C_3   0.277245 0.617375 0.041086 -0.422737
C4    C     C_3   0.180622 0.723938 0.116579 -0.861113
C5    C     C_3   0.784254 0.478400 0.952125 -0.391947
C6    C     C_3   0.876236 0.326265 0.982412 -0.850699
C7    C     C_R   0.455286 0.205231 0.502977 0.959610
C8    C     C_R   0.570825 0.485369 0.737988 0.860868
C9    C     C_R   0.427429 0.506578 0.261979 0.916529
C10   C     C_2   0.604284 0.447990 0.875952 0.003721
C11   C     C_2   0.384380 0.496716 0.122419 -0.008887
C12   C     C_2   0.467151 0.389305 0.930137 -0.187569
C13   C     C_2   0.467763 0.389204 0.068094 -0.243334
C14   C     C_2   0.567994 0.958128 0.494446 -0.393244
H1    H     H_    0.551384 0.309167 0.126931 0.171545
H2    H     H_    0.365745 0.691694 0.988113 0.219457
H3    H     H_    0.179766 0.556883 0.968350 0.222448
H4    H     H_    0.796282 0.240979 0.032998 0.257180
H5    H     H_    0.901404 0.274248 0.891963 0.259153
H6    H     H_    0.002434 0.349380 0.045694 0.250195
H7    H     H_    0.864541 0.557188 0.896088 0.197443
H8    H     H_    0.775609 0.538699 0.042830 0.222952
H9    H     H_    0.340877 0.364335 0.872159 0.166715
H10   H     H_    0.696959 0.008984 0.484938 0.180887
H11   H     H_    0.302603 0.991032 0.513823 0.180785
H12   H     H_    0.984928 0.383899 0.406359 0.191331
H13   H     H_    0.015064 0.616145 0.593599 0.189108
H14   H     H_    0.083443 0.654604 0.165108 0.274366
H15   H     H_    0.273750 0.790360 0.188700 0.259613
H16   H     H_    0.109863 0.808755 0.049140 0.240125
N1    N     N_2   0.940600 0.458860 0.467170 -0.173314
N2    N     N_2   0.059400 0.541140 0.532830 -0.174097
O1    O     O_R   0.391630 0.738350 0.508060 -0.606948
O2    O     O_R   0.608370 0.261650 0.491940 -0.610311
O3    O     O_R   0.674540 0.711990 0.487010 -0.625942
O4    O     O_R   0.325460 0.288010 0.512990 -0.629948
O5    O     O_R   0.411370 0.508250 0.688780 -0.624759
O6    O     O_R   0.588630 0.491750 0.311220 -0.624521
O7    O     O_R   0.694270 0.481880 0.667740 -0.608749
O8    O     O_R   0.305730 0.518120 0.332260 -0.610058
Zn1   Zn    Zn3+2 0.311100 0.517600 0.514050 0.921896
Zn2   Zn    Zn3+2 0.688900 0.482400 0.485950 0.925723

loop_
_geom_bond_atom_site_label_1
_geom_bond_atom_site_label_2
_ccdc_geom_bond_type
N2    Zn1   S    
C3    H3    S    
N1    Zn2   S    
O7    Zn2   S    
C11   C13   D    
C7    O4    A    
C4    H15   S    
O2    Zn2   S    
O1    Zn1   S    
C1    O1    A    
C5    C10   S    
N1    N2    D    
C6    H5    S    
C9    C11   S    
C12   H9    S    
O4    Zn1   S    
C10   C12   D    
C6    H4    S    
C9    O6    A    
C4    H14   S    
O6    Zn2   S    
C2    H11   S    
C13   H1    S    
O5    Zn1   S    
C5    C6    S    
C2    C14   D    
C7    O2    A    
C3    C11   S    
C8    O5    A    
C3    H2    S    
C3    C4    S    
H12   N1    S    
C6    H6    S    
C12   C13   S    
C1    O3    A    
C8    C10   S    
C14   H10   S    
O3    Zn2   S    
C8    O7    A    
O8    Zn1   S    
C1    C14   S    
H13   N2    S    
C9    O8    A    
C4    H16   S    
C5    H8    S    
C2    C7    S    
C5    H7    S    
