data_mof_unit_31205.cif
_audit_creation_date              2012-12-11T15:50:28-0500
_audit_creation_method            fapswitch 2.2
_symmetry_space_group_name_H-M    P1
_symmetry_Int_Tables_number       1
_space_group_crystal_system       triclinic
_cell_length_a                    18.998049
_cell_length_b                    11.144999
_cell_length_c                    18.601709
_cell_angle_alpha                 90.801628
_cell_angle_beta                  90.763226
_cell_angle_gamma                 89.83025
_cell_volume                      3937.84999608

loop_
_atom_site_label
_atom_site_type_symbol
_atom_type_description
_atom_site_fract_x
_atom_site_fract_y
_atom_site_fract_z
_atom_type_partial_charge
C1    C     C_R   0.291495 0.995215 0.860349 0.579167
C2    C     C_R   0.712890 0.005057 0.138204 0.551705
C3    C     C_R   0.791495 0.495216 0.860349 0.579161
C4    C     C_R   0.212891 0.505058 0.138204 0.551707
C5    C     C_3   0.551477 0.748552 0.957268 -0.134357
C6    C     C_3   0.505535 0.705379 0.019460 -0.118323
C7    C     C_3   0.051471 0.248555 0.957271 -0.134361
C8    C     C_3   0.005531 0.205376 0.019462 -0.118323
C9    C     C_R   0.224711 0.528715 0.061875 -0.028661
C10   C     C_R   0.785710 0.503683 0.939191 -0.023202
C11   C     C_R   0.724708 0.028712 0.061874 -0.028666
C12   C     C_R   0.285711 0.003682 0.939192 -0.023201
C13   C     C_R   0.280622 0.476826 0.024549 -0.015839
C14   C     C_R   0.730621 0.453619 0.977644 -0.025063
C15   C     C_R   0.780617 0.976820 0.024546 -0.015849
C16   C     C_R   0.230620 0.953617 0.977644 -0.025065
C17   C     C_R   0.288037 0.492349 0.951156 -0.007227
C18   C     C_R   0.720664 0.481752 0.049808 -0.012674
C19   C     C_R   0.788030 0.992343 0.951152 -0.007234
C20   C     C_R   0.220663 0.981751 0.049808 -0.012670
C21   C     C_R   0.174634 0.589625 0.945752 0.116848
C22   C     C_R   0.831091 0.589744 0.052467 0.109499
C23   C     C_R   0.674629 0.089629 0.945750 0.116849
C24   C     C_R   0.331091 0.089742 0.052467 0.109500
C25   C     C_R   0.169813 0.580323 0.020731 -0.168459
C26   C     C_R   0.839480 0.559767 0.979333 -0.157930
C27   C     C_R   0.669811 0.080325 0.020731 -0.168452
C28   C     C_R   0.339481 0.059764 0.979333 -0.157930
C29   C     C_3   0.358066 0.481800 0.038457 -0.231037
C30   C     C_3   0.653764 0.446888 0.961979 -0.212979
C31   C     C_3   0.858061 0.981791 0.038452 -0.231032
C32   C     C_3   0.153764 0.946885 0.961978 -0.212981
C33   C     C_3   0.366740 0.490705 0.957166 0.002890
C34   C     C_3   0.642314 0.476455 0.041286 0.005013
C35   C     C_3   0.866734 0.990697 0.957161 0.002890
C36   C     C_3   0.142314 0.976455 0.041285 0.005011
C37   C     C_R   0.239850 0.563713 0.912820 0.022104
C38   C     C_R   0.765161 0.563036 0.086103 0.019893
C39   C     C_R   0.739844 0.063710 0.912817 0.022107
C40   C     C_R   0.265161 0.063035 0.086103 0.019894
C41   C     C_R   0.501070 0.835239 0.423250 0.016782
C42   C     C_R   0.458192 0.832938 0.566278 0.016037
C43   C     C_R   0.001073 0.335246 0.423255 0.016751
C44   C     C_R   0.958196 0.332956 0.566280 0.016127
C45   C     C_R   0.466952 0.821176 0.856596 0.542182
C46   C     C_R   0.557296 0.815398 0.137727 0.545641
C47   C     C_R   0.966946 0.321175 0.856599 0.542180
C48   C     C_R   0.057292 0.315398 0.137727 0.545642
C49   C     C_R   0.549490 0.845063 0.479618 -0.010907
C50   C     C_R   0.528683 0.838517 0.549762 0.023732
C51   C     C_R   0.049493 0.345101 0.479623 -0.010887
C52   C     C_R   0.028687 0.338570 0.549770 0.023930
C53   C     C_R   0.408531 0.852035 0.510947 -0.189874
C54   C     C_R   0.429242 0.838197 0.438931 -0.182637
C55   C     C_R   0.908534 0.352032 0.510948 -0.189859
C56   C     C_R   0.929246 0.338188 0.438934 -0.182649
C57   C     C_3   0.611495 0.768795 0.494231 -0.275789
C58   C     C_3   0.588357 0.760121 0.571457 -0.259564
C59   C     C_3   0.111496 0.268831 0.494237 -0.275837
C60   C     C_3   0.088358 0.260159 0.571462 -0.259595
C61   C     C_R   0.248581 0.616210 0.416496 0.010951
C62   C     C_R   0.755501 0.585054 0.576684 0.014859
C63   C     C_R   0.748578 0.116194 0.416502 0.010956
C64   C     C_R   0.255490 0.085069 0.576690 0.014866
C65   C     C_R   0.195699 0.676876 0.454451 -0.041557
C66   C     C_R   0.795674 0.676262 0.548034 -0.041799
C67   C     C_R   0.695696 0.176856 0.454458 -0.041521
C68   C     C_R   0.295663 0.176275 0.548038 -0.041803
C69   C     C_R   0.205359 0.712335 0.524633 0.034648
C70   C     C_R   0.785249 0.714405 0.479404 0.026076
C71   C     C_R   0.705363 0.212342 0.524633 0.034663
C72   C     C_R   0.285240 0.214416 0.479407 0.026076
C73   C     C_R   0.324983 0.639285 0.519203 -0.188158
C74   C     C_R   0.706815 0.542271 0.460260 -0.187866
C75   C     C_R   0.824985 0.139284 0.519204 -0.188171
C76   C     C_R   0.206799 0.042291 0.460267 -0.187861
C77   C     C_R   0.315988 0.613625 0.445617 -0.147187
C78   C     C_R   0.710638 0.518557 0.532449 -0.193101
C79   C     C_R   0.815987 0.113615 0.445620 -0.147205
C80   C     C_R   0.210617 0.018583 0.532458 -0.193075
C81   C     C_3   0.120324 0.643265 0.464307 -0.204105
C82   C     C_3   0.873985 0.692388 0.547875 -0.178208
C83   C     C_3   0.620322 0.143237 0.464330 -0.204211
C84   C     C_3   0.373975 0.192392 0.547876 -0.178203
C85   C     C_3   0.128881 0.686164 0.541793 0.296779
C86   C     C_3   0.862108 0.755413 0.476689 0.291908
C87   C     C_3   0.628889 0.186185 0.541806 0.296693
C88   C     C_3   0.362099 0.255422 0.476693 0.291894
C89   C     C_R   0.259187 0.632693 0.849497 0.549531
C90   C     C_R   0.741565 0.633034 0.149638 0.545372
C91   C     C_R   0.759185 0.132689 0.849495 0.549546
C92   C     C_R   0.241565 0.133034 0.149638 0.545373
C93   C     C_R   0.268108 0.678644 0.560205 -0.012913
C94   C     C_R   0.742961 0.641709 0.433874 0.013936
C95   C     C_R   0.768113 0.178656 0.560205 -0.012948
C96   C     C_R   0.242952 0.141719 0.433877 0.013928
C97   C     C_R   0.272969 0.042299 0.645591 0.552784
C98   C     C_R   0.728615 0.049355 0.352537 0.555790
C99   C     C_R   0.772971 0.542295 0.645589 0.552778
C100  C     C_R   0.228617 0.549362 0.352534 0.555782
C101  C     C_R   0.437572 0.819273 0.639935 0.535851
C102  C     C_R   0.528056 0.824066 0.351259 0.539745
C103  C     C_R   0.937573 0.319276 0.639935 0.535841
C104  C     C_R   0.028060 0.324067 0.351262 0.539742
C105  C     C_R   0.274334 0.691771 0.637335 0.558629
C106  C     C_R   0.728926 0.680919 0.363705 0.564968
C107  C     C_R   0.774336 0.191777 0.637336 0.558626
C108  C     C_R   0.228925 0.180922 0.363705 0.564976
C109  C     C_3   0.469256 0.889086 0.037846 -0.117846
C110  C     C_3   0.514823 0.933807 0.975956 -0.117287
C111  C     C_3   0.969245 0.389078 0.037850 -0.117838
C112  C     C_3   0.014810 0.433806 0.975961 -0.117287
C113  C     C_3   0.443839 0.782388 0.991505 -0.121943
C114  C     C_3   0.577282 0.855988 0.003080 -0.140114
C115  C     C_3   0.943832 0.282379 0.991509 -0.121947
C116  C     C_3   0.077272 0.355993 0.003083 -0.140119
C117  C     C_3   0.490586 0.826407 0.930695 0.055861
C118  C     C_3   0.531172 0.814197 0.064129 0.052412
C119  C     C_3   0.990577 0.326404 0.930699 0.055856
C120  C     C_3   0.031164 0.314196 0.064132 0.052418
Cr1   Cr    Cr6+3 0.229640 0.835880 0.747370 0.971029
Cr2   Cr    Cr6+3 0.770360 0.835880 0.252630 0.993210
Cr3   Cr    Cr6+3 0.729640 0.335880 0.747370 0.971092
Cr4   Cr    Cr6+3 0.270360 0.335880 0.252630 0.993208
Cr5   Cr    Cr6+3 0.387390 0.989720 0.750850 0.949512
Cr6   Cr    Cr6+3 0.612610 0.989720 0.249150 0.969936
Cr7   Cr    Cr6+3 0.887390 0.489720 0.750850 0.949497
Cr8   Cr    Cr6+3 0.112610 0.489720 0.249150 0.969930
Cr9   Cr    Cr6+3 0.385770 0.677220 0.749340 0.962654
Cr10  Cr    Cr6+3 0.614230 0.677220 0.250660 0.970105
Cr11  Cr    Cr6+3 0.885770 0.177220 0.749340 0.962654
Cr12  Cr    Cr6+3 0.114230 0.177220 0.250660 0.970101
H1    H     H_    0.605661 0.683491 0.463770 0.163722
H2    H     H_    0.625120 0.804385 0.610345 0.132867
H3    H     H_    0.105660 0.183527 0.463777 0.163720
H4    H     H_    0.125125 0.304406 0.610352 0.132859
H5    H     H_    0.375286 0.624842 0.545260 0.146538
H6    H     H_    0.673495 0.486288 0.426111 0.140554
H7    H     H_    0.875287 0.124842 0.545263 0.146527
H8    H     H_    0.173475 0.986312 0.426120 0.140549
H9    H     H_    0.358914 0.580298 0.413467 0.158285
H10   H     H_    0.683555 0.442849 0.552817 0.157882
H11   H     H_    0.858913 0.080286 0.413471 0.158299
H12   H     H_    0.183523 0.942886 0.552829 0.157836
H13   H     H_    0.084229 0.698259 0.430536 0.129000
H14   H     H_    0.892306 0.750776 0.593262 0.128174
H15   H     H_    0.584219 0.198207 0.430555 0.129028
H16   H     H_    0.392304 0.250773 0.593262 0.128217
H17   H     H_    0.433470 0.935631 0.074355 0.140977
H18   H     H_    0.510419 0.028331 0.960621 0.116896
H19   H     H_    0.933458 0.435616 0.074361 0.140973
H20   H     H_    0.010405 0.528328 0.960622 0.116892
H21   H     H_    0.120938 0.606120 0.046061 0.137881
H22   H     H_    0.886749 0.588129 0.952598 0.127262
H23   H     H_    0.620938 0.106130 0.046063 0.137886
H24   H     H_    0.386750 0.088125 0.952599 0.127259
H25   H     H_    0.878752 0.898104 0.062315 0.172609
H26   H     H_    0.137688 0.855355 0.945403 0.183009
H27   H     H_    0.378758 0.398114 0.062320 0.172603
H28   H     H_    0.637689 0.355360 0.945403 0.183016
H29   H     H_    0.392973 0.573314 0.939392 0.170946
H30   H     H_    0.616256 0.563949 0.051310 0.153052
H31   H     H_    0.892967 0.073305 0.939388 0.170948
H32   H     H_    0.116256 0.063949 0.051307 0.153048
O1    O     O_R   0.214300 0.709080 0.827500 -0.496387
O2    O     O_R   0.785700 0.709080 0.172500 -0.491643
O3    O     O_R   0.714300 0.209080 0.827500 -0.496386
O4    O     O_R   0.285700 0.209080 0.172500 -0.491642
O5    O     O_R   0.445900 0.919370 0.676500 -0.526143
O6    O     O_R   0.554100 0.919370 0.323500 -0.509693
O7    O     O_R   0.945900 0.419370 0.676500 -0.526119
O8    O     O_R   0.054100 0.419370 0.323500 -0.509699
O9    O     O_R   0.456660 0.717710 0.669820 -0.527242
O10   O     O_R   0.543340 0.717710 0.330180 -0.520216
O11   O     O_R   0.956660 0.217710 0.669820 -0.527261
O12   O     O_R   0.043340 0.217710 0.330180 -0.520213
O13   O     O_R   0.320590 0.625770 0.672930 -0.517762
O14   O     O_R   0.679410 0.625770 0.327070 -0.516098
O15   O     O_R   0.820590 0.125770 0.672930 -0.517768
O16   O     O_R   0.179410 0.125770 0.327070 -0.516101
O17   O     O_3   0.334270 0.834280 0.749190 -0.306602
O18   O     O_3   0.665730 0.834280 0.250810 -0.290261
O19   O     O_3   0.834270 0.334280 0.749190 -0.306620
O20   O     O_3   0.165730 0.334280 0.250810 -0.290258
O21   O     O_R   0.236190 0.958390 0.823150 -0.497848
O22   O     O_R   0.763810 0.958390 0.176850 -0.492454
O23   O     O_R   0.736190 0.458390 0.823150 -0.497849
O24   O     O_R   0.263810 0.458390 0.176850 -0.492457
O25   O     O_R   0.332090 0.075280 0.831290 -0.524312
O26   O     O_R   0.667910 0.075280 0.168710 -0.531367
O27   O     O_R   0.832090 0.575280 0.831290 -0.524312
O28   O     O_R   0.167910 0.575280 0.168710 -0.531366
O29   O     O_R   0.446280 0.918040 0.826620 -0.531818
O30   O     O_R   0.553720 0.918040 0.173380 -0.526634
O31   O     O_R   0.946280 0.418040 0.826620 -0.531813
O32   O     O_R   0.053720 0.418040 0.173380 -0.526632
O33   O     O_R   0.457080 0.716270 0.831760 -0.527772
O34   O     O_R   0.542920 0.716270 0.168240 -0.532853
O35   O     O_R   0.957080 0.216270 0.831760 -0.527769
O36   O     O_R   0.042920 0.216270 0.168240 -0.532859
O37   O     O_R   0.320980 0.624440 0.823040 -0.519824
O38   O     O_R   0.679020 0.624440 0.176960 -0.525412
O39   O     O_R   0.820980 0.124440 0.823040 -0.519828
O40   O     O_R   0.179020 0.124440 0.176960 -0.525413
O41   O     O_R   0.213880 0.710510 0.665560 -0.508141
O42   O     O_R   0.786120 0.710510 0.334440 -0.519178
O43   O     O_R   0.713880 0.210510 0.665560 -0.508026
O44   O     O_R   0.286120 0.210510 0.334440 -0.519173
O45   O     O_R   0.235800 0.959720 0.673040 -0.538483
O46   O     O_R   0.764200 0.959720 0.326960 -0.503272
O47   O     O_R   0.735800 0.459720 0.673040 -0.538427
O48   O     O_R   0.264200 0.459720 0.326960 -0.503269
O49   O     O_R   0.331670 0.076720 0.669350 -0.532177
O50   O     O_R   0.668330 0.076720 0.330650 -0.522359
O51   O     O_R   0.831670 0.576720 0.669350 -0.532198
O52   O     O_R   0.168330 0.576720 0.330650 -0.522379
H33   H     H_    0.387245 0.759065 0.986290 0.096640
H34   H     H_    0.634631 0.867756 0.007838 0.110246
H35   H     H_    0.887238 0.259050 0.986293 0.096638
H36   H     H_    0.134621 0.367765 0.007842 0.110247
H37   H     H_    0.353635 0.866418 0.523145 0.117103
H38   H     H_    0.390118 0.834925 0.396087 0.118162
H39   H     H_    0.853636 0.366404 0.523145 0.117096
H40   H     H_    0.890122 0.334901 0.396090 0.118171
H41   H     H_    0.160605 0.320877 0.487694 0.122547
H42   H     H_    0.071491 0.168324 0.586013 0.153592
H43   H     H_    0.660603 0.820845 0.487688 0.122547
H44   H     H_    0.571496 0.668285 0.586010 0.153590
H45   H     H_    0.112162 0.545542 0.457778 0.138923
H46   H     H_    0.901763 0.604991 0.544131 0.131677
H47   H     H_    0.612167 0.045510 0.457822 0.138861
H48   H     H_    0.401739 0.104987 0.544125 0.131593
N1    N     N_2   0.084951 0.792926 0.554554 -0.508668
H49   H     H_    0.085813 0.853944 0.513441 0.212283
C121  C     C_3   0.074631 0.849490 0.624476 -0.282559
H50   H     H_    0.023511 0.821002 0.646589 0.114262
H51   H     H_    0.072049 0.948513 0.618881 0.107230
H52   H     H_    0.117081 0.830447 0.663071 0.212592
N2    N     N_2   0.870010 0.883507 0.487152 -0.503549
H53   H     H_    0.836761 0.916869 0.525959 0.249369
C122  C     C_3   0.942245 0.924587 0.497211 -0.306956
H54   H     H_    0.956944 0.921639 0.554858 0.143515
H55   H     H_    0.948808 0.017781 0.479141 0.131898
H56   H     H_    0.979475 0.870835 0.464717 0.175279
N3    N     N_2   0.584971 0.292962 0.554557 -0.508651
H57   H     H_    0.585818 0.353963 0.513435 0.212276
C123  C     C_3   0.574646 0.349532 0.624478 -0.282386
H58   H     H_    0.572225 0.448573 0.618904 0.107301
H59   H     H_    0.617000 0.330245 0.663142 0.212583
H60   H     H_    0.523448 0.321255 0.646506 0.114195
N4    N     N_2   0.370002 0.383515 0.487160 -0.503549
H61   H     H_    0.336751 0.416876 0.525965 0.249373
C124  C     C_3   0.442237 0.424598 0.497219 -0.306977
H62   H     H_    0.456923 0.421729 0.554869 0.143460
H63   H     H_    0.448809 0.517764 0.479106 0.131925
H64   H     H_    0.479471 0.370799 0.464762 0.175298
N5    N     N_2   0.122308 0.588701 0.592935 -0.463117
H65   H     H_    0.148097 0.509869 0.579999 0.230084
C125  C     C_3   0.061978 0.577061 0.638301 -0.224710
H66   H     H_    0.064658 0.641795 0.683734 0.133993
H67   H     H_    0.064236 0.487973 0.663799 0.151632
H68   H     H_    0.012643 0.587735 0.606534 0.166447
N6    N     N_2   0.902864 0.715993 0.414799 -0.488035
H69   H     H_    0.902623 0.771402 0.370816 0.279350
C126  C     C_3   0.918051 0.592385 0.401104 -0.295879
H70   H     H_    0.960207 0.564751 0.439051 0.162363
H71   H     H_    0.937941 0.580347 0.345577 0.140348
H72   H     H_    0.869436 0.539074 0.406397 0.169068
N7    N     N_2   0.622328 0.088781 0.592989 -0.463073
H73   H     H_    0.648127 0.009971 0.580051 0.230083
C127  C     C_3   0.561845 0.076952 0.638125 -0.224680
H74   H     H_    0.564206 0.141822 0.683495 0.133907
H75   H     H_    0.564190 0.987966 0.663735 0.151691
H76   H     H_    0.512618 0.087239 0.606143 0.166348
N8    N     N_2   0.402856 0.216005 0.414803 -0.488039
H77   H     H_    0.402620 0.271419 0.370821 0.279354
C128  C     C_3   0.418045 0.092397 0.401106 -0.295884
H78   H     H_    0.460201 0.064761 0.439052 0.162299
H79   H     H_    0.437933 0.080361 0.345578 0.140354
H80   H     H_    0.369430 0.039086 0.406400 0.169071
H81   H     H_    0.585068 0.695222 0.920682 0.111615
H82   H     H_    0.499712 0.611866 0.037853 0.122670
H83   H     H_    0.085064 0.195227 0.920685 0.111616
H84   H     H_    0.999711 0.111862 0.037856 0.122675
N9    N     N_2   0.115977 0.634741 0.905316 -0.504500
H85   H     H_    0.077033 0.676844 0.934404 0.234205
C129  C     C_3   0.091361 0.561262 0.844863 -0.270368
H86   H     H_    0.091158 0.465033 0.858826 0.144616
H87   H     H_    0.037648 0.590284 0.828448 0.136087
H88   H     H_    0.125376 0.570187 0.797509 0.174229
N10   N     N_2   0.885162 0.661834 0.086083 -0.507155
H89   H     H_    0.920546 0.700588 0.051856 0.235153
C130  C     C_3   0.917890 0.621995 0.152683 -0.263855
H90   H     H_    0.890136 0.543745 0.175415 0.152238
H91   H     H_    0.973763 0.598065 0.143266 0.139266
H92   H     H_    0.917682 0.696705 0.192763 0.153606
N11   N     N_2   0.615974 0.134771 0.905320 -0.504512
H93   H     H_    0.577036 0.176879 0.934415 0.234200
C131  C     C_3   0.591341 0.061314 0.844864 -0.270333
H94   H     H_    0.591182 0.965064 0.858803 0.144609
H95   H     H_    0.537600 0.090295 0.828503 0.136096
H96   H     H_    0.625311 0.070331 0.797475 0.174344
N12   N     N_2   0.385162 0.161834 0.086083 -0.507154
H97   H     H_    0.420545 0.200589 0.051856 0.235151
C132  C     C_3   0.417890 0.121996 0.152683 -0.263858
H98   H     H_    0.390138 0.043742 0.175414 0.152239
H99   H     H_    0.473764 0.098071 0.143267 0.139260
H100  H     H_    0.417679 0.196705 0.192763 0.153609
H101  H     H_    0.373630 0.565005 0.068171 0.116065
H102  H     H_    0.635829 0.517681 0.924867 0.117236
H103  H     H_    0.873626 0.064995 0.068167 0.116066
H104  H     H_    0.135827 0.017677 0.924866 0.117240
N13   N     N_2   0.396891 0.381757 0.926454 -0.525306
H105  H     H_    0.372180 0.303570 0.940807 0.268199
C133  C     C_3   0.412484 0.385646 0.850704 -0.266335
H106  H     H_    0.441250 0.302772 0.834741 0.124851
H107  H     H_    0.446407 0.463897 0.839237 0.169208
H108  H     H_    0.362921 0.390873 0.818526 0.166560
N14   N     N_2   0.611833 0.375587 0.078544 -0.525992
H109  H     H_    0.644262 0.301783 0.083242 0.274447
C134  C     C_3   0.573612 0.403015 0.143373 -0.271356
H110  H     H_    0.544650 0.321938 0.160211 0.120294
H111  H     H_    0.534555 0.475466 0.133828 0.160208
H112  H     H_    0.610630 0.429516 0.187349 0.173738
N15   N     N_2   0.896883 0.881748 0.926448 -0.525306
H113  H     H_    0.872171 0.803562 0.940801 0.268202
C135  C     C_3   0.912476 0.885638 0.850699 -0.266331
H114  H     H_    0.941241 0.802763 0.834735 0.124860
H115  H     H_    0.946400 0.963887 0.839231 0.169206
H116  H     H_    0.862912 0.890867 0.818521 0.166561
N16   N     N_2   0.111831 0.875588 0.078544 -0.525991
H117  H     H_    0.144255 0.801776 0.083231 0.274442
C136  C     C_3   0.073628 0.903016 0.143383 -0.271342
H118  H     H_    0.044657 0.821947 0.160220 0.120291
H119  H     H_    0.034579 0.975488 0.133853 0.160227
H120  H     H_    0.110658 0.929490 0.187355 0.173730

loop_
_geom_bond_atom_site_label_1
_geom_bond_atom_site_label_2
_ccdc_geom_bond_type
C2    O26   A    
Cr2   O42   S    
N10   H89   S    
C73   C93   A    
C75   C95   A    
N12   C132  S    
C136  H118  S    
Cr10  O10   S    
C85   N1    S    
C47   O31   A    
C63   C98   S    
C69   C93   A    
C5    C6    S    
C20   C40   A    
C136  H120  S    
C71   C95   A    
C53   H37   S    
C127  H74   S    
C22   C38   A    
C29   C33   S    
C9    C13   A    
Cr3   O19   S    
Cr4   O4    S    
Cr5   O49   S    
C12   C16   A    
C129  H87   S    
C87   N3    S    
Cr5   O5    S    
C107  O43   A    
Cr10  O38   S    
C98   O50   A    
C59   C60   S    
C81   H45   S    
N3    H57   S    
Cr4   O44   S    
Cr9   O9    S    
C6    H82   S    
C39   C91   S    
C109  C118  S    
C51   C52   A    
C7    C119  S    
N6    H69   S    
C48   C120  S    
C62   C66   A    
C125  H67   S    
C35   H31   S    
C84   H16   S    
C33   H29   S    
Cr7   O31   S    
C66   C82   S    
C92   O4    A    
N12   H97   S    
C11   C27   A    
C68   C72   A    
N13   C133  S    
C31   H25   S    
C64   C97   S    
C48   O36   A    
N7    C127  S    
C110  C114  S    
C7    H83   S    
C135  H115  S    
C123  H60   S    
N6    C126  S    
C100  O52   A    
C107  O15   A    
C84   C88   S    
C105  O13   A    
C110  H18   S    
C3    O23   A    
C106  O42   A    
C1    O21   A    
C38   C90   S    
C4    O24   A    
C18   C38   A    
N9    C129  S    
C19   C35   S    
C76   C96   A    
C44   C55   A    
Cr7   O51   S    
C66   C70   A    
C73   H5    S    
C60   H42   S    
C84   H48   S    
C77   H9    S    
C46   O34   A    
C62   C99   S    
C72   C96   A    
C61   C65   A    
C134  H110  S    
C73   C77   A    
C85   N5    S    
C75   C79   A    
Cr9   O33   S    
C90   O38   A    
C102  O6    A    
N14   C134  S    
C67   C83   S    
C101  O9    A    
C111  C112  S    
C108  O44   A    
C7    C8    S    
C104  O12   A    
C99   O47   A    
C53   C54   A    
C97   O45   A    
C64   C68   A    
C91   O3    A    
N10   C130  S    
Cr4   O20   S    
C42   C53   A    
C124  H62   S    
Cr2   O22   S    
C45   O33   A    
Cr12  O36   S    
C49   C57   S    
C41   C102  S    
C122  H54   S    
Cr11  O11   S    
N15   C135  S    
C43   C104  S    
C33   N13   S    
C52   C60   S    
C24   N12   S    
C79   H11   S    
C61   C77   A    
C132  H99   S    
Cr2   O46   S    
C116  H36   S    
Cr10  O14   S    
N1    H49   S    
C60   H4    S    
Cr9   O37   S    
C44   C52   A    
C128  H78   S    
C103  O7    A    
N11   C131  S    
C47   O35   A    
C1    C12   S    
C11   C15   A    
C114  H34   S    
C2    C11   S    
C34   N14   S    
C44   C103  S    
C46   O30   A    
C30   C34   S    
C10   C14   A    
Cr4   O24   S    
C31   H103  S    
C32   H104  S    
Cr7   O27   S    
C116  C120  S    
Cr8   O28   S    
C7    C116  S    
C130  H90   S    
Cr6   O6    S    
C18   C34   S    
C134  H112  S    
N2    C122  S    
C22   N10   S    
C126  H71   S    
C42   C50   A    
C113  C117  S    
Cr8   O52   S    
C115  C119  S    
C131  H95   S    
C74   C78   A    
C121  H52   S    
C61   C100  S    
Cr7   O7    S    
C42   C101  S    
C112  C116  S    
C69   C85   S    
C45   C117  S    
C21   C25   A    
C133  H108  S    
C62   C78   A    
C76   C80   A    
C34   H30   S    
C124  H64   S    
C30   H102  S    
C15   C31   S    
C16   C32   S    
Cr1   O1    S    
C13   C17   A    
Cr12  O16   S    
C122  H56   S    
C75   H7    S    
C57   C58   S    
C83   H47   S    
C96   C108  S    
C131  H96   S    
C26   H22   S    
C57   H43   S    
C49   C50   A    
C128  H80   S    
C4    C9    S    
C106  O14   A    
C81   C85   S    
C1    O25   A    
Cr5   O29   S    
C127  H76   S    
C83   C87   S    
C55   C56   A    
C4    O28   A    
N2    H53   S    
Cr1   O41   S    
C57   H1    S    
C9    C25   A    
N4    H61   S    
C15   C19   A    
C74   H6    S    
C17   C33   S    
C12   C28   A    
C13   C29   S    
C70   C94   A    
C88   N8    S    
C130  H92   S    
C78   H10   S    
C8    H84   S    
Cr11  O35   S    
C46   C118  S    
Cr12  O12   S    
C41   C49   A    
Cr6   O50   S    
Cr11  O19   S    
C121  H50   S    
C112  H20   S    
C101  O5    A    
Cr11  O39   S    
C92   O40   A    
C104  O8    A    
C136  H119  S    
C82   H46   S    
C133  H106  S    
C97   O49   A    
N7    H73   S    
C90   O2    A    
C27   H23   S    
C64   C80   A    
C29   H101  S    
C110  C117  S    
C82   H14   S    
C123  H59   S    
C45   O29   A    
Cr12  O40   S    
Cr1   O17   S    
Cr5   O17   S    
C68   C84   S    
C24   C28   A    
C35   N15   S    
C122  H55   S    
Cr4   O48   S    
C82   C86   S    
Cr9   O13   S    
C50   C58   S    
N16   H117  S    
N9    H85   S    
Cr6   O30   S    
C65   C81   S    
C129  H86   S    
C58   H2    S    
C103  O11   A    
C86   N2    S    
C129  H88   S    
C95   C107  S    
C88   N4    S    
C71   C87   S    
N3    C123  S    
C31   C35   S    
C32   C36   S    
C86   N6    S    
C55   H39   S    
C112  C119  S    
C105  O41   A    
C37   C89   S    
C135  H114  S    
C25   H21   S    
C109  C110  S    
Cr12  O20   S    
C43   C51   A    
N13   H105  S    
C65   C69   A    
C59   H3    S    
C67   C71   A    
N15   H113  S    
C59   H41   S    
C54   H38   S    
N14   H109  S    
C20   C36   S    
C21   C37   A    
C132  H98   S    
C22   C26   A    
N1    C121  S    
C74   C94   A    
C36   H32   S    
C21   N9    S    
C91   O39   A    
C89   O37   A    
Cr2   O2    S    
C36   N16   S    
C5    C114  S    
Cr7   O19   S    
N11   H93   S    
C14   C18   A    
Cr8   O20   S    
C131  H94   S    
C125  H68   S    
C29   H27   S    
C63   C79   A    
C30   H28   S    
C98   O46   A    
C5    H81   S    
N8    C128  S    
N5    H65   S    
N4    C124  S    
C108  O16   A    
Cr6   O26   S    
C8    C115  S    
C93   C105  S    
C134  H111  S    
Cr3   O47   S    
C23   C27   A    
C126  H70   S    
C23   N11   S    
C16   C20   A    
Cr3   O3    S    
C10   C26   A    
C47   C119  S    
C48   O32   A    
C121  H51   S    
C115  H35   S    
C14   C30   S    
C113  H33   S    
C72   C88   S    
C32   H26   S    
C76   H8    S    
C63   C67   A    
C133  H107  S    
Cr1   O45   S    
Cr10  O18   S    
C56   H40   S    
Cr11  O15   S    
C80   H12   S    
C100  O48   A    
C5    C117  S    
C111  C120  S    
N5    C125  S    
C109  H17   S    
C2    O22   A    
C6    C113  S    
C3    O27   A    
C124  H63   S    
C132  H100  S    
Cr3   O43   S    
C17   C37   A    
C40   C92   S    
N16   C136  S    
C89   O1    A    
C114  C118  S    
C19   C39   A    
C83   H15   S    
N8    H77   S    
Cr8   O8    S    
C81   H13   S    
C128  H79   S    
Cr6   O18   S    
C51   C59   S    
C125  H66   S    
C70   C86   S    
C58   H44   S    
C8    C120  S    
C127  H75   S    
Cr9   O17   S    
C94   C106  S    
Cr8   O32   S    
C111  H19   S    
C135  H116  S    
Cr5   O25   S    
C123  H58   S    
C109  C113  S    
C102  O10   A    
C130  H91   S    
C3    C10   S    
C87   N7    S    
C99   O51   A    
C23   C39   A    
C24   C40   A    
Cr3   O23   S    
C126  H72   S    
C41   C54   A    
Cr1   O21   S    
C43   C56   A    
Cr2   O18   S    
C28   H24   S    
C111  C115  S    
Cr10  O34   S    
C6    C118  S    
