data_mof_unit_64280.cif
_audit_creation_date              2012-12-10T17:54:03-0500
_audit_creation_method            fapswitch 2.2
_symmetry_space_group_name_H-M    P1
_symmetry_Int_Tables_number       1
_space_group_crystal_system       triclinic
_cell_length_a                    18.922088
_cell_length_b                    18.72517
_cell_length_c                    18.841759
_cell_angle_alpha                 109.31349
_cell_angle_beta                  109.315644
_cell_angle_gamma                 109.494647
_cell_volume                      5157.47737594

loop_
_atom_site_label
_atom_site_type_symbol
_atom_type_description
_atom_site_fract_x
_atom_site_fract_y
_atom_site_fract_z
_atom_type_partial_charge
C1    C     C_R   0.881613 0.380985 0.000152 0.790227
C2    C     C_R   0.814169 0.312810 0.997668 -0.068977
C3    C     C_R   0.823057 0.242604 0.002196 -0.198136
C4    C     C_R   0.758695 0.178217 0.002404 -0.197058
C5    C     C_R   0.683900 0.182249 0.995048 -0.076929
C6    C     C_R   0.671219 0.245751 0.978721 0.137305
C7    C     C_3   0.646385 0.307559 0.022553 -0.475837
C8    C     C_3   0.717621 0.378913 0.025334 -0.453720
C9    C     C_R   0.254423 0.574982 0.254482 0.120509
C10   C     C_R   0.182731 0.498539 0.183253 -0.082505
C11   C     C_R   0.176420 0.418934 0.176029 -0.203571
C12   C     C_R   0.883531 0.501930 0.881986 0.869902
C13   C     C_R   0.240787 0.418958 0.240720 -0.204701
C14   C     C_R   0.313337 0.498567 0.311410 -0.085558
C15   C     C_R   0.317669 0.574984 0.314615 0.121653
C16   C     C_3   0.369726 0.671890 0.366812 -0.466358
C17   C     C_3   0.297916 0.671878 0.297485 -0.469647
C18   C     C_R   0.182381 0.756636 0.000033 0.088070
C19   C     C_R   0.186764 0.684874 0.001990 -0.082408
C20   C     C_R   0.259421 0.678154 0.003999 -0.206880
C21   C     C_R   0.324772 0.743492 0.004867 -0.199449
C22   C     C_R   0.316377 0.814346 0.000703 -0.064185
C23   C     C_R   0.118952 0.618708 0.000440 0.824752
C24   C     C_R   0.243310 0.817428 0.997622 0.065962
C25   C     C_3   0.198261 0.868924 0.993374 -0.484886
C26   C     C_3   0.128192 0.798968 0.995419 0.095635
C27   C     C_R   0.496919 0.380903 0.378335 0.798461
C28   C     C_R   0.614438 0.497495 0.613080 0.850461
C29   C     C_R   0.496190 0.618655 0.614829 0.798921
C30   C     C_R   0.379126 0.499971 0.378722 0.794480
C31   C     C_R   0.500410 0.881155 0.881889 0.791191
C32   C     C_R   0.618533 0.118681 0.999461 0.792874
C33   C     C_R   0.499444 0.118817 0.118201 0.798363
C34   C     C_R   0.117818 0.499954 0.117867 0.790292
C35   C     C_R   0.381658 0.881277 0.000278 0.793628
C36   C     C_R   0.574047 0.314610 0.323479 0.052221
C37   C     C_R   0.496874 0.312724 0.313173 -0.073447
C38   C     C_R   0.418476 0.239385 0.242848 -0.199967
C39   C     C_R   0.418829 0.175345 0.178303 -0.203433
C40   C     C_R   0.497608 0.182973 0.185423 -0.124244
C41   C     C_R   0.574329 0.250077 0.261129 0.139861
C42   C     C_3   0.655004 0.313867 0.271382 0.083136
C43   C     C_3   0.654819 0.384775 0.340292 -0.475842
C44   C     C_R   0.571892 0.758453 0.750512 0.120336
C45   C     C_2   0.754215 0.505102 0.680060 -0.120563
C46   C     C_R   0.495813 0.684694 0.681109 -0.092739
C47   C     C_R   0.417851 0.675265 0.679053 -0.205949
C48   C     C_R   0.418963 0.740129 0.745018 -0.203519
C49   C     C_R   0.498204 0.813293 0.815113 -0.083721
C50   C     C_R   0.573133 0.818778 0.815408 0.120108
C51   C     C_3   0.668808 0.874259 0.863328 -0.480702
C52   C     C_3   0.667538 0.804765 0.789788 -0.447970
C53   C     C_2   0.678002 0.490263 0.675462 -0.326539
C54   C     C_2   0.815205 0.492714 0.740999 -0.100647
C55   C     C_2   0.820475 0.507931 0.817772 -0.288533
C56   C     C_R   0.735811 0.310649 0.981121 0.097164
Cu1   Cu    Cu3+1 0.999590 0.561790 0.061400 0.965790
Cu2   Cu    Cu3+1 0.000410 0.438210 0.938600 0.968954
Cu3   Cu    Cu3+1 0.558560 0.561730 0.496790 0.957070
Cu4   Cu    Cu3+1 0.434970 0.438120 0.496790 0.961396
Cu5   Cu    Cu3+1 0.438600 0.999980 0.938570 0.959870
Cu6   Cu    Cu3+1 0.561400 0.999920 0.061330 0.998649
H1    H     H_    0.770285 0.521960 0.635426 0.172827
H2    H     H_    0.771571 0.429126 0.092130 0.218461
H3    H     H_    0.121573 0.357336 0.121616 0.153170
H4    H     H_    0.234445 0.357364 0.235034 0.153634
H5    H     H_    0.373629 0.697277 0.431117 0.198198
H6    H     H_    0.432359 0.697708 0.367816 0.208695
H7    H     H_    0.260851 0.697890 0.321970 0.210682
H8    H     H_    0.318898 0.697036 0.257989 0.195832
H9    H     H_    0.266070 0.623457 0.005898 0.153283
H10   H     H_    0.380526 0.737852 0.007158 0.155018
H11   H     H_    0.235150 0.933965 0.052691 0.164775
H12   H     H_    0.657824 0.464174 0.713327 0.151067
H13   H     H_    0.176726 0.869690 0.931266 0.239435
H14   H     H_    0.123444 0.823527 0.055068 0.137520
H15   H     H_    0.357383 0.233884 0.235721 0.150396
H16   H     H_    0.358091 0.121074 0.122473 0.153798
H17   H     H_    0.644691 0.319972 0.212578 0.107558
H18   H     H_    0.708786 0.414935 0.406905 0.227927
H19   H     H_    0.643882 0.431922 0.321100 0.187672
H20   H     H_    0.356554 0.618949 0.626260 0.162368
H21   H     H_    0.859665 0.476165 0.724707 0.174539
H22   H     H_    0.358519 0.732748 0.741767 0.159965
H23   H     H_    0.689859 0.938146 0.865188 0.193884
H24   H     H_    0.698976 0.877504 0.926755 0.210548
H25   H     H_    0.688600 0.828815 0.749730 0.209427
H26   H     H_    0.696359 0.767395 0.810608 0.202912
H27   H     H_    0.782792 0.533860 0.838107 0.152115
H28   H     H_    0.881308 0.239979 0.009857 0.148368
H29   H     H_    0.768068 0.126671 0.010079 0.155076
H30   H     H_    0.580600 0.292472 0.979292 0.203067
H31   H     H_    0.658971 0.316450 0.087661 0.194818
H32   H     H_    0.692882 0.404947 0.983667 0.194188
O1    O     O_R   0.909480 0.462010 0.051860 -0.586534
O2    O     O_R   0.445180 0.357580 0.407200 -0.586752
O3    O     O_R   0.638540 0.552110 0.586390 -0.575994
O4    O     O_R   0.534170 0.447730 0.586390 -0.584280
O5    O     O_R   0.548350 0.642270 0.586380 -0.584921
O6    O     O_R   0.443970 0.537890 0.586380 -0.584539
O7    O     O_R   0.459360 0.552110 0.407190 -0.585484
O8    O     O_R   0.354990 0.447740 0.407190 -0.587257
O9    O     O_R   0.448700 0.909820 0.858480 -0.584454
O10   O     O_R   0.552410 0.909770 0.962140 -0.588600
O11   O     O_R   0.538310 0.090150 0.948110 -0.587745
O12   O     O_R   0.910180 0.357650 0.948150 -0.587637
O13   O     O_R   0.642020 0.090090 0.051780 -0.566841
O14   O     O_R   0.447590 0.090130 0.037760 -0.592884
O15   O     O_R   0.551300 0.090080 0.141420 -0.547971
O16   O     O_R   0.357980 0.909810 0.948120 -0.582286
O17   O     O_R   0.461690 0.909750 0.051790 -0.588478
O18   O     O_R   0.910060 0.552180 0.962250 -0.576670
O19   O     O_R   0.910760 0.447820 0.858550 -0.580129
O20   O     O_R   0.089820 0.642350 0.051850 -0.588301
O21   O     O_R   0.090520 0.537990 0.948140 -0.580160
O22   O     O_R   0.089240 0.552180 0.141450 -0.584123
O23   O     O_R   0.089940 0.447820 0.037750 -0.591952
O24   O     O_R   0.549550 0.461960 0.407200 -0.588576
Br1   Br    Br    0.018908 0.727426 0.887614 -0.523554
Br2   Br    Br    0.749915 0.293492 0.317109 -0.483722

loop_
_geom_bond_atom_site_label_1
_geom_bond_atom_site_label_2
_ccdc_geom_bond_type
C28   O3    A    
Cu3   Cu4   S    
C17   H7    S    
Cu3   O5    S    
C41   C42   S    
C19   C20   A    
C18   C26   S    
C51   H23   S    
C27   O2    A    
C7    C8    S    
C22   C35   S    
C3    H28   S    
C18   C24   A    
C36   C37   A    
Cu5   O9    S    
C31   C49   S    
C18   C19   A    
Cu4   O4    S    
C38   C39   A    
Cu1   O18   S    
C34   O22   A    
C15   C16   S    
C1    C2    S    
C47   H20   S    
Cu5   O14   S    
C44   C50   A    
C54   C55   D    
Cu6   O17   S    
C53   H12   S    
C16   C17   S    
C32   O13   A    
Cu2   O19   S    
C26   H14   S    
C20   H9    S    
C16   H6    S    
Cu5   O11   S    
C9    C10   A    
C1    O12   A    
C5    C32   S    
C44   C52   S    
C34   O23   A    
C45   C53   D    
C42   H17   S    
C21   C22   A    
C8    C56   S    
C36   C41   A    
C33   O14   A    
C14   C30   S    
Cu4   O8    S    
Cu5   O16   S    
C51   H24   S    
C54   H21   S    
C44   C46   A    
Cu1   O22   S    
Cu6   O10   S    
C13   H4    S    
C7    H31   S    
C33   C40   S    
C29   O5    A    
C21   H10   S    
C51   C52   S    
Cu3   O7    S    
C39   H16   S    
C52   H26   S    
C8    H32   S    
C24   C25   S    
C39   C40   A    
Cu6   O13   S    
C43   H18   S    
C45   H1    S    
Cu2   O23   S    
C48   H22   S    
C25   H13   S    
C31   O9    A    
C19   C23   S    
C37   C38   A    
C47   C48   A    
C1    O1    A    
C30   O8    A    
C50   C51   S    
C10   C34   S    
C16   H5    S    
C26   Br1   S    
C6    C7    S    
C35   O16   A    
C8    H2    S    
Cu4   O2    S    
C9    C17   S    
C48   C49   A    
C45   C54   S    
Cu3   O24   S    
C32   O11   A    
Cu2   O21   S    
C43   H19   S    
C22   C24   A    
C33   O15   A    
C42   C43   S    
C3    C4    A    
C12   O18   A    
C35   O17   A    
C12   O19   A    
C27   O24   A    
C28   O4    A    
C46   C47   A    
C40   C41   A    
C29   O6    A    
C52   H25   S    
C6    C56   A    
C4    C5    A    
Cu4   O6    S    
C28   C53   S    
Cu1   O20   S    
C38   H15   S    
C29   C46   S    
C31   O10   A    
C4    H29   S    
C2    C3    A    
C25   C26   S    
C55   H27   S    
C2    C56   A    
C23   O20   A    
C11   C13   A    
C42   Br2   S    
Cu1   Cu2   S    
C5    C6    A    
Cu6   O15   S    
C27   C37   S    
Cu3   O3    S    
C7    H30   S    
C30   O7    A    
C25   H11   S    
C9    C15   A    
Cu5   Cu6   S    
C12   C55   S    
C10   C11   A    
C23   O21   A    
C17   H8    S    
C20   C21   A    
C49   C50   A    
Cu1   O1    S    
C14   C15   A    
C36   C43   S    
Cu2   O12   S    
C13   C14   A    
C11   H3    S    
