data_mof_unit_67934.cif
_audit_creation_date              2013-03-05T16:18:24-0500
_audit_creation_method            fapswitch 2.2
_symmetry_space_group_name_H-M    P1
_symmetry_Int_Tables_number       1
_space_group_crystal_system       triclinic
_cell_length_a                    10.803923
_cell_length_b                    9.992983
_cell_length_c                    10.673267
_cell_angle_alpha                 90.126657
_cell_angle_beta                  87.601411
_cell_angle_gamma                 89.191897
_cell_volume                      1151.19376688

loop_
_atom_site_label
_atom_site_type_symbol
_atom_site_description
_atom_site_fract_x
_atom_site_fract_y
_atom_site_fract_z
_atom_type_partial_charge
O1    O     O_R   0.314910 0.616040 0.499970 -0.612215
O2    O     O_R   0.314910 0.383960 0.499970 -0.626004
C1    C     C_R   0.258556 0.500478 0.504509 0.892520
O3    O     O_R   0.500080 0.616020 0.313900 -0.535020
O4    O     O_R   0.500080 0.383980 0.313900 -0.592730
C2    C     C_R   0.494565 0.499872 0.258599 0.947703
Zn1   Zn    Zn3+2 0.500150 0.654960 0.499940 1.064959
Zn2   Zn    Zn3+2 0.500150 0.345040 0.499940 1.048176
O5    O     O_R   0.685320 0.616040 0.499930 -0.579569
O6    O     O_R   0.685320 0.383960 0.499930 -0.598054
O7    O     O_R   0.500150 0.616060 0.686000 -0.553817
O8    O     O_R   0.500150 0.383940 0.686000 -0.581683
C3    C     C_R   0.742209 0.499945 0.498824 0.854551
C4    C     C_R   0.500425 0.500294 0.742151 0.989126
C5    C     C_3   0.427550 0.607614 0.044109 0.460926
C6    C     C_3   0.437737 0.391116 0.041466 0.530033
C7    C     C_3   0.374400 0.496843 0.960386 -0.478520
H1    H     H_    0.279646 0.487072 0.926215 0.260370
C8    C     C_3   0.495702 0.501448 0.878028 -0.272842
C9    C     C_3   0.547151 0.613157 0.961390 0.488612
C10   C     C_3   0.557209 0.395509 0.959007 0.515997
C11   C     C_3   0.611230 0.505312 0.041865 -0.533960
C12   C     C_3   0.490475 0.499689 0.123823 -0.270305
H2    H     H_    0.705071 0.507300 0.080443 0.199069
C13   C     C_3   0.062894 0.603868 0.607442 0.240478
C14   C     C_3   0.069521 0.356071 0.525418 0.150082
H3    H     H_    0.082336 0.706674 0.572005 0.155278
H4    H     H_    0.105072 0.296470 0.442451 0.109668
C15   C     C_3   0.920199 0.589032 0.612432 -0.453641
C16   C     C_3   0.929597 0.360437 0.521689 -0.355908
H5    H     H_    0.885432 0.541445 0.700654 0.187531
H6    H     H_    0.888427 0.321448 0.611005 0.227673
H7    H     H_    0.877278 0.689943 0.609183 0.249722
H8    H     H_    0.904734 0.299270 0.441458 0.253051
H9    H     H_    0.116643 0.652092 0.360184 0.222335
H10   H     H_    0.119041 0.483843 0.302890 0.172975
H11   H     H_    0.908045 0.657422 0.358245 0.280513
H12   H     H_    0.907585 0.491790 0.296178 0.185409
C17   C     C_3   0.080523 0.550233 0.379047 -0.589532
C18   C     C_3   0.121848 0.501345 0.509116 -0.071295
C19   C     C_3   0.879577 0.501996 0.501455 -0.012887
C20   C     C_3   0.937932 0.553806 0.375752 -0.336709
C21   C     C_3   0.382205 0.081377 0.450821 -0.314161
C22   C     C_3   0.390869 0.922697 0.433139 -0.342129
H13   H     H_    0.350119 0.135108 0.368213 0.204347
H14   H     H_    0.388369 0.896923 0.333652 0.252007
H15   H     H_    0.302725 0.103779 0.515237 0.265876
H16   H     H_    0.303507 0.875070 0.465310 0.224004
C23   C     C_3   0.605654 0.078543 0.411052 0.354907
C24   C     C_3   0.616229 0.914411 0.427882 0.370402
C25   C     C_3   0.506350 0.075650 0.627910 0.070129
C26   C     C_3   0.487197 0.918044 0.627316 0.101884
N1    N     N_3   0.499750 0.138610 0.497240 -0.190624
N2    N     N_3   0.499750 0.861390 0.497240 -0.215576
H17   H     H_    0.596904 0.090943 0.665637 0.171169
H18   H     H_    0.556776 0.870817 0.684979 0.208674
N3    N     N_R   0.586833 0.120487 0.277457 0.245412
O9    O     O_R   0.490454 0.088130 0.216170 -0.330576
O10   O     O_R   0.662632 0.202733 0.220148 -0.316548
N4    N     N_R   0.632591 0.844278 0.303762 0.227039
O11   O     O_R   0.556513 0.858691 0.214072 -0.363934
O12   O     O_R   0.714551 0.748688 0.287470 -0.417597
N5    N     N_R   0.423590 0.137426 0.725354 0.268856
O13   O     O_R   0.437195 0.104939 0.842054 -0.275530
O14   O     O_R   0.332237 0.216232 0.699453 -0.277056
N6    N     N_R   0.371044 0.878538 0.694875 0.271680
O15   O     O_R   0.380485 0.818010 0.801264 -0.346086
O16   O     O_R   0.263550 0.930564 0.671113 -0.341014
N7    N     N_R   0.728454 0.131167 0.441196 0.222462
O17   O     O_R   0.819926 0.112593 0.358953 -0.348138
O18   O     O_R   0.758613 0.149825 0.556045 -0.431180
N8    N     N_R   0.732305 0.881241 0.497126 0.226788
O19   O     O_R   0.838093 0.871119 0.434489 -0.320172
O20   O     O_R   0.742126 0.899860 0.616507 -0.475161
O21   O     O_3   0.366457 0.713626 0.111181 -0.585017
C27   C     C_3   0.270808 0.774185 0.044357 0.239686
H19   H     H_    0.243710 0.717627 0.960767 0.222119
H20   H     H_    0.301082 0.875689 0.015526 0.244515
C28   C     C_3   0.155211 0.790500 0.129243 -0.889674
H21   H     H_    0.178522 0.836157 0.220087 0.262076
H22   H     H_    0.086952 0.856372 0.083501 0.247672
H23   H     H_    0.112625 0.691323 0.145248 0.256110
O22   O     O_3   0.382538 0.269552 0.078496 -0.468445
C29   C     C_3   0.267924 0.293590 0.144155 0.122139
H24   H     H_    0.211680 0.374755 0.102462 0.121214
H25   H     H_    0.283952 0.320273 0.242973 0.123939
C30   C     C_3   0.191013 0.167235 0.142217 -0.714751
H26   H     H_    0.242397 0.082015 0.182821 0.261469
H27   H     H_    0.102878 0.183368 0.197909 0.206972
H28   H     H_    0.169409 0.141964 0.044180 0.283520
O23   O     O_3   0.594664 0.730669 0.904701 -0.571043
C31   C     C_3   0.694383 0.782027 0.969977 0.181260
H29   H     H_    0.697533 0.746881 0.067323 0.218974
H30   H     H_    0.685452 0.892895 0.972691 0.223143
C32   C     C_3   0.816381 0.743645 0.903801 -0.831032
H31   H     H_    0.821826 0.786992 0.808577 0.302037
H32   H     H_    0.894291 0.782165 0.957442 0.253455
H33   H     H_    0.823770 0.633045 0.897996 0.254929
O24   O     O_3   0.616854 0.274965 0.920292 -0.508815
C33   C     C_3   0.734572 0.299807 0.863921 0.075843
H34   H     H_    0.787828 0.374441 0.916208 0.138149
H35   H     H_    0.724413 0.335506 0.766509 0.143699
C34   C     C_3   0.809741 0.169821 0.861318 -0.607607
H36   H     H_    0.759967 0.090537 0.811844 0.273640
H37   H     H_    0.900929 0.185238 0.812446 0.257822
H38   H     H_    0.825059 0.136106 0.958629 0.248133
N9    N     N_R   0.116778 0.596918 0.731419 0.238957
O25   O     O_R   0.048398 0.588051 0.834186 -0.429658
O26   O     O_R   0.233579 0.620447 0.740870 -0.383241
N10   N     N_R   0.104598 0.281323 0.636771 0.243884
O27   O     O_R   0.099846 0.337071 0.746827 -0.344274
O28   O     O_R   0.097483 0.151530 0.631983 -0.324018

loop_
_geom_bond_atom_site_label_1
_geom_bond_atom_site_label_2
_geom_bond_distance
_ccdc_geom_bond_type
N6    O16   1.300603 A    
C30   H26   1.108896 S    
N5    O14   1.293291 A    
C6    C10   1.532730 S    
C19   C20   1.551471 S    
C5    O21   1.416960 S    
C32   H31   1.105323 S    
C29   C30   1.521886 S    
C21   C22   1.597429 S    
C3    C19   1.485978 S    
C32   H33   1.108388 S    
Zn1   O7    2.024400 S    
C24   N2    1.534584 S    
N4    O12   1.299733 A    
C8    C10   1.530233 S    
C29   H25   1.108534 S    
H12   C20   1.113381 S    
C13   C18   1.574032 S    
O4    C2    1.302751 A    
C10   O24   1.410917 S    
O7    C4    1.304068 A    
N3    O10   1.303669 A    
C15   H7    1.105175 S    
C23   N3    1.508218 S    
C5    C7    1.552437 S    
H11   C20   1.098984 S    
N7    O18   1.295252 A    
C24   N8    1.515171 S    
N10   O27   1.297711 A    
C31   H29   1.099218 S    
O5    C3    1.305004 A    
C21   N1    1.502410 S    
O24   C33   1.409483 S    
C22   H14   1.093602 S    
C6    C7    1.538392 S    
N9    O25   1.300457 A    
C27   C28   1.518581 S    
C16   C19   1.526217 S    
C14   N10   1.465515 S    
C5    C12   1.543040 S    
N6    O15   1.294848 A    
C23   N7    1.481517 S    
C10   C11   1.543921 S    
N9    O26   1.294915 A    
O3    Zn1   2.022613 S    
C33   H35   1.109234 S    
C26   N2    1.498332 S    
C17   C20   1.542336 S    
C13   C15   1.549565 S    
C5    C9    1.535899 S    
C9    O23   1.415176 S    
C16   H8    1.095730 S    
C25   C26   1.591415 S    
C25   N5    1.471733 S    
C29   H24   1.111505 S    
O3    C2    1.304201 A    
C17   C18   1.553707 S    
C28   H22   1.110572 S    
C33   C34   1.521764 S    
C28   H21   1.110609 S    
N4    O11   1.294550 A    
O1    C1    1.313106 A    
H9    C17   1.111034 S    
O21   C27   1.410247 S    
C28   H23   1.109112 S    
O22   C29   1.414346 S    
Zn2   O8    2.022714 S    
C31   H30   1.110942 S    
C7    H1    1.106546 S    
C34   H37   1.108173 S    
C27   H19   1.106986 S    
C21   H13   1.099223 S    
N8    O20   1.296242 A    
C9    C11   1.552834 S    
C1    C18   1.475642 S    
C14   C16   1.513933 S    
C6    C12   1.526308 S    
C30   H27   1.110808 S    
C11   H2    1.110534 S    
O23   C31   1.409380 S    
C26   N6    1.479892 S    
C13   N9    1.469166 S    
Zn1   O5    2.032620 S    
C15   C19   1.549783 S    
O1    Zn1   2.044124 S    
C4    C8    1.449029 S    
H10   C17   1.111555 S    
O2    Zn2   2.033354 S    
C27   H20   1.110336 S    
N8    O19   1.302283 A    
O6    C3    1.319402 A    
Zn2   N1    2.063058 S    
C6    O22   1.410812 S    
O4    Zn2   2.024297 S    
C32   H32   1.110393 S    
C13   H3    1.115240 S    
C14   H4    1.117653 S    
C24   N4    1.500068 S    
C8    C9    1.549599 S    
O2    C1    1.306163 A    
O8    C4    1.307015 A    
C15   H5    1.109627 S    
C16   H6    1.108812 S    
C14   C18   1.572706 S    
N3    O9    1.297026 A    
C26   H18   1.093898 S    
C23   N1    1.551052 S    
C2    C12   1.441031 S    
C33   H34   1.111704 S    
C7    C8    1.548477 S    
C34   H38   1.110850 S    
C25   H17   1.086076 S    
C31   C32   1.513233 S    
N7    O17   1.305042 A    
N10   O28   1.301400 A    
N5    O13   1.301620 A    
C22   N2    1.508668 S    
Zn2   O6    2.043389 S    
C23   C24   1.653245 S    
C30   H28   1.110890 S    
C34   H36   1.108899 S    
C11   C12   1.541808 S    
Zn1   N2    2.063064 S    
C25   N1    1.535245 S    
C21   H15   1.097560 S    
C22   H16   1.105239 S    
