data_mof_unit_53213.cif
_audit_creation_date              2012-10-26T20:58:18-0400
_audit_creation_method            fapswitch 2.2
_symmetry_space_group_name_H-M    P1
_symmetry_Int_Tables_number       1
_space_group_crystal_system       triclinic
_cell_length_a                    10.618881
_cell_length_b                    14.814043
_cell_length_c                    14.935999
_cell_angle_alpha                 64.23013
_cell_angle_beta                  105.524336
_cell_angle_gamma                 103.028715
_cell_volume                      2022.52365828

loop_
_atom_site_label
_atom_site_type_symbol
_atom_type_description
_atom_site_fract_x
_atom_site_fract_y
_atom_site_fract_z
_atom_type_partial_charge
C1    C     C_R   0.479336 0.119731 0.312586 0.551924
C2    C     C_R   0.533078 0.532439 0.949313 0.039944
C3    C     C_R   0.505424 0.490543 0.876004 -0.100358
C4    C     C_R   0.593765 0.507580 0.127364 -0.098318
C5    C     C_R   0.481470 0.386854 0.903322 -0.091799
C6    C     C_R   0.619942 0.611217 0.100079 -0.087668
C7    C     C_R   0.753942 0.302479 0.637713 0.270228
C8    C     C_R   0.245845 0.697475 0.362471 0.272390
C9    C     C_R   0.699498 0.210411 0.628741 0.378922
C10   C     C_R   0.300546 0.789623 0.371216 0.379991
C11   C     C_R   0.510778 0.283430 0.513751 0.315796
C12   C     C_R   0.523382 0.880222 0.687499 0.549694
C13   C     C_R   0.489055 0.716475 0.486430 0.315904
C14   C     C_R   0.552329 0.373049 0.533156 -0.072214
C15   C     C_R   0.447386 0.626809 0.467132 -0.070994
C16   C     C_R   0.259719 0.999296 0.500452 0.574374
C17   C     C_R   0.740268 0.000728 0.499506 0.572282
C18   C     C_R   0.685245 0.387801 0.580924 -0.027114
C19   C     C_R   0.314454 0.612087 0.419359 -0.022846
C20   C     C_R   0.470906 0.451251 0.501433 -0.016543
C21   C     C_R   0.528771 0.548583 0.498908 -0.017813
C22   C     C_R   0.666801 0.566633 0.520521 -0.038290
C23   C     C_R   0.504462 0.291793 0.179707 -0.103191
C24   C     C_R   0.332871 0.433220 0.479781 -0.034232
C25   C     C_R   0.744203 0.487875 0.566030 0.289742
C26   C     C_R   0.255474 0.512002 0.434265 0.293971
C27   C     C_3   0.008835 0.915918 0.491942 0.261854
C28   C     C_3   0.991116 0.084146 0.507939 0.261754
C29   C     C_3   0.923945 0.998132 0.412388 -0.135075
C30   C     C_3   0.076002 0.001933 0.587497 -0.134322
C31   C     C_3   0.877385 0.001995 0.499381 -0.004506
C32   C     C_3   0.122574 0.998065 0.500510 -0.004701
C33   C     C_3   0.960285 0.918942 0.578804 -0.120782
C34   C     C_R   0.521792 0.707666 0.821301 -0.097160
C35   C     C_3   0.039669 0.081117 0.421081 -0.121411
C36   C     C_R   0.475805 0.187645 0.205534 0.007485
C37   C     C_R   0.545311 0.811953 0.795200 0.006751
C38   C     C_R   0.451541 0.216810 0.029721 -0.101641
C39   C     C_R   0.618404 0.781861 0.972598 -0.102224
C40   C     C_R   0.449601 0.150268 0.130047 -0.105114
C41   C     C_R   0.593910 0.848902 0.871387 -0.103706
C42   C     C_R   0.512154 0.360151 0.079954 0.034656
C43   C     C_R   0.551193 0.638616 0.922236 0.036381
C44   C     C_R   0.481712 0.321254 0.004043 0.055404
C45   C     C_R   0.596762 0.677245 0.998596 0.050789
C46   C     C_R   0.545706 0.466034 0.053399 0.038001
Cl1   Cl    Cl    0.620598 0.717625 0.587846 -0.590230
Cl2   Cl    Cl    0.083598 0.475489 0.415473 -0.368387
Cl3   Cl    Cl    0.379227 0.282287 0.412357 -0.579310
Cl4   Cl    Cl    0.217903 0.896905 0.295573 -0.450023
Cl5   Cl    Cl    0.782644 0.103341 0.703975 -0.457801
Cl6   Cl    Cl    0.898412 0.303790 0.730173 -0.393335
Cl7   Cl    Cl    0.101107 0.696135 0.270228 -0.403682
Cl8   Cl    Cl    0.016731 0.801490 0.482695 -0.431829
Cl9   Cl    Cl    0.983198 0.198618 0.517087 -0.431304
Cl10  Cl    Cl    0.916071 0.524410 0.584679 -0.363435
Cu1   Cu    Cu3+1 0.465750 0.918270 0.475680 1.123620
Cu2   Cu    Cu3+1 0.534250 0.081730 0.524320 1.121835
H1    H     H_    0.460804 0.357920 0.844823 0.137050
H2    H     H_    0.074813 0.147750 0.357028 0.187066
H3    H     H_    0.612758 0.929334 0.852939 0.177328
H4    H     H_    0.427548 0.069887 0.148388 0.170117
H5    H     H_    0.429545 0.186622 0.972113 0.136725
H6    H     H_    0.654515 0.811794 0.030639 0.143292
H7    H     H_    0.505612 0.535806 0.796756 0.150301
H8    H     H_    0.616419 0.461982 0.207408 0.142437
H9    H     H_    0.656900 0.639853 0.159095 0.151806
H10   H     H_    0.477333 0.681821 0.761518 0.164185
H11   H     H_    0.517680 0.318173 0.238646 0.168261
H12   H     H_    0.859517 0.996035 0.341079 0.160969
H13   H     H_    0.140407 0.004045 0.658806 0.162436
H14   H     H_    0.716801 0.642861 0.499942 0.218115
H15   H     H_    0.282870 0.356995 0.500286 0.217660
H16   H     H_    0.925120 0.852316 0.642855 0.186700
N1    N     N_R   0.585750 0.204560 0.560800 -0.250813
N2    N     N_R   0.414250 0.795440 0.439200 -0.250392
O1    O     O_R   0.454850 0.022100 0.338110 -0.483931
O2    O     O_R   0.545150 0.977900 0.661890 -0.485591
O3    O     O_R   0.512700 0.160150 0.379180 -0.465922
O4    O     O_R   0.487300 0.839850 0.620820 -0.464375
O5    O     O_R   0.287930 0.931000 0.479440 -0.429800
O6    O     O_R   0.712070 0.069000 0.520560 -0.430518
O7    O     O_R   0.345780 0.069050 0.520520 -0.467298
O8    O     O_R   0.654220 0.930950 0.479480 -0.468143

loop_
_geom_bond_atom_site_label_1
_geom_bond_atom_site_label_2
_ccdc_geom_bond_type
C30   C32   S    
C6    C45   A    
C27   C29   S    
C34   C37   A    
C1    O1    A    
C23   H11   S    
C9    Cl5   S    
C25   Cl10  S    
C41   H3    S    
C30   H13   S    
C27   Cl8   S    
C39   C41   A    
C4    C46   A    
C27   C33   S    
C15   C19   A    
C39   H6    S    
C23   C42   A    
Cu1   N2    S    
C24   C26   A    
C7    Cl6   S    
C29   H12   S    
Cu2   O6    S    
C11   C14   A    
C24   H15   S    
C40   H4    S    
C17   O6    A    
C42   C46   A    
C12   C37   S    
C19   C26   A    
C14   C18   A    
C10   N2    A    
C20   C24   A    
C28   C35   S    
C22   C25   A    
C12   O2    A    
C31   C33   S    
C26   Cl2   S    
C39   C45   A    
C21   C22   A    
Cu1   O4    S    
C3    H7    S    
C18   C25   A    
C42   C44   A    
C22   H14   S    
C28   Cl9   S    
Cu2   N1    S    
C8    C19   A    
C5    H1    S    
C32   C35   S    
Cu1   O1    S    
C36   C40   A    
C4    C6    A    
C34   H10   S    
C13   Cl1   S    
C16   O7    A    
C2    C46   A    
C35   H2    S    
C38   C44   A    
C11   Cl3   S    
C14   C20   A    
C13   N2    A    
C2    C43   A    
C7    C18   A    
Cu1   O8    S    
C43   C45   A    
Cu2   O3    S    
C6    H9    S    
C5    C44   A    
C13   C15   A    
C17   C31   S    
Cu1   O5    S    
C10   Cl4   S    
C38   H5    S    
C7    C9    A    
C30   C33   S    
C27   C32   S    
C28   C31   S    
C34   C43   A    
C3    C5    A    
C8    Cl7   S    
C16   C32   S    
C29   C35   S    
C17   O8    A    
C28   C30   S    
C2    C3    A    
C29   C31   S    
C11   N1    A    
Cu2   O7    S    
C38   C40   A    
Cu1   Cu2   S    
C1    O3    A    
C12   O4    A    
C16   O5    A    
C37   C41   A    
Cu2   O2    S    
C33   H16   S    
C15   C21   A    
C20   C21   A    
C4    H8    S    
C8    C10   A    
C23   C36   A    
C9    N1    A    
C1    C36   S    
