data_mof_unit_49686.cif
_audit_creation_date              2012-12-10T19:09:31-0500
_audit_creation_method            fapswitch 2.2
_symmetry_space_group_name_H-M    P1
_symmetry_Int_Tables_number       1
_space_group_crystal_system       triclinic
_cell_length_a                    15.003894
_cell_length_b                    15.4709
_cell_length_c                    9.672989
_cell_angle_alpha                 90.07162
_cell_angle_beta                  90.006205
_cell_angle_gamma                 90.305078
_cell_volume                      2245.29682111

loop_
_atom_site_label
_atom_site_type_symbol
_atom_type_description
_atom_site_fract_x
_atom_site_fract_y
_atom_site_fract_z
_atom_type_partial_charge
Br1   Br    Br    0.290733 0.575955 0.690932 -0.380401
Br2   Br    Br    0.058502 0.808069 0.359364 -0.460006
Br3   Br    Br    0.037545 0.185761 0.451616 -0.477475
Br4   Br    Br    0.109387 0.226714 0.746010 -0.517410
Br5   Br    Br    0.566818 0.299338 0.680706 -0.501118
Br6   Br    Br    0.558506 0.308058 0.359331 -0.460022
Br7   Br    Br    0.537552 0.685775 0.451546 -0.477499
Br8   Br    Br    0.609357 0.726706 0.745970 -0.517431
Br9   Br    Br    0.300570 0.586337 0.320978 -0.305257
Br10  Br    Br    0.249888 0.377209 0.212417 -0.405899
Br11  Br    Br    0.353274 0.415148 0.505251 -0.225157
Br12  Br    Br    0.790726 0.075970 0.690962 -0.380391
Br13  Br    Br    0.800591 0.086331 0.321033 -0.305205
Br14  Br    Br    0.749921 0.877245 0.212457 -0.405860
Br15  Br    Br    0.853283 0.915147 0.505327 -0.225154
Br16  Br    Br    0.066825 0.799323 0.680734 -0.501103
C1    C     C_R   0.121707 0.378202 0.498927 0.991494
C2    C     C_R   0.874518 0.616533 0.499708 0.913602
C3    C     C_R   0.376561 0.881106 0.499954 0.918649
C4    C     C_R   0.374517 0.116532 0.499707 0.913602
C5    C     C_3   0.824399 0.251449 0.620425 -0.361293
C6    C     C_3   0.807575 0.266738 0.360728 -0.399481
C7    C     C_3   0.798007 0.722548 0.351103 -0.371163
C8    C     C_3   0.827831 0.750768 0.608344 -0.383583
C9    C     C_3   0.324412 0.751436 0.620407 -0.361307
C10   C     C_3   0.307568 0.766743 0.360719 -0.399480
C11   C     C_3   0.297988 0.222529 0.351090 -0.371159
C12   C     C_R   0.119093 0.623627 0.500577 1.004487
C13   C     C_3   0.327841 0.250777 0.608316 -0.383562
C14   C     C_3   0.247727 0.687561 0.632855 0.114687
C15   C     C_3   0.240338 0.693024 0.363934 0.129227
C16   C     C_3   0.219753 0.284901 0.342748 0.127141
C17   C     C_3   0.271593 0.331094 0.585509 0.153119
C18   C     C_3   0.747717 0.187571 0.632868 0.114685
C19   C     C_3   0.740347 0.193017 0.363947 0.129241
C20   C     C_3   0.719774 0.784922 0.342754 0.127111
C21   C     C_3   0.771588 0.831089 0.585541 0.153120
C22   C     C_3   0.713876 0.357162 0.517840 -0.436074
C23   C     C_R   0.621711 0.878206 0.498928 0.991513
C24   C     C_3   0.713136 0.643846 0.536838 -0.441315
C25   C     C_3   0.213880 0.857158 0.517866 -0.436084
C26   C     C_3   0.213140 0.143843 0.536868 -0.441310
C27   C     C_3   0.806778 0.315301 0.500109 -0.049704
C28   C     C_3   0.804691 0.682060 0.498443 -0.058938
C29   C     C_3   0.306781 0.815297 0.500109 -0.049716
C30   C     C_3   0.304689 0.182057 0.498441 -0.058957
C31   C     C_3   0.185494 0.694311 0.502567 -0.147666
C32   C     C_3   0.188005 0.306740 0.494649 -0.170689
C33   C     C_3   0.685493 0.194312 0.502569 -0.147670
C34   C     C_R   0.619093 0.123627 0.500577 1.004476
C35   C     C_3   0.688010 0.806746 0.494651 -0.170669
C36   C     C_3   0.139655 0.786099 0.513803 0.380504
C37   C     C_3   0.145071 0.219178 0.552040 0.400458
C38   C     C_3   0.639653 0.286101 0.513783 0.380504
C39   C     C_3   0.645067 0.719180 0.552009 0.400453
C40   C     C_3   0.005083 0.411103 0.081153 -0.222450
C41   C     C_3   0.007833 0.411429 0.918644 -0.206698
C42   C     C_3   0.073624 0.552102 0.918769 -0.230929
C43   C     C_3   0.074277 0.551179 0.081298 -0.216911
C44   C     C_3   0.505192 0.911109 0.081151 -0.222436
C45   C     C_3   0.915699 0.538014 0.081563 -0.238533
C46   C     C_3   0.507958 0.911438 0.918642 -0.206642
C47   C     C_3   0.573553 0.052203 0.918770 -0.230972
C48   C     C_3   0.574217 0.051266 0.081299 -0.216974
C49   C     C_3   0.915016 0.536552 0.918705 -0.231908
C50   C     C_3   0.415649 0.037916 0.081564 -0.238514
C51   C     C_3   0.414960 0.036441 0.918705 -0.231911
C52   C     C_R   0.876559 0.381109 0.499954 0.918633
H1    H     H_    0.831243 0.286020 0.720969 0.177127
H2    H     H_    0.875486 0.242997 0.337109 0.251192
H3    H     H_    0.861635 0.756316 0.326590 0.271933
H4    H     H_    0.899581 0.765884 0.604216 0.260021
H5    H     H_    0.387551 0.716746 0.602646 0.277866
H6    H     H_    0.375476 0.743000 0.337089 0.251200
H7    H     H_    0.361614 0.256295 0.326550 0.271928
H8    H     H_    0.399590 0.265895 0.604155 0.260024
H9    H     H_    0.209554 0.705573 0.726464 0.166646
H10   H     H_    0.194689 0.701643 0.274595 0.155602
H11   H     H_    0.164812 0.251680 0.286935 0.168503
H12   H     H_    0.789679 0.311624 0.275141 0.174619
H13   H     H_    0.250778 0.357102 0.687701 0.175489
H14   H     H_    0.709536 0.205583 0.726469 0.166646
H15   H     H_    0.694705 0.201625 0.274596 0.155594
H16   H     H_    0.664839 0.751706 0.286918 0.168497
H17   H     H_    0.750762 0.857088 0.687733 0.175470
H18   H     H_    0.712664 0.393369 0.617273 0.206111
H19   H     H_    0.703092 0.405920 0.435127 0.203194
H20   H     H_    0.692386 0.597380 0.454858 0.204549
H21   H     H_    0.717934 0.605637 0.633933 0.211993
H22   H     H_    0.212675 0.893354 0.617308 0.206111
H23   H     H_    0.787775 0.671635 0.271048 0.168839
H24   H     H_    0.203091 0.905924 0.435168 0.203192
H25   H     H_    0.192381 0.097370 0.454903 0.204547
H26   H     H_    0.217949 0.105643 0.633970 0.211996
H27   H     H_    0.947426 0.371548 0.116934 0.161138
H28   H     H_    0.954192 0.368872 0.877145 0.176653
H29   H     H_    0.068746 0.619972 0.881802 0.190076
H30   H     H_    0.070993 0.618784 0.120156 0.176703
H31   H     H_    0.447578 0.871489 0.116921 0.161152
H32   H     H_    0.454382 0.868807 0.877127 0.176738
H33   H     H_    0.568573 0.120070 0.881814 0.190088
H34   H     H_    0.815453 0.725110 0.714239 0.193879
H35   H     H_    0.570856 0.118865 0.120174 0.176742
H36   H     H_    0.065434 0.378763 0.121557 0.203203
H37   H     H_    0.072143 0.383648 0.884371 0.210839
H38   H     H_    0.137965 0.526691 0.879413 0.201686
H39   H     H_    0.138359 0.524490 0.118981 0.219929
H40   H     H_    0.565577 0.878835 0.121563 0.203240
H41   H     H_    0.572316 0.883743 0.884384 0.210782
H42   H     H_    0.637933 0.026883 0.879403 0.201681
H43   H     H_    0.638334 0.024639 0.118966 0.219860
H44   H     H_    0.856692 0.502284 0.122018 0.156400
H45   H     H_    0.331270 0.785998 0.720955 0.177149
H46   H     H_    0.856896 0.498249 0.881057 0.157647
H47   H     H_    0.905731 0.603539 0.879953 0.178591
H48   H     H_    0.908973 0.605935 0.117661 0.173866
H49   H     H_    0.356685 0.002120 0.122030 0.156397
H50   H     H_    0.356893 0.998053 0.881070 0.157632
H51   H     H_    0.405573 0.103414 0.879943 0.178561
H52   H     H_    0.408840 0.105832 0.117648 0.173829
H53   H     H_    0.289670 0.811636 0.275142 0.174628
H54   H     H_    0.287746 0.171607 0.271053 0.168836
H55   H     H_    0.315479 0.225130 0.714223 0.193898
H56   H     H_    0.887543 0.216762 0.602689 0.277858
N1    N     N_3   0.998760 0.500000 0.138610 -0.062701
N2    N     N_3   0.998760 0.500000 0.861390 -0.068221
N3    N     N_3   0.498760 1.000000 0.138610 -0.062684
N4    N     N_3   0.498760 0.000000 0.861390 -0.068203
O1    O     O_R   0.092530 0.407440 0.616040 -0.606770
O2    O     O_R   0.907330 0.407420 0.383960 -0.640598
O3    O     O_R   0.907330 0.592580 0.383960 -0.636435
O4    O     O_R   0.907330 0.592580 0.616040 -0.634038
O5    O     O_R   0.407330 0.907420 0.616040 -0.635021
O6    O     O_R   0.407330 0.907420 0.383960 -0.640590
O7    O     O_R   0.407330 0.092580 0.383960 -0.636425
O8    O     O_R   0.407330 0.092580 0.616040 -0.634034
O9    O     O_R   0.092530 0.407440 0.383960 -0.589226
O10   O     O_R   0.092530 0.592560 0.383960 -0.610211
O11   O     O_R   0.092530 0.592560 0.616040 -0.607180
O12   O     O_R   0.592530 0.907440 0.616040 -0.606780
O13   O     O_R   0.592530 0.907440 0.383960 -0.589243
O14   O     O_R   0.592530 0.092560 0.383960 -0.610217
O15   O     O_R   0.592530 0.092560 0.616040 -0.607184
O16   O     O_R   0.907330 0.407420 0.616040 -0.635021
Zn1   Zn    Zn3+2 0.999890 0.500000 0.654960 0.959653
Zn2   Zn    Zn3+2 0.999890 0.500000 0.345040 0.963142
Zn3   Zn    Zn3+2 0.499890 1.000000 0.654960 0.959653
Zn4   Zn    Zn3+2 0.499890 1.000000 0.345040 0.963147

loop_
_geom_bond_atom_site_label_1
_geom_bond_atom_site_label_2
_ccdc_geom_bond_type
C40   H27   S    
C23   C35   S    
C12   C31   S    
Br4   C37   S    
C48   H35   S    
C26   H25   S    
C49   H47   S    
C49   H46   S    
C2    O4    A    
C1    C32   S    
Br7   C39   S    
C47   H33   S    
C44   H31   S    
C13   H8    S    
C50   N3    S    
C3    O6    A    
O15   Zn3   S    
C6    C19   S    
C12   O11   A    
C22   H18   S    
Br10  C16   S    
O4    Zn1   S    
C21   H17   S    
C9    H5    S    
O10   Zn2   S    
Br13  C19   S    
C9    H45   S    
N1    Zn2   S    
C26   C37   S    
Br14  C20   S    
C21   C35   S    
O2    Zn2   S    
C33   C38   S    
C7    C20   S    
C13   C17   S    
C40   C41   S    
Br8   C39   S    
O3    Zn2   S    
C44   C46   S    
C26   C30   S    
Br15  C21   S    
C10   C29   S    
C5    C27   S    
C14   H9    S    
C11   H54   S    
C5    H56   S    
C23   O13   A    
C27   C52   S    
C41   H28   S    
C19   C33   S    
O5    Zn3   S    
C10   H53   S    
C24   H21   S    
C25   C36   S    
O1    Zn1   S    
C47   N4    S    
C44   H40   S    
N3    Zn4   S    
C48   N3    S    
C50   C51   S    
C10   C15   S    
C15   C31   S    
C16   C32   S    
C2    O3    A    
C42   H29   S    
Br6   C38   S    
C11   H7    S    
O12   Zn3   S    
N2    Zn1   S    
C32   C37   S    
C41   H37   S    
C1    O1    A    
O14   Zn4   S    
O9    Zn2   S    
Br11  C17   S    
C12   O10   A    
C40   H36   S    
C41   N2    S    
C19   H15   S    
C48   H43   S    
C5    C18   S    
C42   C43   S    
C50   H49   S    
C43   H39   S    
C7    C28   S    
C5    H1    S    
C42   H38   S    
C2    C28   S    
C8    H34   S    
C14   C31   S    
C6    C27   S    
C22   C38   S    
C24   C39   S    
C45   H48   S    
C8    C21   S    
C40   N1    S    
C4    O8    A    
C52   O2    A    
C20   C35   S    
Br2   C36   S    
C46   H32   S    
C11   C30   S    
C42   N2    S    
C8    C28   S    
C7    H23   S    
C3    O5    A    
Br12  C18   S    
C9    C29   S    
C34   O15   A    
C8    H4    S    
C15   H10   S    
C9    C14   S    
C43   H30   S    
C23   O12   A    
O11   Zn1   S    
C18   C33   S    
C11   C16   S    
C26   H26   S    
C44   N3    S    
Br16  C36   S    
O16   Zn1   S    
C1    O9    A    
C3    C29   S    
N4    Zn3   S    
C31   C36   S    
C43   N1    S    
O6    Zn4   S    
C13   C30   S    
O13   Zn4   S    
C22   H19   S    
C49   N2    S    
C24   H20   S    
C47   H42   S    
C6    H12   S    
C22   C27   S    
C51   N4    S    
C16   H11   S    
C46   N4    S    
Br3   C37   S    
C46   H41   S    
C51   H51   S    
C20   H16   S    
Br5   C38   S    
C13   H55   S    
Br1   C14   S    
C10   H6    S    
C52   O16   A    
C35   C39   S    
O7    Zn4   S    
C4    O7    A    
C51   H50   S    
C50   H52   S    
O8    Zn3   S    
Br9   C15   S    
C47   C48   S    
C45   C49   S    
C24   C28   S    
C25   H24   S    
C7    H3    S    
C33   C34   S    
C17   C32   S    
C25   C29   S    
C45   N1    S    
C18   H14   S    
C45   H44   S    
C17   H13   S    
C6    H2    S    
C4    C30   S    
C34   O14   A    
C25   H22   S    
