data_mof_unit_5038.cif
_audit_creation_date              2012-12-11T16:37:09-0500
_audit_creation_method            fapswitch 2.2
_symmetry_space_group_name_H-M    P1
_symmetry_Int_Tables_number       1
_space_group_crystal_system       triclinic
_cell_length_a                    18.925798
_cell_length_b                    18.897094
_cell_length_c                    20.427919
_cell_angle_alpha                 106.817273
_cell_angle_beta                  106.771563
_cell_angle_gamma                 111.335731
_cell_volume                      5844.28410631

loop_
_atom_site_label
_atom_site_type_symbol
_atom_type_description
_atom_site_fract_x
_atom_site_fract_y
_atom_site_fract_z
_atom_type_partial_charge
C1    C     C_R   0.034648 0.087636 0.346267 -0.116810
C2    C     C_R   0.239516 0.075259 0.499588 -0.146721
C3    C     C_R   0.161619 0.182283 0.718862 -0.129879
C4    C     C_R   0.753990 0.928065 0.461286 -0.073297
C5    C     C_R   0.048780 0.802634 0.477808 -0.113589
C6    C     C_R   0.243074 0.204414 0.726151 0.093713
C7    C     C_R   0.032087 0.776525 0.531304 0.041766
C8    C     C_R   0.245210 0.007779 0.457956 0.056886
C9    C     C_R   0.942147 0.978317 0.714766 0.124859
C10   C     C_R   0.114601 0.511537 0.647875 -0.143743
C11   C     C_R   0.090144 0.426405 0.627331 -0.204340
C12   C     C_R   0.743748 0.998839 0.474681 0.072956
C13   C     C_R   0.062616 0.370533 0.551495 -0.068874
C14   C     C_R   0.061340 0.400992 0.495793 0.479286
C15   C     C_R   0.088901 0.486960 0.517934 -0.302995
C16   C     C_R   0.844934 0.778989 0.288606 -0.126124
C17   C     C_R   0.113551 0.541938 0.593071 0.056490
C18   C     C_R   0.164102 0.674729 0.579439 -0.152724
C19   C     C_R   0.140352 0.730162 0.560216 -0.145465
C20   C     C_R   0.071099 0.735495 0.568675 0.131909
C21   C     C_R   0.034714 0.694516 0.607257 -0.153170
C22   C     C_R   0.058841 0.639479 0.626808 -0.144143
C23   C     C_R   0.767181 0.730779 0.284913 0.064781
C24   C     C_R   0.118949 0.624550 0.607400 0.133803
C25   C     C_R   0.512153 0.927371 0.401170 0.567786
C26   C     C_R   0.588661 0.926932 0.423603 -0.276337
C27   C     C_R   0.663478 0.997133 0.441240 0.059185
C28   C     C_R   0.993983 0.232736 0.560860 -0.160832
C29   C     C_R   0.660975 0.065546 0.429325 -0.129230
C30   C     C_R   0.584756 0.066220 0.405060 -0.206179
C31   C     C_R   0.510896 0.999384 0.394048 -0.105802
C32   C     C_R   0.460735 0.076791 0.468960 -0.119560
C33   C     C_R   0.395174 0.076389 0.486309 -0.139168
C34   C     C_R   0.037945 0.281813 0.532416 0.140261
C35   C     C_R   0.311689 0.015506 0.433827 0.132842
C36   C     C_R   0.293541 0.961613 0.360417 -0.156633
C37   C     C_R   0.359580 0.963491 0.342344 -0.040796
C38   C     C_R   0.443115 0.016887 0.398729 0.141097
C39   C     C_R   0.318227 0.233089 0.795750 0.073682
C40   C     C_R   0.767945 0.773858 0.352758 -0.140309
C41   C     C_R   0.309455 0.218417 0.857276 -0.323985
C42   C     C_R   0.380399 0.253451 0.926419 0.549813
C43   C     C_R   0.461067 0.305420 0.934141 0.086543
C44   C     C_R   0.470195 0.311820 0.870304 -0.228529
C45   C     C_R   0.238778 0.188103 0.653923 -0.133136
C46   C     C_R   0.399380 0.276421 0.801625 -0.156889
C47   C     C_R   0.662117 0.511789 0.124654 -0.160413
C48   C     C_R   0.724438 0.591994 0.182137 -0.164667
C49   C     C_R   0.577144 0.482311 0.111973 0.256543
C50   C     C_R   0.703088 0.643760 0.227864 0.131027
C51   C     C_R   0.619266 0.612385 0.217838 -0.176688
C52   C     C_R   0.071665 0.238527 0.497239 -0.038525
C53   C     C_R   0.556909 0.532338 0.160147 -0.138132
C54   C     C_R   0.933780 0.027311 0.206197 0.054570
C55   C     C_R   0.856906 0.957858 0.147351 -0.320100
C56   C     C_R   0.971433 0.796539 0.542591 -0.119436
C57   C     C_R   0.820933 0.958831 0.077784 0.545407
C58   C     C_R   0.863449 0.029927 0.066940 0.082041
C59   C     C_R   0.933844 0.102898 0.128746 -0.208728
C60   C     C_R   0.969176 0.101674 0.198040 -0.082991
C61   C     C_R   0.918078 0.921861 0.869989 -0.135697
C62   C     C_R   0.935619 0.924377 0.809058 -0.226295
C63   C     C_R   0.878426 0.965502 0.895604 0.202845
C64   C     C_R   0.822666 0.069449 0.525009 -0.013367
C65   C     C_R   0.912991 0.970167 0.772342 -0.087586
C66   C     C_R   0.865812 0.008263 0.793042 0.544766
C67   C     C_R   0.170315 0.935325 0.433241 -0.130987
C68   C     C_R   0.850000 0.006707 0.855575 -0.276307
C69   C     C_R   0.965015 0.946806 0.281583 -0.125139
C70   C     C_R   0.978073 0.020987 0.274592 0.089105
C71   C     C_R   0.987316 0.052503 0.711770 -0.054796
C72   C     C_R   0.918226 0.912341 0.647215 -0.121620
H1    H     H_    0.056666 0.153960 0.361674 0.161819
H2    H     H_    0.091876 0.403918 0.670593 0.147032
H3    H     H_    0.705969 0.862939 0.424382 0.097669
H4    H     H_    0.085285 0.510229 0.475093 0.180164
H5    H     H_    0.211356 0.664312 0.564910 0.138928
H6    H     H_    0.172412 0.763830 0.533849 0.123831
H7    H     H_    0.982574 0.698570 0.616427 0.114118
H8    H     H_    0.023210 0.601076 0.648324 0.125717
H9    H     H_    0.590951 0.874131 0.432854 0.179190
H10   H     H_    0.718183 0.119583 0.441309 0.135538
H11   H     H_    0.584596 0.122133 0.401109 0.154211
H12   H     H_    0.944587 0.786355 0.581066 0.093900
H13   H     H_    0.525199 0.118614 0.512909 0.129079
H14   H     H_    0.870942 0.759065 0.250758 0.095097
H15   H     H_    0.409965 0.119326 0.542775 0.117450
H16   H     H_    0.228937 0.916263 0.318403 0.121476
H17   H     H_    0.345709 0.918661 0.287178 0.151013
H18   H     H_    0.788871 0.613699 0.189680 0.126051
H19   H     H_    0.680017 0.474955 0.088163 0.142471
H20   H     H_    0.531898 0.351160 0.875779 0.159916
H21   H     H_    0.408284 0.287675 0.754862 0.129852
H22   H     H_    0.601143 0.651071 0.252332 0.137564
H23   H     H_    0.148668 0.872994 0.390207 0.100609
H24   H     H_    0.491729 0.510808 0.150441 0.160511
H25   H     H_    0.971607 0.253184 0.601939 0.113749
H26   H     H_    0.247414 0.181294 0.852277 0.175952
H27   H     H_    0.970142 0.893408 0.792499 0.157301
H28   H     H_    0.939458 0.889366 0.900057 0.149662
H29   H     H_    0.966742 0.157643 0.120709 0.173809
H30   H     H_    0.027554 0.156725 0.242937 0.171544
H31   H     H_    0.816930 0.038672 0.873601 0.206998
H32   H     H_    0.826416 0.901551 0.154225 0.178370
H33   H     H_    0.723974 0.747967 0.374418 0.103592
H34   H     H_    0.005796 0.115696 0.750686 0.141075
H35   H     H_    0.122018 0.264907 0.482037 0.122470
H36   H     H_    0.837232 0.134837 0.547885 0.092453
H37   H     H_    0.923963 0.882965 0.237013 0.109576
H38   H     H_    0.289921 0.195768 0.638313 0.100001
H39   H     H_    0.141626 0.377068 0.396639 0.343979
H40   H     H_    0.327657 0.832092 0.432955 0.370320
H41   H     H_    0.443832 0.238195 0.106055 0.380138
H42   H     H_    0.717694 0.079928 0.722849 0.382131
H43   H     H_    0.628771 0.839690 0.898447 0.382892
H44   H     H_    0.871493 0.847029 0.626202 0.110524
H45   H     H_    0.280383 0.141179 0.515954 0.097553
H46   H     H_    0.141844 0.186457 0.763700 0.107477
H47   H     H_    0.092687 0.797332 0.455411 0.101147
H48   H     H_    0.131864 0.553111 0.705717 0.135758
N1    N     N_R   0.051550 0.054780 0.395070 -0.050183
N2    N     N_2   0.509229 0.410488 0.045179 -0.040476
N3    N     N_2   0.852373 0.021851 0.993429 -0.035090
N4    N     N_R   0.835860 0.954800 0.499920 -0.042709
N5    N     N_2   0.875619 0.971717 0.965348 -0.043019
N6    N     N_R   0.889940 0.849160 0.355180 -0.041219
N7    N     N_R   0.997480 0.160420 0.539810 -0.049801
N8    N     N_R   0.842280 0.845520 0.395070 -0.043648
N9    N     N_R   0.045130 0.164060 0.499920 -0.058547
N10   N     N_R   0.878630 0.041580 0.539810 -0.037103
N11   N     N_R   0.008780 0.968000 0.355180 -0.044355
N12   N     N_R   0.954870 0.835940 0.500080 -0.043155
N13   N     N_R   0.157720 0.154480 0.604930 -0.047822
N14   N     N_R   0.121370 0.958420 0.460190 -0.040629
N15   N     N_R   0.991220 0.032000 0.644820 -0.053653
N16   N     N_R   0.948450 0.945220 0.604930 -0.049322
N17   N     N_R   0.164140 0.045200 0.500080 -0.037982
N18   N     N_R   0.110060 0.150840 0.644820 -0.047035
N19   N     N_R   0.002520 0.839580 0.460190 -0.043127
N20   N     N_2   0.529894 0.365304 0.005894 -0.051271
Ni1   Ni    Ni4+2 0.103690 0.103690 0.500000 0.215191
Ni2   Ni    Ni4+2 0.896310 0.896310 0.500000 0.235797
Ni3   Ni    Ni4+2 0.005600 0.904650 0.408510 0.215972
Ni4   Ni    Ni4+2 0.994400 0.095350 0.591490 0.255234
O1    O     O_2   0.946959 0.249493 0.374673 -0.259869
O2    O     O_2   0.888390 0.145798 0.770356 -0.314218
O3    O     O_2   0.796538 0.007929 0.657847 -0.306741
O4    O     O_3   0.738198 0.053286 0.753533 -0.509265
O5    O     O_2   0.751718 0.806532 0.962609 -0.294587
O6    O     O_2   0.671572 0.826495 0.034818 -0.269982
O7    O     O_3   0.676270 0.894286 0.940821 -0.508268
O8    O     O_2   0.988162 0.373795 0.349939 -0.259506
O9    O     O_3   0.095373 0.319329 0.378875 -0.564929
O10   O     O_2   0.356072 0.795008 0.311607 -0.308860
O11   O     O_2   0.447311 0.781470 0.414079 -0.264321
O12   O     O_3   0.384658 0.879531 0.450729 -0.531941
O13   O     O_2   0.345767 0.297876 0.044623 -0.292020
O14   O     O_2   0.294141 0.146634 0.972042 -0.275366
O15   O     O_3   0.454848 0.243548 0.062701 -0.517821
S1    S     S_3+6 0.019393 0.333999 0.397182 -0.043359
S2    S     S_3+6 0.423161 0.841955 0.392677 -0.035418
S3    S     S_3+6 0.366148 0.234324 0.002619 -0.024957
S4    S     S_3+6 0.822972 0.055311 0.741340 -0.046589
S5    S     S_3+6 0.727966 0.867724 0.002943 -0.018928

loop_
_geom_bond_atom_site_label_1
_geom_bond_atom_site_label_2
_ccdc_geom_bond_type
C28   H25   S    
C25   C31   A    
C66   C68   A    
O8    S1    D    
C6    C45   A    
C27   C29   A    
C41   C42   A    
O10   S2    D    
C35   C36   A    
C9    C72   A    
C3    C6    A    
N14   N17   A    
N15   N16   A    
C39   C41   A    
C54   C60   A    
O11   S2    D    
N12   N19   A    
C46   H21   S    
C58   N3    S    
C29   C30   A    
C5    H47   S    
C18   C24   A    
C52   N9    A    
C36   C37   A    
C3    N18   A    
C71   N15   A    
C30   C31   A    
C12   C64   A    
N3    N5    D    
N9    Ni1   S    
C32   H13   S    
C10   C17   A    
C23   C40   A    
C40   N8    A    
N6    Ni3   S    
C4    N4    A    
C18   C19   A    
C30   H11   S    
C61   C63   A    
C4    H3    S    
N16   Ni2   S    
N14   Ni3   S    
C63   C68   A    
N19   Ni3   S    
C19   C20   A    
C52   H35   S    
C25   S2    S    
C68   H31   S    
C56   H12   S    
C32   C38   A    
C4    C12   A    
N10   Ni4   S    
C44   H20   S    
C28   N7    A    
C48   C50   A    
C15   H4    S    
C28   C34   A    
C59   C60   A    
C48   H18   S    
C13   C14   A    
C53   H24   S    
C67   H23   S    
C2    N17   A    
N4    Ni2   S    
C61   C62   A    
C69   H37   S    
C7    C56   A    
N1    N11   A    
C60   H30   S    
C2    H45   S    
C44   C46   A    
C5    N19   A    
C1    N1    A    
N12   Ni2   S    
C17   C24   S    
C12   C27   S    
C59   H29   S    
N1    Ni1   S    
C67   N14   A    
C10   H48   S    
C47   C49   A    
C5    C7    A    
O1    S1    D    
C45   H38   S    
C23   C50   S    
C25   C26   A    
C55   H32   S    
C36   H16   S    
C14   S1    S    
C51   C53   A    
C8    C35   S    
C19   H6    S    
C43   C44   A    
N7    N9    A    
C37   C38   A    
C3    H46   S    
C47   C48   A    
C54   C70   S    
C69   N11   A    
C21   H7    S    
C14   C15   A    
C50   C51   A    
C26   C27   A    
O15   S3    S    
N4    N10   A    
C43   N20   S    
O7    S5    S    
O5    S5    D    
C56   N12   A    
H41   O15   S    
N13   N18   A    
H39   O9    S    
C63   N5    S    
C39   C46   A    
N15   Ni4   S    
C64   N10   A    
O12   S2    S    
C65   C66   A    
C26   H9    S    
C55   C57   A    
C22   C24   A    
C61   H28   S    
C42   C43   A    
N11   Ni3   S    
C15   C17   A    
N17   Ni1   S    
C54   C55   A    
N6    N8    A    
C62   C65   A    
C41   H26   S    
O4    S4    S    
C47   H19   S    
C2    C8    A    
C9    C71   A    
C11   H2    S    
C42   S3    S    
C45   N13   A    
C16   C23   A    
O6    S5    D    
O2    S4    D    
C72   H44   S    
C34   C52   A    
C1    C70   A    
C31   C38   S    
C37   H17   S    
C1    H1    S    
C32   C33   A    
O9    S1    S    
C58   C59   A    
N2    N20   D    
C13   C34   S    
O3    S4    D    
C11   C13   A    
C57   C58   A    
C57   S5    S    
C16   N6    A    
C16   H14   S    
C18   H5    S    
C49   C53   A    
C49   N2    S    
C33   C35   A    
C66   S4    S    
N7    Ni4   S    
C33   H15   S    
C69   C70   A    
C9    C65   S    
H42   O4    S    
C72   N16   A    
C10   C11   A    
O14   S3    D    
C51   H22   S    
C22   H8    S    
C62   H27   S    
C29   H10   S    
C20   C21   A    
C8    C67   A    
C7    C20   S    
H40   O12   S    
C71   H34   S    
H43   O7    S    
C6    C39   S    
N18   Ni4   S    
N13   Ni1   S    
C21   C22   A    
N8    Ni2   S    
O13   S3    D    
C64   H36   S    
C40   H33   S    
