data_mof_unit_48018.cif
_audit_creation_date              2012-12-10T18:11:38-0500
_audit_creation_method            fapswitch 2.2
_symmetry_space_group_name_H-M    P1
_symmetry_Int_Tables_number       1
_space_group_crystal_system       triclinic
_cell_length_a                    10.507301
_cell_length_b                    12.603427
_cell_length_c                    13.077035
_cell_angle_alpha                 83.755767
_cell_angle_beta                  90.324147
_cell_angle_gamma                 101.164767
_cell_volume                      1688.70063735

loop_
_atom_site_label
_atom_site_type_symbol
_atom_type_description
_atom_site_fract_x
_atom_site_fract_y
_atom_site_fract_z
_atom_type_partial_charge
C1    C     C_R   0.483799 0.440255 0.691374 0.895458
C2    C     C_3   0.060149 0.598084 0.522875 -0.130163
C3    C     C_3   0.960466 0.519609 0.595098 -0.220293
C4    C     C_3   0.875996 0.497193 0.501041 -0.137483
C5    C     C_R   0.390885 0.703800 0.067439 0.521580
C6    C     C_R   0.483912 0.591520 0.200696 -0.095104
C7    C     C_R   0.506892 0.306050 0.842478 -0.036316
C8    C     C_R   0.476374 0.266538 0.945039 -0.252587
C9    C     C_R   0.428597 0.330861 0.010096 -0.064934
C10   C     C_R   0.421889 0.439489 0.973337 0.061399
C11   C     C_R   0.416333 0.467391 0.867259 0.043769
C12   C     C_R   0.741727 0.499295 0.500331 0.979852
C13   C     C_R   0.426509 0.522755 0.037880 0.056117
C14   C     C_R   0.386145 0.620878 0.001938 0.052759
C15   C     C_R   0.345846 0.634575 0.899847 -0.168008
C16   C     C_R   0.363149 0.559715 0.832488 -0.190696
C17   C     C_R   0.483906 0.513845 0.133440 -0.207003
C18   C     C_R   0.436395 0.686124 0.168764 -0.317877
C19   C     C_R   0.467319 0.403466 0.801072 -0.186389
C20   C     C_R   0.294002 0.082861 0.365823 -0.054757
C21   C     C_R   0.657364 0.801366 0.627080 0.039606
C22   C     C_R   0.694394 0.907628 0.650776 -0.209071
C23   C     C_R   0.508727 0.559679 0.308523 0.909161
C24   C     C_R   0.637307 0.988955 0.599911 -0.144131
C25   C     C_R   0.541988 0.964091 0.524799 0.013375
C26   C     C_R   0.508509 0.854580 0.503273 0.244772
C27   C     C_R   0.475947 0.042361 0.472895 -0.023877
C28   C     C_R   0.372217 0.008546 0.405500 0.106546
C29   C     C_R   0.346738 0.900768 0.382918 -0.221950
C30   C     C_R   0.415209 0.826195 0.429560 -0.215117
C31   C     C_R   0.506719 0.153106 0.487165 -0.033521
C32   C     C_R   0.325671 0.189405 0.390314 -0.007261
C33   C     C_R   0.257984 0.500214 0.501229 0.917530
C34   C     C_3   0.936646 0.398731 0.482115 -0.265070
C35   C     C_3   0.024968 0.422621 0.575564 -0.172678
C36   C     C_3   0.123143 0.501589 0.503050 -0.181836
C37   C     C_3   0.036154 0.478132 0.410667 0.452007
C38   C     C_3   0.974767 0.574945 0.429585 0.409878
H1    H     H_    0.050506 0.361244 0.635593 0.170475
H2    H     H_    0.528186 0.444528 0.157182 0.153911
H3    H     H_    0.490987 0.186063 0.974544 0.196630
H4    H     H_    0.334599 0.575361 0.753690 0.212968
H5    H     H_    0.266162 0.247925 0.365351 0.170494
H6    H     H_    0.271839 0.871442 0.330667 0.187611
H7    H     H_    0.587191 0.186798 0.532517 0.136934
H8    H     H_    0.701901 0.737863 0.665799 0.142228
H9    H     H_    0.881341 0.317773 0.466760 0.167969
H10   H     H_    0.668208 0.069573 0.622177 0.153553
H11   H     H_    0.766968 0.926944 0.708491 0.164558
H12   H     H_    0.389960 0.745608 0.408371 0.200265
H13   H     H_    0.924204 0.535754 0.670372 0.178774
H14   H     H_    0.430577 0.743469 0.223427 0.153004
H15   H     H_    0.309119 0.706196 0.869921 0.210841
N1    N     N_R   0.432930 0.222190 0.444670 -0.119025
N2    N     N_R   0.566370 0.776980 0.554790 -0.128471
O1    O     O_R   0.467970 0.366730 0.627150 -0.596654
O2    O     O_R   0.510820 0.544830 0.662520 -0.629808
O3    O     O_R   0.664630 0.410960 0.482340 -0.629212
O4    O     O_R   0.707470 0.589060 0.517710 -0.596266
O5    O     O_R   0.489180 0.455170 0.337480 -0.604373
O6    O     O_R   0.532030 0.633270 0.372850 -0.633077
O7    O     O_R   0.292530 0.410940 0.482290 -0.598477
O8    O     O_R   0.335370 0.589040 0.517660 -0.642764
Zn1   Zn    Zn3+2 0.471390 0.381080 0.476380 0.981719
Zn2   Zn    Zn3+2 0.528610 0.618920 0.523620 0.965006
C39   C     C_2   0.583024 0.245671 0.782490 0.926971
O9    O     O_2   0.562551 0.146162 0.794679 -0.650892
O10   O     O_R   0.682471 0.302903 0.715641 -0.817267
H16   H     H_    0.730221 0.253302 0.681496 0.325072
C40   C     C_2   0.363681 0.278487 0.107698 0.913562
O11   O     O_2   0.397656 0.199165 0.153685 -0.647595
O12   O     O_R   0.257865 0.317115 0.143354 -0.788005
H17   H     H_    0.208634 0.267334 0.201741 0.344399
C41   C     C_2   0.177196 0.053459 0.302713 0.922581
O13   O     O_2   0.181589 0.003633 0.228060 -0.630842
O14   O     O_R   0.063440 0.088640 0.325841 -0.817069
H18   H     H_    0.990964 0.065953 0.276523 0.347704
O15   O     O_3   0.088125 0.459934 0.316249 -0.609476
C42   C     C_3   0.987686 0.408344 0.256488 -0.269970
H19   H     H_    0.903589 0.450498 0.251388 0.152836
H20   H     H_    0.955885 0.321585 0.287469 0.184074
H21   H     H_    0.025589 0.410324 0.177174 0.220062
O16   O     O_3   0.937264 0.653628 0.356460 -0.605582
C43   C     C_3   0.039242 0.695539 0.284806 -0.143090
H22   H     H_    0.031177 0.645265 0.219646 0.178372
H23   H     H_    0.137418 0.700921 0.318774 0.129118
H24   H     H_    0.029855 0.778967 0.253387 0.212345
C44   C     C_2   0.123214 0.707921 0.551395 0.950964
O17   O     O_2   0.099933 0.790080 0.502570 -0.611454
O18   O     O_R   0.204505 0.715570 0.636249 -0.812783
H25   H     H_    0.241346 0.793723 0.647951 0.341595
O19   O     O_3   0.340481 0.795496 0.032972 -0.626323
C45   C     C_3   0.417446 0.891610 0.062938 -0.211112
H26   H     H_    0.395984 0.961890 0.011708 0.217298
H27   H     H_    0.523288 0.892833 0.055094 0.148993
H28   H     H_    0.391878 0.903517 0.142604 0.189013

loop_
_geom_bond_atom_site_label_1
_geom_bond_atom_site_label_2
_ccdc_geom_bond_type
C39   O10   S    
C24   C25   A    
O8    Zn2   S    
C45   H26   S    
C38   O16   S    
C34   C37   S    
C35   C36   S    
C43   H24   S    
C26   N2    A    
C18   H14   S    
C7    C8    A    
C11   C19   A    
C37   C38   S    
C41   O14   S    
C15   H15   S    
C28   C29   A    
C1    O1    A    
C43   H23   S    
C15   C16   A    
C33   C36   S    
C34   C35   S    
O7    Zn1   S    
O10   H16   S    
C12   O4    A    
C8    C9    A    
O1    Zn1   S    
C2    C44   S    
C40   O11   D    
C4    C12   S    
C9    C10   A    
C12   O3    A    
C39   O9    D    
C30   H12   S    
C45   H27   S    
C21   C22   A    
C32   N1    A    
N2    Zn2   S    
O14   H18   S    
O3    Zn1   S    
C23   O5    A    
C6    C18   A    
C4    C34   S    
C1    C19   S    
C41   O13   D    
C27   C31   A    
C24   H10   S    
C43   H22   S    
O2    Zn2   S    
C42   H20   S    
C3    H13   S    
O15   C42   S    
C33   O7    A    
C5    C18   A    
C20   C28   A    
C25   C26   A    
C42   H19   S    
C17   H2    S    
C35   H1    S    
C29   C30   A    
C1    O2    A    
C11   C16   A    
C2    C38   S    
O16   C43   S    
C3    C35   S    
C33   O8    A    
C20   C41   S    
C8    H3    S    
C5    C14   A    
C22   H11   S    
C4    C38   S    
C26   C30   A    
C45   H28   S    
C7    C19   A    
C29   H6    S    
C22   C24   A    
C3    C4    S    
C16   H4    S    
C21   N2    A    
C21   H8    S    
C20   C32   A    
C2    C36   S    
C6    C17   A    
C36   C37   S    
C44   O18   S    
O12   H17   S    
C10   C13   A    
C42   H21   S    
C25   C27   A    
C37   O15   S    
C13   C17   A    
O5    Zn1   S    
C2    C3    S    
O4    Zn2   S    
C7    C39   S    
O18   H25   S    
N1    Zn1   S    
C6    C23   S    
O19   C45   S    
C32   H5    S    
C31   N1    A    
C5    O19   S    
C10   C11   A    
C9    C40   S    
O6    Zn2   S    
C23   O6    A    
C44   O17   D    
C31   H7    S    
C27   C28   A    
C14   C15   A    
C40   O12   S    
C34   H9    S    
C13   C14   A    
