data_mof_unit_55110.cif
_audit_creation_date              2012-12-10T18:16:57-0500
_audit_creation_method            fapswitch 2.2
_symmetry_space_group_name_H-M    P1
_symmetry_Int_Tables_number       1
_space_group_crystal_system       triclinic
_cell_length_a                    15.869631
_cell_length_b                    15.930149
_cell_length_c                    14.696038
_cell_angle_alpha                 89.54991
_cell_angle_beta                  90.799657
_cell_angle_gamma                 90.38001
_cell_volume                      3714.68500104

loop_
_atom_site_label
_atom_site_type_symbol
_atom_type_description
_atom_site_fract_x
_atom_site_fract_y
_atom_site_fract_z
_atom_type_partial_charge
C1    C     C_R   0.500304 0.340075 0.500412 0.821160
C2    C     C_3   0.083292 0.496947 0.500755 0.104368
C3    C     C_3   0.972913 0.491149 0.588671 -0.281530
C4    C     C_3   0.916501 0.497219 0.502457 0.151482
C5    C     C_3   0.029021 0.562194 0.549155 -0.035142
C6    C     C_3   0.971473 0.568489 0.464155 -0.045989
C7    C     C_1   0.174828 0.497264 0.499609 0.065484
C8    C     C_1   0.825129 0.497099 0.502824 0.022812
C9    C     C_3   0.590017 0.049101 0.568757 -0.035157
C10   C     C_3   0.518006 0.050869 0.404849 -0.212128
C11   C     C_3   0.503644 0.950831 0.399669 -0.023833
C12   C     C_R   0.339573 0.499433 0.499487 0.832544
C13   C     C_1   0.498992 0.748997 0.499491 -0.175667
C14   C     C_3   0.510782 0.083547 0.507465 0.038412
C15   C     C_3   0.594519 0.949133 0.550919 -0.185771
C16   C     C_3   0.508593 0.916523 0.503505 0.056287
C17   C     C_3   0.429602 0.950998 0.557183 -0.300373
C18   C     C_3   0.421516 0.049864 0.546266 -0.088093
C19   C     C_1   0.502065 0.824213 0.501259 -0.082375
C20   C     C_1   0.507780 0.175959 0.504644 0.054685
C21   C     C_1   0.503726 0.251111 0.501918 -0.098674
C22   C     C_3   0.510793 0.601018 0.050699 0.047499
C23   C     C_R   0.498584 0.659918 0.499678 0.837122
C24   C     C_3   0.416871 0.465673 0.052625 -0.200702
C25   C     C_3   0.424736 0.451922 0.946661 -0.152299
C26   C     C_3   0.501727 0.506002 0.092194 -0.118257
C27   C     C_3   0.496389 0.593874 0.942624 -0.376977
C28   C     C_3   0.502473 0.502028 0.907478 0.029489
C29   C     C_3   0.587087 0.465940 0.949074 -0.243889
C30   C     C_3   0.578662 0.448969 0.056016 -0.027513
C31   C     C_1   0.502564 0.502057 0.804511 0.123800
C32   C     C_1   0.499374 0.501622 0.195396 0.120847
C33   C     C_R   0.660407 0.499381 0.500658 0.819497
C34   C     C_3   0.969661 0.431011 0.453406 -0.259653
C35   C     C_3   0.025716 0.502989 0.415937 -0.050582
C36   C     C_1   0.250172 0.498159 0.498871 -0.103958
C37   C     C_1   0.749781 0.497962 0.502143 -0.144041
C38   C     C_3   0.027587 0.425907 0.539012 0.030912
Cu1   Cu    Cu3+1 0.499890 0.499910 0.589920 0.995823
Cu2   Cu    Cu3+1 0.500110 0.500090 0.410080 1.008122
H1    H     H_    0.372533 0.921161 0.526667 0.161460
H2    H     H_    0.434990 0.615365 0.919143 0.140471
H3    H     H_    0.944436 0.376835 0.414260 0.143169
H4    H     H_    0.409460 0.402252 0.083196 0.138043
H5    H     H_    0.442560 0.385134 0.943247 0.118702
H6    H     H_    0.631510 0.519851 0.941632 0.152292
H7    H     H_    0.540189 0.634873 0.903923 0.200050
H8    H     H_    0.949591 0.487946 0.659461 0.132713
H9    H     H_    0.639052 0.941943 0.495756 0.110522
H10   H     H_    0.462501 0.077603 0.369472 0.218305
N1    N     N_1   0.501700 0.501390 0.724970 -0.149302
N2    N     N_1   0.498280 0.498620 0.275030 -0.136001
O1    O     O_R   0.499910 0.379360 0.575970 -0.569658
O2    O     O_R   0.500090 0.379510 0.424100 -0.576412
O3    O     O_R   0.378990 0.499920 0.575920 -0.561114
O4    O     O_R   0.379170 0.500070 0.424050 -0.562155
O5    O     O_R   0.499910 0.620490 0.575900 -0.565244
O6    O     O_R   0.500090 0.620640 0.424030 -0.590876
O7    O     O_R   0.620830 0.499930 0.575950 -0.584782
O8    O     O_R   0.621010 0.500080 0.424080 -0.540913
C39   C     C_2   0.052120 0.509193 0.318630 0.356928
H11   H     H_    0.004486 0.512942 0.265158 0.085346
O9    O     O_2   0.126558 0.510082 0.298981 -0.514868
C40   C     C_R   0.588168 0.094449 0.348147 0.097671
C41   C     C_R   0.667372 0.059064 0.329726 -0.093151
C42   C     C_R   0.728073 0.103022 0.280004 -0.146916
C43   C     C_R   0.711754 0.183908 0.248258 -0.065217
C44   C     C_R   0.633854 0.220082 0.264216 -0.068506
C45   C     C_R   0.572067 0.175229 0.311093 -0.171588
H12   H     H_    0.684891 0.998316 0.354925 0.129726
H13   H     H_    0.788642 0.074714 0.267733 0.132790
H14   H     H_    0.759409 0.218531 0.211356 0.149843
H15   H     H_    0.621302 0.283211 0.240677 0.174686
H16   H     H_    0.511524 0.204797 0.319730 0.152243
C46   C     C_R   0.561190 0.907139 0.328782 0.077395
C47   C     C_R   0.622061 0.844707 0.350373 -0.188014
C48   C     C_R   0.668250 0.805881 0.282405 -0.144445
C49   C     C_R   0.656194 0.828342 0.191486 -0.110677
C50   C     C_R   0.598214 0.890209 0.168030 -0.113650
C51   C     C_R   0.551720 0.929350 0.235390 -0.090366
H17   H     H_    0.637031 0.825446 0.418956 0.145641
H18   H     H_    0.714122 0.758390 0.300561 0.176334
H19   H     H_    0.692486 0.798370 0.139261 0.171716
H20   H     H_    0.589414 0.908276 0.097401 0.156224
H21   H     H_    0.508633 0.978276 0.214228 0.181469
C52   C     C_2   0.414553 0.929576 0.362198 0.264045
H22   H     H_    0.383726 0.871582 0.382331 0.083694
O10   O     O_2   0.378165 0.973735 0.305957 -0.569049
C53   C     C_2   0.391630 0.092554 0.633817 0.279904
H23   H     H_    0.365023 0.056834 0.689540 0.093857
O11   O     O_2   0.389078 0.168937 0.640170 -0.540702
C54   C     C_2   0.347465 0.069632 0.481401 0.405298
H24   H     H_    0.298259 0.023482 0.468313 0.073235
O12   O     O_2   0.338339 0.139643 0.448235 -0.534194
C55   C     C_2   0.426156 0.920118 0.654946 0.305184
H25   H     H_    0.470711 0.942710 0.705547 0.126063
O13   O     O_2   0.371756 0.870241 0.678679 -0.533879
C56   C     C_2   0.574771 0.065976 0.669773 0.279790
H26   H     H_    0.535441 0.117382 0.689264 0.100882
O14   O     O_2   0.615627 0.032195 0.730541 -0.540655
C57   C     C_R   0.636629 0.893578 0.628237 0.162743
C58   C     C_R   0.722333 0.907533 0.652677 -0.067832
C59   C     C_R   0.763928 0.858934 0.718682 -0.128533
C60   C     C_R   0.721674 0.794326 0.763086 -0.091521
C61   C     C_R   0.637593 0.778596 0.741793 -0.108137
C62   C     C_R   0.595685 0.827120 0.675923 -0.129800
H27   H     H_    0.758648 0.957155 0.623776 0.129288
H28   H     H_    0.829306 0.871902 0.735673 0.130482
H29   H     H_    0.753933 0.756703 0.814196 0.145593
H30   H     H_    0.604435 0.728304 0.776374 0.141962
H31   H     H_    0.531420 0.809519 0.664756 0.166550
C63   C     C_R   0.452535 0.667001 0.096434 0.047496
C64   C     C_R   0.463013 0.684139 0.190642 -0.143622
C65   C     C_R   0.410599 0.739405 0.235754 -0.090809
C66   C     C_R   0.348483 0.782989 0.187903 -0.090893
C67   C     C_R   0.340377 0.772909 0.094288 -0.120752
C68   C     C_R   0.392214 0.716990 0.048575 -0.145535
H32   H     H_    0.513250 0.656375 0.230478 0.141969
H33   H     H_    0.419120 0.748701 0.308046 0.134739
H34   H     H_    0.307896 0.826034 0.222924 0.160110
H35   H     H_    0.294026 0.809201 0.056545 0.143598
H36   H     H_    0.383704 0.716868 0.976050 0.128470
C69   C     C_2   0.336435 0.506234 0.084469 0.381826
H37   H     H_    0.337161 0.562823 0.124193 0.109730
O15   O     O_2   0.268528 0.471550 0.071351 -0.512672
C70   C     C_R   0.343970 0.457873 0.887416 0.156476
C71   C     C_R   0.322737 0.390304 0.829550 -0.139671
C72   C     C_R   0.254399 0.395540 0.768745 -0.104829
C73   C     C_R   0.205544 0.467918 0.764800 -0.098682
C74   C     C_R   0.224740 0.535046 0.821963 -0.095477
C75   C     C_R   0.293330 0.530441 0.882582 -0.067681
H38   H     H_    0.360235 0.333772 0.829754 0.128597
H39   H     H_    0.239814 0.343591 0.724069 0.165779
H40   H     H_    0.152784 0.472013 0.717532 0.145471
H41   H     H_    0.186409 0.590987 0.819255 0.153415
H42   H     H_    0.304658 0.583337 0.926447 0.111211
C76   C     C_2   0.662345 0.470073 0.103780 0.343826
H43   H     H_    0.713421 0.499742 0.066991 0.078549
O16   O     O_2   0.673646 0.454658 0.184631 -0.552065
C77   C     C_2   0.564394 0.355727 0.078437 0.384219
H44   H     H_    0.518255 0.336513 0.128157 0.056184
O17   O     O_2   0.611099 0.301483 0.050148 -0.541174
C78   C     C_2   0.599241 0.636201 0.070443 0.305745
H45   H     H_    0.626130 0.630338 0.138464 0.089789
O18   O     O_2   0.640311 0.673807 0.013236 -0.588245
C79   C     C_2   0.942507 0.649416 0.421774 0.315715
H46   H     H_    0.988739 0.694398 0.397455 0.082913
O19   O     O_2   0.867580 0.665142 0.414405 -0.549409
C80   C     C_R   0.632208 0.397506 0.895306 0.156171
C81   C     C_R   0.589239 0.331017 0.851513 -0.041528
C82   C     C_R   0.633856 0.268037 0.808045 -0.099005
C83   C     C_R   0.721580 0.270943 0.805155 -0.109364
C84   C     C_R   0.765164 0.337215 0.845930 -0.126809
C85   C     C_R   0.721077 0.399781 0.890898 -0.125462
H47   H     H_    0.521700 0.326263 0.850187 0.098840
H48   H     H_    0.600039 0.216641 0.777000 0.137752
H49   H     H_    0.755735 0.221873 0.771316 0.151433
H50   H     H_    0.833265 0.339832 0.843358 0.126713
H51   H     H_    0.756775 0.449991 0.922624 0.106593
C86   C     C_2   0.059372 0.635719 0.603764 0.320546
H52   H     H_    0.013930 0.677172 0.634166 0.077450
O20   O     O_2   0.134584 0.649342 0.614437 -0.536880
C87   C     C_R   0.060885 0.344761 0.577621 0.095195
C88   C     C_R   0.043084 0.319691 0.667200 -0.167252
C89   C     C_R   0.075275 0.244355 0.702093 -0.143297
C90   C     C_R   0.125263 0.193609 0.647933 -0.110455
C91   C     C_R   0.142847 0.217962 0.558637 -0.098825
C92   C     C_R   0.110741 0.293196 0.523476 -0.161752
H53   H     H_    0.004754 0.358125 0.710358 0.123473
H54   H     H_    0.061645 0.225433 0.771252 0.142189
H55   H     H_    0.150321 0.135429 0.675107 0.138612
H56   H     H_    0.181274 0.178498 0.516644 0.176999
H57   H     H_    0.124909 0.311438 0.454178 0.153301
C93   C     C_R   0.673615 0.100801 0.549224 0.138855
C94   C     C_R   0.680266 0.185505 0.579110 -0.143116
C95   C     C_R   0.751903 0.234835 0.564187 -0.146743
C96   C     C_R   0.821178 0.201062 0.521387 -0.096616
C97   C     C_R   0.819004 0.117681 0.494367 -0.120007
C98   C     C_R   0.747092 0.068188 0.508432 -0.156034
H58   H     H_    0.630143 0.214421 0.616154 0.108698
H59   H     H_    0.753918 0.299247 0.587167 0.131886
H60   H     H_    0.876948 0.239111 0.510328 0.131732
H61   H     H_    0.873443 0.090910 0.462135 0.127812
H62   H     H_    0.752171 0.004526 0.485899 0.092687

loop_
_geom_bond_atom_site_label_1
_geom_bond_atom_site_label_2
_ccdc_geom_bond_type
C2    C35   S    
C23   O6    A    
Cu1   N1    S    
C61   H30   S    
C1    C21   S    
C89   C90   A    
Cu2   O8    S    
C55   H25   S    
C7    C36   T    
C14   C18   S    
C2    C7    S    
C68   H36   S    
C4    C8    S    
C72   C73   A    
C97   C98   A    
C69   H37   S    
Cu1   O1    S    
C48   C49   A    
C67   C68   A    
C25   C28   S    
C26   C32   S    
C76   O16   D    
C9    C56   S    
C48   H18   S    
C88   C89   A    
C24   C26   S    
C43   H14   S    
C16   C19   S    
C25   C70   S    
C5    C6    S    
C6    C79   S    
C52   O10   D    
C78   H45   S    
C69   O15   D    
C11   C52   S    
C15   C16   S    
Cu1   O5    S    
C3    H8    S    
C89   H54   S    
C6    C35   S    
C13   C23   S    
C23   O5    A    
C34   C35   S    
C84   H50   S    
C39   O9    D    
C1    O1    A    
C71   H38   S    
C63   C64   A    
C80   C85   A    
C59   C60   A    
C58   C59   A    
C93   C94   A    
C49   H19   S    
C32   N2    T    
C87   C88   A    
C3    C38   S    
C16   C17   S    
Cu2   O4    S    
C22   C78   S    
C82   C83   A    
C71   C72   A    
C59   H28   S    
C17   C55   S    
C12   C36   S    
C29   C30   S    
C46   C51   A    
C66   H34   S    
C65   H33   S    
C15   H9    S    
C42   C43   A    
C90   H55   S    
C33   O7    A    
C30   C76   S    
C50   H20   S    
C88   H53   S    
C95   H59   S    
C60   C61   A    
C65   C66   A    
C79   O19   D    
C62   H31   S    
C92   H57   S    
Cu1   O3    S    
C17   H1    S    
C30   C77   S    
C67   H35   S    
C13   C19   T    
C43   C44   A    
C57   C58   A    
C14   C20   S    
C45   H16   S    
Cu2   O6    S    
C24   C25   S    
C4    C6    S    
C75   H42   S    
C10   C14   S    
C53   H23   S    
C91   C92   A    
C9    C14   S    
C49   C50   A    
C44   C45   A    
C44   H15   S    
Cu2   N2    S    
C24   C69   S    
C15   C57   S    
C50   C51   A    
C86   O20   D    
C46   C47   A    
C51   H21   S    
C11   C16   S    
C2    C38   S    
C42   H13   S    
C5    C86   S    
Cu1   O7    S    
C54   O12   D    
C17   C18   S    
C38   C87   S    
C58   H27   S    
C35   C39   S    
C82   H48   S    
C77   H44   S    
C96   H60   S    
C12   O4    A    
C79   H46   S    
C1    O2    A    
C95   C96   A    
C74   H41   S    
C96   C97   A    
C33   O8    A    
Cu2   O2    S    
C22   C27   S    
C90   C91   A    
C24   H4    S    
C2    C5    S    
C53   O11   D    
C8    C37   T    
C63   C68   A    
C3    C4    S    
C10   H10   S    
C25   H5    S    
Cu1   Cu2   S    
C52   H22   S    
C64   C65   A    
C76   H43   S    
C27   H7    S    
C57   C62   A    
C78   O18   D    
C83   H49   S    
C28   C29   S    
C34   C38   S    
C18   C53   S    
C28   C31   S    
C10   C40   S    
C34   H3    S    
C97   H61   S    
C31   N1    T    
C3    C5    S    
C47   H17   S    
C55   O13   D    
C26   C30   S    
C91   H56   S    
C77   O17   D    
C40   C45   A    
C61   C62   A    
C22   C63   S    
C29   H6    S    
C81   H47   S    
C18   C54   S    
C86   H52   S    
C87   C92   A    
C73   C74   A    
C85   H51   S    
C94   C95   A    
C11   C46   S    
C80   C81   A    
C40   C41   A    
C47   C48   A    
C27   H2    S    
C66   C67   A    
C60   H29   S    
C70   C75   A    
C70   C71   A    
C9    C93   S    
C54   H24   S    
C74   C75   A    
C41   C42   A    
C4    C34   S    
C9    C15   S    
C39   H11   S    
C56   O14   D    
C33   C37   S    
C73   H40   S    
C12   O3    A    
C10   C11   S    
C94   H58   S    
C29   C80   S    
C64   H32   S    
C98   H62   S    
C20   C21   T    
C56   H26   S    
C22   C26   S    
C27   C28   S    
C81   C82   A    
C83   C84   A    
C84   C85   A    
C72   H39   S    
C93   C98   A    
C41   H12   S    
