data_mof_unit_16785.cif
_audit_creation_date              2012-12-10T17:43:21-0500
_audit_creation_method            fapswitch 2.2
_symmetry_space_group_name_H-M    P1
_symmetry_Int_Tables_number       1
_space_group_crystal_system       triclinic
_cell_length_a                    15.072611
_cell_length_b                    13.94019
_cell_length_c                    10.820673
_cell_angle_alpha                 90.007321
_cell_angle_beta                  90.498535
_cell_angle_gamma                 89.347368
_cell_volume                      2273.35281702

loop_
_atom_site_label
_atom_site_type_symbol
_atom_type_description
_atom_site_fract_x
_atom_site_fract_y
_atom_site_fract_z
_atom_type_partial_charge
C1    C     C_R   0.329209 0.500383 0.504099 0.873837
C2    C     C_R   0.670720 0.499151 0.493561 0.875134
C3    C     C_R   0.953323 0.484747 0.497396 -0.062029
C4    C     C_R   0.047053 0.487340 0.497390 -0.064671
C5    C     C_R   0.906172 0.492503 0.384256 -0.004683
C6    C     C_R   0.093925 0.488501 0.610976 -0.011122
C7    C     C_R   0.957171 0.460680 0.720423 0.223380
C8    C     C_R   0.045115 0.481414 0.272625 0.228109
C9    C     C_R   0.047531 0.481936 0.722015 0.451311
C10   C     C_R   0.952500 0.491651 0.272218 0.450405
C11   C     C_R   0.443235 0.795114 0.576518 0.401161
C12   C     C_R   0.561071 0.204937 0.431079 0.399938
C13   C     C_R   0.554897 0.793826 0.421370 0.439825
C14   C     C_R   0.438500 0.206614 0.568029 0.431117
C15   C     C_R   0.554029 0.896650 0.417134 -0.129632
C16   C     C_R   0.433264 0.104378 0.562088 -0.144001
C17   C     C_R   0.441547 0.898297 0.578388 -0.135559
C18   C     C_R   0.564509 0.102226 0.433591 -0.140712
C19   C     C_R   0.498171 0.948540 0.498020 -0.043728
C20   C     C_R   0.498664 0.051926 0.497948 -0.040249
C21   C     C_R   0.610676 0.950938 0.340014 0.276942
C22   C     C_R   0.367415 0.051719 0.623411 0.284753
C23   C     C_R   0.381781 0.954797 0.651098 0.272196
C24   C     C_R   0.627613 0.046921 0.367376 0.274148
C25   C     C_R   0.496151 0.500423 0.259566 0.983451
C26   C     C_R   0.503632 0.499803 0.740646 0.988066
C27   C     C_3   0.488042 0.592225 0.037545 0.304901
C28   C     C_3   0.511057 0.409174 0.963406 0.303182
C29   C     C_3   0.568766 0.554750 0.966033 0.296862
C30   C     C_3   0.430193 0.447206 0.035056 0.279436
C31   C     C_3   0.424124 0.537110 0.952037 0.268570
C32   C     C_3   0.575400 0.464486 0.048354 0.250638
C33   C     C_3   0.504935 0.499289 0.878340 -0.291773
C34   C     C_3   0.494620 0.502045 0.122291 -0.282827
C35   C     C_R   0.813372 0.497697 0.384695 -0.174687
C36   C     C_R   0.186569 0.492833 0.611869 -0.163778
C37   C     C_R   0.767653 0.495297 0.495669 -0.086926
C38   C     C_R   0.232408 0.500429 0.501451 -0.091960
C39   C     C_R   0.813250 0.482002 0.607819 0.260009
C40   C     C_R   0.186603 0.504502 0.388464 0.268668
C41   C     C_R   0.906980 0.474200 0.610254 -0.049726
C42   C     C_R   0.093679 0.491019 0.384333 -0.048435
Cu1   Cu    Cu3+1 0.500000 0.597420 0.500000 1.091150
Cu2   Cu    Cu3+1 0.500000 0.402580 0.500000 1.089485
H1    H     H_    0.775917 0.503637 0.298986 0.200439
H2    H     H_    0.223624 0.490127 0.698215 0.206884
N1    N     N_R   0.500000 0.743810 0.500000 -0.245418
N2    N     N_R   0.500000 0.256190 0.500000 -0.245948
O1    O     O_R   0.370260 0.582280 0.500030 -0.533415
O2    O     O_R   0.629740 0.417720 0.499970 -0.539894
O3    O     O_R   0.629740 0.582280 0.499970 -0.547487
O4    O     O_R   0.370260 0.417720 0.500030 -0.555603
O5    O     O_R   0.499980 0.582260 0.316850 -0.535150
O6    O     O_R   0.500020 0.417740 0.683150 -0.533514
O7    O     O_R   0.500020 0.582260 0.683150 -0.543359
O8    O     O_R   0.499980 0.417740 0.316850 -0.546843
O9    O     O_3   0.351899 0.573124 0.882107 -0.580827
C43   C     C_3   0.284077 0.605259 0.959833 -0.157353
H3    H     H_    0.308904 0.645073 0.041566 0.210684
H4    H     H_    0.242991 0.543806 0.987880 0.238017
H5    H     H_    0.241944 0.656525 0.907003 0.193561
O10   O     O_3   0.648674 0.427815 0.115886 -0.595529
C44   C     C_3   0.717639 0.401227 0.036254 -0.067027
H6    H     H_    0.756087 0.465206 0.010949 0.222863
H7    H     H_    0.694044 0.362816 0.952388 0.199724
H8    H     H_    0.763399 0.351860 0.086698 0.233146
O11   O     O_3   0.476416 0.685166 0.087262 -0.554767
C45   C     C_3   0.468014 0.753177 0.991203 -0.129479
H9    H     H_    0.400085 0.753384 0.952089 0.215781
H10   H     H_    0.516502 0.742068 0.915595 0.189299
H11   H     H_    0.479587 0.825492 0.030403 0.213801
O12   O     O_3   0.522639 0.316282 0.913658 -0.552014
C46   C     C_3   0.532837 0.248330 0.009439 -0.147064
H12   H     H_    0.490192 0.263322 0.090820 0.184968
H13   H     H_    0.603257 0.243095 0.039009 0.207968
H14   H     H_    0.513880 0.177011 0.972954 0.192030
O13   O     O_3   0.638311 0.610873 0.920105 -0.550128
C47   C     C_3   0.682360 0.657698 0.017786 -0.149944
H15   H     H_    0.698969 0.608941 0.096014 0.174622
H16   H     H_    0.642692 0.719489 0.051109 0.234217
H17   H     H_    0.745216 0.686946 0.982140 0.181408
O14   O     O_3   0.358831 0.395625 0.084764 -0.560447
C48   C     C_3   0.314741 0.345293 0.990199 -0.065917
H18   H     H_    0.354342 0.281962 0.961087 0.191536
H19   H     H_    0.297947 0.391535 0.909432 0.189289
H20   H     H_    0.251675 0.317741 0.027248 0.226474
Br1   Br    Br    0.743365 0.492324 0.753139 -0.499693
Br2   Br    Br    0.251568 0.552503 0.251068 -0.504004
Br3   Br    Br    0.916474 0.394960 0.865592 -0.349834
Br4   Br    Br    0.096287 0.429321 0.124521 -0.359594
O15   O     O_3   0.090199 0.497474 0.833557 -0.534880
C49   C     C_3   0.068720 0.592087 0.870986 -0.244936
H21   H     H_    0.995826 0.604860 0.875886 0.167022
H22   H     H_    0.098624 0.645438 0.807683 0.164217
H23   H     H_    0.095421 0.604504 0.965146 0.198560
O16   O     O_3   0.906822 0.492467 0.160986 -0.539845
C50   C     C_3   0.902673 0.588032 0.118410 -0.285127
H24   H     H_    0.969594 0.620605 0.112435 0.172285
H25   H     H_    0.859268 0.632794 0.178459 0.166246
H26   H     H_    0.873690 0.588359 0.024016 0.203565
Br5   Br    Br    0.357011 0.726696 0.670341 -0.411062
Br6   Br    Br    0.632569 0.271882 0.314274 -0.410031
Br7   Br    Br    0.643037 0.724922 0.327993 -0.459774
Br8   Br    Br    0.370167 0.273896 0.690498 -0.432476
Br9   Br    Br    0.644797 0.914941 0.174422 -0.445570
Br10  Br    Br    0.246022 0.096778 0.638620 -0.316108
Br11  Br    Br    0.333134 0.919773 0.809346 -0.435184
Br12  Br    Br    0.749154 0.084599 0.341558 -0.313537

loop_
_geom_bond_atom_site_label_1
_geom_bond_atom_site_label_2
_ccdc_geom_bond_type
C44   H7    S    
C27   C29   S    
C46   H12   S    
C11   N1    A    
C19   C20   A    
C2    C37   S    
C25   O8    A    
C39   Br1   S    
C12   N2    A    
Cu1   O3    S    
C26   O7    A    
C9    O15   S    
C6    C9    A    
C50   H24   S    
C39   C41   A    
O13   C47   S    
C15   C19   A    
C17   C23   A    
C18   C24   A    
C35   C37   A    
C8    C42   A    
C29   C32   S    
C30   C31   S    
C47   H16   S    
C43   H4    S    
C7    Br3   S    
C29   C33   S    
C2    O2    A    
Cu1   O5    S    
C3    C41   A    
C45   H9    S    
C1    O1    A    
C31   C33   S    
C36   H2    S    
C24   Br12  S    
C13   Br7   S    
C25   C34   S    
Cu2   O4    S    
C43   H5    S    
C40   C42   A    
C44   H8    S    
C46   H13   S    
C28   O12   S    
C26   O6    A    
C50   H25   S    
C27   C34   S    
C30   C34   S    
C27   C31   S    
O11   C45   S    
C28   C32   S    
C4    C6    A    
O15   C49   S    
C13   N1    A    
C47   H15   S    
Cu1   O1    S    
C14   N2    A    
C43   H3    S    
C22   Br10  S    
C49   H23   S    
C32   C34   S    
C30   O14   S    
Cu1   Cu2   S    
C12   Br6   S    
O10   C44   S    
Cu2   O8    S    
C26   C33   S    
C14   Br8   S    
C48   H18   S    
C10   O16   S    
C16   C20   A    
C23   Br11  S    
O16   C50   S    
C49   H22   S    
C11   Br5   S    
C1    C38   S    
Cu1   O7    S    
C48   H19   S    
C28   C33   S    
C13   C15   A    
C46   H14   S    
C14   C16   A    
C8    Br4   S    
C3    C4    A    
C35   H1    S    
C50   H26   S    
Cu2   O2    S    
C7    C9    A    
C11   C17   A    
C16   C22   A    
C25   O5    A    
O12   C46   S    
C3    C5    A    
C31   O9    S    
C28   C30   S    
C32   O10   S    
C5    C10   A    
C37   C39   A    
C38   C40   A    
C47   H17   S    
C40   Br2   S    
O9    C43   S    
C4    C42   A    
C45   H11   S    
C5    C35   A    
C36   C38   A    
C49   H21   S    
C17   C19   A    
C6    C36   A    
C18   C20   A    
C7    C41   A    
C1    O4    A    
C27   O11   S    
C2    O3    A    
C44   H6    S    
Cu2   O6    S    
C15   C21   A    
C48   H20   S    
C29   O13   S    
C8    C10   A    
O14   C48   S    
C21   C24   A    
C12   C18   A    
C45   H10   S    
C22   C23   A    
Cu1   N1    S    
C21   Br9   S    
Cu2   N2    S    
