data_mof_unit_8386.cif
_audit_creation_date              2012-12-10T17:08:09-0500
_audit_creation_method            fapswitch 2.2
_symmetry_space_group_name_H-M    P1
_symmetry_Int_Tables_number       1
_space_group_crystal_system       triclinic
_cell_length_a                    23.529094
_cell_length_b                    11.065913
_cell_length_c                    9.824961
_cell_angle_alpha                 112.209375
_cell_angle_beta                  97.507481
_cell_angle_gamma                 91.092038
_cell_volume                      2341.50358344

loop_
_atom_site_label
_atom_site_type_symbol
_atom_type_description
_atom_site_fract_x
_atom_site_fract_y
_atom_site_fract_z
_atom_type_partial_charge
C1    C     C_R   0.495733 0.253198 0.438712 0.830887
C2    C     C_R   0.504256 0.746798 0.561291 0.831250
C3    C     C_R   0.235952 0.555441 0.424009 -0.069475
C4    C     C_R   0.764002 0.444258 0.575843 -0.069330
C5    C     C_R   0.294861 0.551996 0.421598 -0.202764
C6    C     C_R   0.705088 0.447667 0.578147 -0.202886
C7    C     C_R   0.328863 0.493528 0.504583 -0.112386
C8    C     C_R   0.671133 0.506454 0.495444 -0.112276
C9    C     C_R   0.302680 0.435790 0.589998 -0.049424
C10   C     C_R   0.697365 0.564547 0.410405 -0.049764
C11   C     C_R   0.243419 0.442565 0.593444 -0.119304
C12   C     C_R   0.756638 0.557811 0.407074 -0.119185
C13   C     C_R   0.210046 0.500874 0.509796 0.315661
C14   C     C_R   0.789965 0.499184 0.490446 0.315412
C15   C     C_2   0.492887 0.111558 0.399857 -0.179311
C16   C     C_2   0.507076 0.888434 0.600175 -0.179118
C17   C     C_2   0.504388 0.068696 0.510614 -0.156414
C18   C     C_2   0.495404 0.931334 0.489497 -0.156230
C19   C     C_2   0.504596 0.511436 0.081736 -0.052397
C20   C     C_2   0.495411 0.488552 0.918264 -0.052451
C21   C     C_R   0.391112 0.496844 0.501267 0.844538
C22   C     C_R   0.608886 0.503154 0.498735 0.844896
C23   C     C_R   0.883579 0.615715 0.556837 0.547434
C24   C     C_R   0.116439 0.384387 0.443693 0.547403
C25   C     C_R   0.875113 0.383823 0.431977 0.567092
C26   C     C_R   0.124926 0.616287 0.568465 0.566975
C27   C     C_R   0.935553 0.379570 0.443192 -0.083764
C28   C     C_R   0.064488 0.620561 0.557495 -0.083827
C29   C     C_R   0.969850 0.500018 0.499685 -0.013944
C30   C     C_R   0.030186 0.500112 0.500998 -0.013898
C31   C     C_R   0.943667 0.620341 0.555026 -0.057709
C32   C     C_R   0.056362 0.379779 0.445652 -0.057787
C33   C     C_R   0.962330 0.259429 0.397712 -0.061688
C34   C     C_R   0.037712 0.740707 0.603227 -0.061622
C35   C     C_R   0.022144 0.259645 0.396335 -0.126982
C36   C     C_R   0.977895 0.740480 0.604543 -0.126845
Cu1   Cu    Cu3+1 0.509980 0.521810 0.644910 1.013277
Cu2   Cu    Cu3+1 0.490020 0.478190 0.355090 1.013329
H1    H     H_    0.555302 0.625748 0.935815 0.216684
H2    H     H_    0.444696 0.374258 0.064186 0.216653
H3    H     H_    0.210254 0.600030 0.358522 0.163728
H4    H     H_    0.789661 0.399424 0.641123 0.163883
H5    H     H_    0.314089 0.596381 0.355670 0.172973
H6    H     H_    0.685819 0.403017 0.643783 0.172833
H7    H     H_    0.222459 0.398602 0.657222 0.179725
H8    H     H_    0.777646 0.602042 0.343606 0.180062
H9    H     H_    0.479989 0.861173 0.378223 0.207649
H10   H     H_    0.519675 0.138889 0.621944 0.207764
H11   H     H_    0.462804 0.413870 0.844376 0.197610
H12   H     H_    0.537209 0.586107 0.155623 0.197665
N1    N     N_R   0.851116 0.499582 0.492729 -0.464875
N2    N     N_R   0.148904 0.500513 0.507657 -0.464874
N3    N     N_2   0.475010 0.445410 0.137370 -0.284148
N4    N     N_2   0.524990 0.554590 0.862630 -0.284205
O1    O     O_R   0.505330 0.332340 0.577400 -0.570029
O2    O     O_R   0.494670 0.667660 0.422600 -0.569832
O3    O     O_R   0.488470 0.295500 0.332650 -0.552852
O4    O     O_R   0.511530 0.704500 0.667350 -0.553007
O5    O     O_R   0.426310 0.518390 0.622390 -0.566644
O6    O     O_R   0.573690 0.481610 0.377610 -0.566579
O7    O     O_R   0.409450 0.481550 0.377650 -0.567220
O8    O     O_R   0.590550 0.518450 0.622350 -0.567174
O9    O     O_2   0.857289 0.725556 0.623087 -0.509162
O10   O     O_2   0.142714 0.274533 0.377437 -0.509223
O11   O     O_2   0.840018 0.274270 0.357687 -0.488184
O12   O     O_2   0.160043 0.725832 0.642527 -0.488161
C37   C     C_2   0.929400 0.132169 0.361194 0.924778
O13   O     O_2   0.905166 0.114029 0.455365 -0.543539
O14   O     O_R   0.927350 0.032875 0.220470 -0.725322
H13   H     H_    0.904164 0.950742 0.209622 0.350684
C38   C     C_2   0.070655 0.868052 0.640294 0.924710
O15   O     O_2   0.094741 0.886746 0.546190 -0.543516
O16   O     O_R   0.072887 0.966793 0.781503 -0.725085
H14   H     H_    0.096073 0.049058 0.792751 0.350703
C39   C     C_1   0.047856 0.134597 0.352635 0.410652
N5    N     N_1   0.068022 0.034720 0.317738 -0.154902
C40   C     C_1   0.952200 0.865552 0.648464 0.410099
N6    N     N_1   0.932051 0.965452 0.683532 -0.155256
C41   C     C_2   0.334482 0.361198 0.669198 0.858471
O17   O     O_2   0.372796 0.294014 0.615726 -0.588723
O18   O     O_R   0.318912 0.363648 0.802753 -0.751531
H15   H     H_    0.343382 0.308497 0.845851 0.342014
C42   C     C_2   0.665617 0.639506 0.331540 0.858254
O19   O     O_2   0.627107 0.706114 0.384787 -0.588694
O20   O     O_R   0.681471 0.638136 0.198681 -0.751488
H16   H     H_    0.657022 0.693465 0.155811 0.342410
C43   C     C_2   0.522212 0.977955 0.759239 0.868053
O21   O     O_2   0.561892 0.955419 0.837774 -0.551131
O22   O     O_R   0.489667 0.084524 0.820428 -0.753042
H17   H     H_    0.503811 0.136817 0.929725 0.344644
C44   C     C_2   0.477937 0.021990 0.240761 0.868070
O23   O     O_2   0.438429 0.044591 0.161821 -0.551086
O24   O     O_R   0.510462 0.915283 0.180016 -0.753168
H18   H     H_    0.496452 0.862960 0.070657 0.344509

loop_
_geom_bond_atom_site_label_1
_geom_bond_atom_site_label_2
_ccdc_geom_bond_type
C24   N2    A    
C43   O21   D    
O24   H18   S    
C27   C29   A    
O16   H14   S    
C19   C20   S    
C17   H10   S    
C18   H9    S    
C25   N1    A    
Cu1   O8    S    
O20   H16   S    
C27   C33   A    
C35   C39   S    
Cu1   Cu2   S    
C21   O5    A    
C1    O3    A    
C36   C40   S    
C22   O6    A    
H1    N4    S    
C44   O24   S    
C13   N2    S    
C10   C42   S    
C7    C9    A    
C9    C41   S    
C14   N1    S    
C16   C43   S    
C8    C22   S    
C1    C15   S    
C29   C30   A    
C2    C16   S    
C21   O7    A    
Cu1   O4    S    
C3    C13   A    
C40   N6    T    
Cu2   O7    S    
C19   N3    D    
C23   O9    S    
C5    H5    S    
C28   C34   A    
C24   O10   S    
C6    H6    S    
O18   H15   S    
C5    C7    A    
C37   O13   D    
C26   O12   S    
C32   C35   A    
C25   O11   S    
C12   H8    S    
C44   O23   D    
C41   O18   S    
C6    C8    A    
C7    C21   S    
C37   O14   S    
C23   C31   A    
C39   N5    T    
C24   C32   A    
C20   H11   S    
C26   N2    A    
C22   O8    A    
Cu2   O3    S    
C23   N1    A    
C42   O19   D    
C17   C18   S    
C16   C18   D    
C9    C11   A    
Cu1   O5    S    
C10   C12   A    
Cu2   O6    S    
Cu1   N4    S    
C20   N4    D    
C42   O20   S    
C12   C14   A    
C43   O22   S    
C11   H7    S    
C4    C6    A    
C33   C37   S    
C38   O16   S    
C15   C17   D    
C3    H3    S    
C3    C5    A    
C2    O4    A    
C25   C27   A    
C26   C28   A    
C28   C30   A    
C1    O1    A    
C38   O15   D    
C29   C31   A    
C2    O2    A    
C30   C32   A    
C11   C13   A    
C19   H12   S    
Cu2   N3    S    
C4    H4    S    
C33   C35   A    
C34   C36   A    
C4    C14   A    
O14   H13   S    
C15   C44   S    
C41   O17   D    
Cu1   O1    S    
Cu2   O2    S    
C8    C10   A    
H2    N3    S    
C31   C36   A    
O22   H17   S    
C34   C38   S    
