data_mof_unit_44262.cif
_audit_creation_date              2012-12-10T17:31:07-0500
_audit_creation_method            fapswitch 2.2
_symmetry_space_group_name_H-M    P1
_symmetry_Int_Tables_number       1
_space_group_crystal_system       triclinic
_cell_length_a                    11.992221
_cell_length_b                    12.909362
_cell_length_c                    15.427234
_cell_angle_alpha                 87.149839
_cell_angle_beta                  115.779957
_cell_angle_gamma                 93.467934
_cell_volume                      2145.94580307

loop_
_atom_site_label
_atom_site_type_symbol
_atom_type_description
_atom_site_fract_x
_atom_site_fract_y
_atom_site_fract_z
_atom_type_partial_charge
C1    C     C_R   0.477558 0.299435 0.499151 0.912017
C2    C     C_R   0.522405 0.700560 0.500769 0.908205
C3    C     C_R   0.662768 0.521440 0.119824 -0.228768
C4    C     C_R   0.402936 0.629684 0.905060 -0.222996
C5    C     C_R   0.746902 0.501631 0.083838 -0.179819
C6    C     C_R   0.318727 0.648243 0.941673 -0.178697
C7    C     C_R   0.535718 0.811849 0.501233 -0.110013
C8    C     C_R   0.464144 0.188134 0.498453 -0.111806
C9    C     C_R   0.339161 0.030574 0.479553 0.163549
C10   C     C_R   0.660617 0.969406 0.519906 0.163910
C11   C     C_R   0.351119 0.137730 0.483078 -0.204752
C12   C     C_R   0.648708 0.862249 0.516519 -0.204692
C13   C     C_R   0.566617 0.132416 0.511739 -0.230909
C14   C     C_R   0.433187 0.867565 0.487787 -0.232296
C15   C     C_R   0.557469 0.025772 0.507938 0.091446
C16   C     C_R   0.442305 0.974213 0.491512 0.091459
C17   C     C_R   0.002510 0.598880 0.409869 -0.295750
C18   C     C_R   0.997192 0.400706 0.589643 -0.284701
C19   C     C_R   0.123527 0.589578 0.419000 0.044199
C20   C     C_R   0.876334 0.410199 0.580753 0.043947
C21   C     C_R   0.161115 0.457209 0.539215 -0.034775
C22   C     C_R   0.838709 0.542597 0.460543 -0.040466
C23   C     C_R   0.576945 0.496475 0.680661 0.896437
C24   C     C_R   0.423717 0.506816 0.319328 0.897651
C25   C     C_R   0.040011 0.463888 0.532597 0.081032
C26   C     C_R   0.959736 0.535817 0.467020 0.079515
C27   C     C_R   0.627559 0.503113 0.785025 -0.103083
C28   C     C_R   0.381074 0.529759 0.216619 -0.097972
C29   C     C_R   0.789118 0.472704 0.945577 0.179973
C30   C     C_R   0.250750 0.623510 0.070561 0.178881
C31   C     C_R   0.746719 0.471552 0.845855 -0.194195
C32   C     C_R   0.274119 0.584463 0.162848 -0.186462
C33   C     C_R   0.553336 0.541559 0.823401 -0.251825
C34   C     C_R   0.462751 0.512367 0.177652 -0.246285
C35   C     C_R   0.593088 0.545301 0.922662 0.070435
C36   C     C_R   0.448911 0.559017 0.090525 0.065402
C37   C     C_R   0.711392 0.507278 0.984745 0.109991
C38   C     C_R   0.338220 0.610740 0.033515 0.100821
C39   C     C_R   0.512566 0.576622 0.960858 0.086441
C40   C     C_R   0.541625 0.551802 0.057996 0.089620
H1    H     H_    0.837697 0.477482 0.134288 0.184404
H2    H     H_    0.236993 0.689692 0.896078 0.189055
H3    H     H_    0.844175 0.361381 0.625072 0.138039
H4    H     H_    0.155673 0.638331 0.374631 0.138183
H5    H     H_    0.942997 0.654890 0.358516 0.164053
H6    H     H_    0.056582 0.344483 0.640783 0.164652
H7    H     H_    0.539023 0.462918 0.217805 0.166557
H8    H     H_    0.461124 0.562935 0.774189 0.166030
H9    H     H_    0.210987 0.599663 0.193470 0.179173
H10   H     H_    0.805091 0.442388 0.816008 0.178533
H11   H     H_    0.695678 0.514599 0.197028 0.150048
H12   H     H_    0.381887 0.660829 0.833672 0.158119
H13   H     H_    0.346150 0.827033 0.474896 0.196342
H14   H     H_    0.653664 0.172937 0.524642 0.196529
H15   H     H_    0.727961 0.818523 0.526618 0.189078
H16   H     H_    0.271890 0.181451 0.473045 0.189375
H17   H     H_    0.776110 0.597729 0.410472 0.131689
H18   H     H_    0.223650 0.402003 0.589217 0.133967
N1    N     N_R   0.799120 0.480200 0.517090 -0.102510
N2    N     N_R   0.200880 0.519800 0.482910 -0.103713
O1    O     O_R   0.580150 0.341050 0.504560 -0.624699
O2    O     O_R   0.419850 0.658950 0.495440 -0.627182
O3    O     O_R   0.388090 0.353760 0.493600 -0.618887
O4    O     O_R   0.611910 0.646240 0.506400 -0.619842
O5    O     O_R   0.650890 0.490020 0.640860 -0.615823
O6    O     O_R   0.349110 0.509980 0.359140 -0.613215
O7    O     O_R   0.458830 0.502730 0.629890 -0.621019
O8    O     O_R   0.541170 0.497270 0.370110 -0.620551
Zn1   Zn    Zn3+2 0.628240 0.491510 0.507320 0.958095
Zn2   Zn    Zn3+2 0.371760 0.508490 0.492680 0.957779
I1    I     I_    0.966319 0.411636 0.030225 -0.359272
I2    I     I_    0.085983 0.706215 0.995681 -0.338702
I3    I     I_    0.162173 0.962305 0.455645 -0.339926
I4    I     I_    0.837585 0.037634 0.543730 -0.339029

loop_
_geom_bond_atom_site_label_1
_geom_bond_atom_site_label_2
_ccdc_geom_bond_type
C8    C13   A    
C5    C37   A    
C1    C8    S    
C2    C7    S    
C22   H17   S    
C27   C33   A    
O2    Zn2   S    
C4    H12   S    
C17   C26   A    
C35   C37   A    
C9    C16   A    
C17   H5    S    
C10   C15   A    
C15   C16   A    
C18   H6    S    
C30   C38   A    
C23   O7    A    
C36   C40   A    
C5    H1    S    
C33   C35   A    
C7    C14   A    
O8    Zn1   S    
C6    C38   A    
C23   C27   S    
C34   C36   A    
C24   O6    A    
C28   C34   A    
C18   C25   A    
C9    I3    S    
C1    O3    A    
C2    O4    A    
C7    C12   A    
O3    Zn2   S    
C27   C31   A    
C28   C32   A    
C21   N2    A    
C4    C6    A    
C39   C40   A    
C3    H11   S    
C25   C26   A    
C35   C39   A    
C4    C39   A    
N2    Zn2   S    
O4    Zn1   S    
C20   N1    A    
C9    C11   A    
C10   C12   A    
N1    Zn1   S    
C3    C40   A    
C13   C15   A    
C6    H2    S    
C14   C16   A    
C31   H10   S    
C22   N1    A    
C20   H3    S    
C19   H4    S    
C13   H14   S    
O1    Zn1   S    
C21   C25   A    
C24   C28   S    
C3    C5    A    
C1    O1    A    
C30   I2    S    
C19   N2    A    
O7    Zn2   S    
C23   O5    A    
C36   C38   A    
C21   H18   S    
C29   C31   A    
C30   C32   A    
C10   I4    S    
O6    Zn2   S    
C8    C11   A    
O5    Zn1   S    
C17   C19   A    
C18   C20   A    
C32   H9    S    
C12   H15   S    
C24   O8    A    
C14   H13   S    
C22   C26   A    
C29   C37   A    
C33   H8    S    
C34   H7    S    
C11   H16   S    
C2    O2    A    
C29   I1    S    
