data_mof_unit_6581.cif
_audit_creation_date              2013-03-05T15:47:07-0500
_audit_creation_method            fapswitch 2.2
_symmetry_space_group_name_H-M    P1
_symmetry_Int_Tables_number       1
_space_group_crystal_system       triclinic
_cell_length_a                    10.325
_cell_length_b                    10.553266
_cell_length_c                    13.375906
_cell_angle_alpha                 93.649598
_cell_angle_beta                  100.134858
_cell_angle_gamma                 96.230266
_cell_volume                      1421.14744284

loop_
_atom_site_label
_atom_site_type_symbol
_atom_site_description
_atom_site_fract_x
_atom_site_fract_y
_atom_site_fract_z
_atom_type_partial_charge
O1    O     O_R   0.935190 0.693030 0.507870 -0.564539
O2    O     O_R   0.064810 0.306970 0.492130 -0.543192
O3    O     O_R   0.142080 0.658430 0.482770 -0.616837
O4    O     O_R   0.857920 0.341570 0.517230 -0.569738
C1    C     C_R   0.055084 0.734320 0.498326 0.825968
C2    C     C_R   0.948242 0.266269 0.509450 0.828769
O5    O     O_R   0.969700 0.527180 0.651960 -0.536458
O6    O     O_R   0.030300 0.472820 0.348040 -0.555163
O7    O     O_R   0.176600 0.492580 0.626860 -0.574186
O8    O     O_R   0.823400 0.507420 0.373140 -0.623244
C3    C     C_R   0.093713 0.517760 0.686882 0.919630
C4    C     C_R   0.907012 0.485072 0.312909 0.928791
Zn1   Zn    Zn3+2 0.861850 0.523100 0.516760 1.106338
Zn2   Zn    Zn3+2 0.138150 0.476900 0.483240 1.104310
C5    C     C_R   0.143677 0.535781 0.797388 -0.187417
C6    C     C_R   0.856135 0.469871 0.202354 -0.214962
C7    C     C_R   0.155391 0.641063 0.967187 0.314019
C8    C     C_R   0.845585 0.375888 0.029780 0.391703
C9    C     C_R   0.090435 0.614666 0.864984 0.392411
C10   C     C_R   0.917763 0.409305 0.129380 0.329040
C11   C     C_R   0.257630 0.481705 0.832862 -0.252436
C12   C     C_R   0.734155 0.512046 0.170795 -0.202116
C13   C     C_R   0.322099 0.502255 0.934015 0.064446
C14   C     C_R   0.661690 0.480869 0.072849 0.083602
C15   C     C_R   0.273711 0.586508 0.002215 -0.038740
C16   C     C_R   0.709143 0.394434 0.006708 -0.040437
C17   C     C_R   0.444676 0.453439 0.964311 0.015567
C18   C     C_R   0.535173 0.521314 0.046211 0.097912
C19   C     C_R   0.492849 0.623178 0.102857 -0.094868
C20   C     C_R   0.480767 0.343226 0.913234 -0.111086
C21   C     C_R   0.356524 0.627188 0.097025 -0.064724
C22   C     C_R   0.615775 0.320688 0.928020 -0.055481
H1    H     H_    0.689790 0.561268 0.226772 0.159986
H2    H     H_    0.303042 0.431472 0.777902 0.205803
H3    H     H_    0.125128 0.134878 0.596449 0.232600
H4    H     H_    0.956929 0.891670 0.612438 0.238384
C23   C     C_2   0.095060 0.871612 0.514364 -0.233226
C24   C     C_2   0.923620 0.131605 0.527170 -0.235576
C25   C     C_2   0.029005 0.939791 0.572942 -0.036429
C26   C     C_2   0.029947 0.077094 0.570455 -0.093692
N1    N     N_2   0.322180 0.446120 0.460900 0.044289
N2    N     N_2   0.677820 0.553880 0.539100 0.044449
C27   C     C_2   0.429634 0.527613 0.493528 0.024726
C28   C     C_2   0.567235 0.502875 0.477984 0.024427
C29   C     C_2   0.303460 0.657374 0.191349 0.472084
H5    H     H_    0.198456 0.637870 0.191804 0.154501
O9    O     O_2   0.376864 0.695759 0.271896 -0.664390
C30   C     C_2   0.651376 0.205438 0.874926 0.630626
H6    H     H_    0.634181 0.194102 0.792283 0.121466
O10   O     O_2   0.696374 0.120820 0.923408 -0.468739
Cl1   Cl    Cl    0.079801 0.366121 0.161397 -0.516013
Cl2   Cl    Cl    0.954322 0.697078 0.820319 -0.400007
Cl3   Cl    Cl    0.100609 0.763553 0.040643 -0.494576
Cl4   Cl    Cl    0.931491 0.321960 0.934710 -0.536058
C31   C     C_2   0.583617 0.740919 0.146731 0.471423
H7    H     H_    0.553559 0.810067 0.198884 0.136234
O11   O     O_2   0.689973 0.766241 0.119817 -0.485359
C32   C     C_2   0.373528 0.241686 0.860546 0.400424
H8    H     H_    0.278646 0.231888 0.885475 0.139634
O12   O     O_2   0.387082 0.172116 0.787604 -0.537832
C33   C     C_2   0.787245 0.063608 0.491667 0.484646
H9    H     H_    0.710394 0.115300 0.453366 0.142246
O13   O     O_2   0.758243 0.951304 0.504286 -0.544366
C34   C     C_2   0.204253 0.927063 0.465683 0.521690
H10   H     H_    0.227243 0.875957 0.399222 0.087856
O14   O     O_2   0.274068 0.025430 0.502214 -0.469192
C35   C     C_2   0.571923 0.430088 0.381160 0.534820
H11   H     H_    0.516376 0.456376 0.310428 0.049814
O15   O     O_2   0.626791 0.333419 0.380485 -0.535143
C36   C     C_2   0.417260 0.658483 0.533362 0.544601
H12   H     H_    0.458308 0.739700 0.498241 0.088149
O16   O     O_2   0.371683 0.676993 0.610436 -0.500188
Cl5   Cl    Cl    0.669392 0.602279 0.663763 -0.378539
Cl6   Cl    Cl    0.335999 0.286352 0.432166 -0.382439

loop_
_geom_bond_atom_site_label_1
_geom_bond_atom_site_label_2
_geom_bond_distance
_ccdc_geom_bond_type
C15   C21   1.411759 A    
C24   C26   1.351724 D    
O7    Zn2   1.884752 S    
C2    C24   1.458122 S    
C5    C9    1.411087 A    
C16   C22   1.420779 A    
C36   H12   1.085093 S    
C13   C17   1.420909 A    
N2    Cl5   1.732411 S    
C27   C36   1.475207 S    
N1    C27   1.317470 D    
Zn1   N2    2.031416 S    
C8    C16   1.425728 A    
C6    C10   1.411957 A    
O6    C4    1.300335 A    
C24   C33   1.491680 S    
C7    C15   1.424430 A    
C34   H10   1.085592 S    
C31   H7    1.084438 S    
C30   O10   1.221310 D    
H3    C26   1.086842 S    
N1    Cl6   1.732031 S    
C22   C30   1.482473 S    
C23   C25   1.348918 D    
C29   H5    1.082528 S    
C17   C20   1.428614 A    
C20   C22   1.421173 A    
O7    C3    1.308283 A    
C4    C6    1.471928 S    
O2    C2    1.298198 A    
O3    Zn2   1.912190 S    
N2    C28   1.320525 D    
C27   C28   1.519010 S    
Zn2   N1    2.031416 S    
O1    C1    1.297768 A    
C20   C32   1.497552 S    
O4    C2    1.302502 A    
C30   H6    1.085018 S    
C7    C9    1.408731 A    
C14   C16   1.414779 A    
O5    C3    1.300248 A    
C10   Cl1   1.768714 S    
C8    C10   1.410088 A    
C31   O11   1.222524 D    
C11   C13   1.391091 A    
C33   H9    1.084500 S    
O2    Zn2   1.888817 S    
C12   C14   1.389665 A    
C5    C11   1.385234 A    
O1    Zn1   1.888816 S    
C1    C23   1.454341 S    
C8    Cl4   1.772592 S    
C32   O12   1.220533 D    
C35   H11   1.085356 S    
C7    Cl3   1.774522 S    
O5    Zn1   1.945048 S    
C23   C34   1.483645 S    
C36   O16   1.219630 D    
C19   C21   1.401357 A    
C13   C15   1.423343 A    
C21   C29   1.491126 S    
C29   O9    1.220532 D    
C25   C26   1.450515 S    
C33   O13   1.220254 D    
C12   H1    1.078484 S    
C18   C19   1.426691 A    
C28   C35   1.474175 S    
O6    Zn2   1.945048 S    
C11   H2    1.080246 S    
C19   C31   1.492489 S    
O3    C1    1.300860 A    
C32   H8    1.085800 S    
O8    C4    1.309475 A    
C3    C5    1.470263 S    
C9    Cl2   1.767586 S    
C17   C18   1.407426 A    
H4    C25   1.086874 S    
C14   C18   1.411419 A    
O4    Zn1   1.912190 S    
C6    C12   1.385995 A    
C35   O15   1.219767 D    
O8    Zn1   1.884750 S    
C34   O14   1.218626 D    
