data_mof_unit_64152.cif
_audit_creation_date              2013-03-05T15:57:31-0500
_audit_creation_method            fapswitch 2.2
_symmetry_space_group_name_H-M    P1
_symmetry_Int_Tables_number       1
_space_group_crystal_system       triclinic
_cell_length_a                    6.983853
_cell_length_b                    20.117884
_cell_length_c                    21.724618
_cell_angle_alpha                 92.822539
_cell_angle_beta                  88.830138
_cell_angle_gamma                 90.780113
_cell_volume                      3047.73490337

loop_
_atom_site_label
_atom_site_type_symbol
_atom_site_description
_atom_site_fract_x
_atom_site_fract_y
_atom_site_fract_z
_atom_type_partial_charge
O1    O     O_R   0.505910 0.557140 0.441630 -0.570666
O2    O     O_R   0.175760 0.566370 0.557960 -0.568812
O3    O     O_R   0.005440 0.442860 0.558370 -0.565564
C1    C     C_R   0.344191 0.584082 0.580642 0.975272
O4    O     O_R   0.176200 0.564760 0.442040 -0.570051
O5    O     O_R   0.005880 0.441250 0.441620 -0.571182
C2    C     C_R   0.347302 0.582449 0.419648 0.916168
O6    O     O_R   0.505470 0.558750 0.558380 -0.564073
O7    O     O_3   0.339200 0.459480 0.500000 -0.245503
V1    V     V_3+5 0.064350 0.507520 0.500000 1.180926
O8    O     O_R   0.676160 0.433630 0.442040 -0.572222
C3    C     C_R   0.845584 0.415507 0.419915 0.944149
O9    O     O_R   0.675730 0.435240 0.557960 -0.571747
C4    C     C_R   0.842151 0.420552 0.577676 0.988022
V2    V     V_3+5 0.564340 0.492480 0.500000 1.191862
O10   O     O_3   0.839360 0.540520 0.500000 -0.271808
C5    C     C_3   0.085017 0.314464 0.751085 0.378493
C6    C     C_3   0.719525 0.298681 0.760799 -0.317065
C7    C     C_3   0.760850 0.257368 0.816316 -0.433850
H1    H     H_    0.591165 0.277656 0.737578 0.256326
H2    H     H_    0.682622 0.350063 0.777065 0.262051
H3    H     H_    0.788221 0.291413 0.856940 0.242899
H4    H     H_    0.632218 0.227387 0.827904 0.259406
C8    C     C_1   0.935051 0.120871 0.885021 -0.229320
C9    C     C_3   0.892588 0.295049 0.714880 0.065825
C10   C     C_3   0.125737 0.253012 0.795703 -0.089566
C11   C     C_3   0.932167 0.210903 0.801151 0.131246
C12   C     C_3   0.891684 0.173047 0.738594 -0.335514
C13   C     C_3   0.893882 0.222381 0.686814 -0.391921
C14   C     C_1   0.936386 0.161639 0.847403 0.122746
C15   C     C_1   0.861027 0.338898 0.665416 0.176731
C16   C     C_1   0.846969 0.375666 0.624788 -0.177007
H5    H     H_    0.017765 0.213000 0.655175 0.245800
H6    H     H_    0.764710 0.212635 0.658292 0.190886
H7    H     H_    0.997099 0.132973 0.727852 0.208714
H8    H     H_    0.748512 0.148003 0.740748 0.203867
C17   C     C_1   0.921472 0.130481 0.138325 -0.306888
C18   C     C_1   0.910053 0.173856 0.181114 0.069210
C19   C     C_1   0.895550 0.225051 0.231996 0.002897
C20   C     C_1   0.883112 0.268192 0.274959 0.002600
C21   C     C_1   0.868608 0.319381 0.325848 0.067708
C22   C     C_1   0.857188 0.362743 0.368647 -0.306198
C23   C     C_1   0.354409 0.635340 0.633670 -0.295564
C24   C     C_1   0.366363 0.676952 0.678137 0.090738
C25   C     C_1   0.382382 0.725915 0.731194 0.015374
C26   C     C_1   0.396258 0.767082 0.775944 0.010751
C27   C     C_1   0.412282 0.816062 0.828988 0.078229
C28   C     C_1   0.424244 0.857704 0.873432 -0.311184
C29   C     C_1   0.361451 0.633820 0.368183 -0.303536
C30   C     C_1   0.372090 0.675691 0.325725 0.074433
C31   C     C_1   0.384389 0.725685 0.274802 -0.003392
C32   C     C_1   0.394584 0.767437 0.232233 -0.002762
C33   C     C_1   0.406874 0.817431 0.181311 0.077165
C34   C     C_1   0.417490 0.859304 0.138853 -0.302845
O11   O     O_R   0.273200 0.934350 0.948680 -0.565823
O12   O     O_R   0.602630 0.928390 0.064980 -0.566723
O13   O     O_R   0.772790 0.051930 0.065390 -0.569218
C35   C     C_R   0.431561 0.910679 0.087390 0.924881
O14   O     O_R   0.602920 0.926780 0.949060 -0.569938
O15   O     O_R   0.773080 0.050310 0.948640 -0.581612
C36   C     C_R   0.434475 0.909012 0.926421 0.962546
O16   O     O_R   0.272900 0.935970 0.065430 -0.568187
O17   O     O_3   0.439420 0.033650 0.007040 -0.250975
V3    V     V_3+5 0.714330 0.985650 0.007020 1.163467
O18   O     O_R   0.102790 0.057980 0.949020 -0.573440
C37   C     C_R   0.936524 0.072889 0.929502 0.986594
O19   O     O_R   0.102500 0.059590 0.064940 -0.570406
C38   C     C_R   0.933079 0.077699 0.087074 0.953769
V4    V     V_3+5 0.214320 0.000760 0.006970 1.175197
O20   O     O_3   0.939360 0.952680 0.006990 -0.267527
C39   C     C_2   0.195552 0.278241 0.859481 1.081882
O21   O     O_2   0.359813 0.299330 0.864560 -0.600476
O22   O     O_R   0.077326 0.276772 0.912205 -0.822065
H9    H     H_    0.143692 0.294599 0.950789 0.340738
N1    N     N_R   0.247886 0.326257 0.707591 0.246967
O23   O     O_R   0.246430 0.302903 0.650619 -0.405039
O24   O     O_R   0.372860 0.372987 0.721177 -0.362168
N2    N     N_R   0.275552 0.206290 0.770997 0.222736
O25   O     O_R   0.315816 0.198493 0.712443 -0.400013
O26   O     O_R   0.337419 0.161033 0.806346 -0.447711
N3    N     N_R   0.052970 0.379240 0.787018 0.216488
O27   O     O_R   0.178088 0.401969 0.826590 -0.318729
O28   O     O_R   0.945432 0.424139 0.764511 -0.387470

loop_
_geom_bond_atom_site_label_1
_geom_bond_atom_site_label_2
_geom_bond_distance
_ccdc_geom_bond_type
C35   O16   1.332346 A    
C9    C15   1.445613 S    
C6    H2    1.107878 S    
O22   H9    1.013816 S    
O2    C1    1.322281 A    
N1    O23   1.302256 A    
N3    O27   1.301053 A    
C25   C26   1.250125 T    
C24   C25   1.483849 S    
C10   C11   1.591028 S    
C10   N2    1.490119 S    
C5    C10   1.639409 S    
C12   C13   1.536075 S    
O5    C3    1.313590 A    
C18   C19   1.476178 S    
N2    O26   1.303271 A    
V2    O10   2.138361 S    
C17   C38   1.501994 S    
C13   H5    1.106348 S    
C6    C7    1.532366 S    
C21   C22   1.245351 T    
C1    O6    1.315822 A    
C3    C22   1.502015 S    
O8    V2    1.853444 S    
C15   C16   1.185599 T    
C12   H7    1.112229 S    
O12   V3    1.897178 S    
O1    V2    1.914339 S    
V3    O20   1.714089 S    
C7    C11   1.548509 S    
O7    V1    2.160809 S    
C6    H1    1.106405 S    
C8    C37   1.399373 S    
O15   C37   1.291219 A    
O9    C4    1.289874 A    
C11   C14   1.446664 S    
C10   C39   1.538408 S    
C6    C9    1.551545 S    
N3    O28   1.302314 A    
C9    C13   1.556090 S    
O14   C36   1.322279 A    
C31   C32   1.279870 T    
O17   V4    1.697315 S    
C7    H3    1.108305 S    
C2    C29   1.560256 S    
C19   C20   1.245352 T    
C39   O22   1.399511 S    
N2    O25   1.299533 A    
C33   C34   1.279814 T    
C13   H6    1.114561 S    
O19   C38   1.317271 A    
O16   V4    1.917823 S    
O19   V4    1.853336 S    
C7    H4    1.106874 S    
C23   C24   1.250092 T    
C17   C18   1.245341 T    
C27   C28   1.250108 T    
C30   C31   1.531702 S    
O14   V3    1.860532 S    
N1    O24   1.301355 A    
O11   V4    1.839764 S    
O3    C4    1.289524 A    
C20   C21   1.476187 S    
C29   C30   1.279816 T    
O6    V2    1.839059 S    
O9    V2    1.929743 S    
O13   C38   1.313585 A    
O2    V1    1.860292 S    
C32   C33   1.531702 S    
O13   V3    1.841865 S    
O4    C2    1.331506 A    
C34   C35   1.560259 S    
C26   C27   1.483863 S    
O1    C2    1.332362 A    
C4    C16   1.399059 S    
O5    V1    1.841886 S    
O8    C3    1.317292 A    
C1    C23   1.509960 S    
O15   V3    1.896244 S    
C5    C9    1.604948 S    
O7    V2    1.698409 S    
C39   O21   1.222904 D    
O3    V1    1.896304 S    
V1    O10   1.714098 S    
C28   C36   1.509998 S    
O18   V4    1.929756 S    
O11   C36   1.315819 A    
O12   C35   1.331572 A    
C5    N3    1.502777 S    
V4    O20   2.138343 S    
C8    C14   1.185800 T    
O17   V3    2.160798 S    
O4    V1    1.897336 S    
C12   H8    1.114678 S    
O18   C37   1.288487 A    
C11   C12   1.553954 S    
C5    N1    1.487856 S    
