data_mof_unit_25253.cif
_audit_creation_date              2013-03-05T15:57:25-0500
_audit_creation_method            fapswitch 2.2
_symmetry_space_group_name_H-M    P1
_symmetry_Int_Tables_number       1
_space_group_crystal_system       triclinic
_cell_length_a                    13.03502
_cell_length_b                    13.04234
_cell_length_c                    15.446758
_cell_angle_alpha                 117.592718
_cell_angle_beta                  63.497579
_cell_angle_gamma                 97.838046
_cell_volume                      2074.60520255

loop_
_atom_site_label
_atom_site_type_symbol
_atom_site_description
_atom_site_fract_x
_atom_site_fract_y
_atom_site_fract_z
_atom_type_partial_charge
C1    C     C_R   0.997287 0.832568 0.060430 -0.117332
H1    H     H_    0.026195 0.893596 0.119666 0.098723
N1    N     N_R   0.037320 0.720000 0.995830 -0.045305
C2    C     C_R   0.679064 0.477021 0.219583 -0.119540
H2    H     H_    0.608670 0.440463 0.199216 0.101979
N2    N     N_R   0.790770 0.446140 0.151990 -0.046237
C3    C     C_R   0.755873 0.518669 0.893213 -0.143846
H3    H     H_    0.778559 0.546963 0.831679 0.085718
N3    N     N_R   0.824900 0.517970 0.936430 -0.040681
C4    C     C_R   0.025368 0.696437 0.297436 -0.135767
H4    H     H_    0.011422 0.654016 0.346536 0.100838
N4    N     N_R   0.003190 0.648180 0.211390 -0.040587
C5    C     C_R   0.676469 0.421293 0.990130 -0.092074
H5    H     H_    0.629252 0.358957 0.017369 0.072951
N5    N     N_R   0.774330 0.457010 0.995830 -0.045302
C6    C     C_R   0.103123 0.796800 0.204724 -0.143397
H6    H     H_    0.158663 0.849622 0.169351 0.110793
N6    N     N_R   0.053760 0.709130 0.151980 -0.039530
C7    C     C_R   0.783151 0.576112 0.309458 -0.088076
H7    H     H_    0.808935 0.638396 0.370360 0.115517
N7    N     N_R   0.853840 0.498830 0.211390 -0.042190
C8    C     C_R   0.894641 0.747551 0.966203 -0.150302
H8    H     H_    0.827358 0.730235 0.940092 0.110624
N8    N     N_R   0.974250 0.667320 0.936430 -0.041361
C9    C     C_R   0.905490 0.851954 0.045405 0.115992
C10   C     C_R   0.672535 0.556657 0.320537 0.053220
C11   C     C_R   0.662706 0.458512 0.925757 0.187021
C12   C     C_R   0.090920 0.788841 0.294901 0.049063
C13   C     C_R   0.338362 0.516141 0.950618 -0.052554
H9    H     H_    0.397452 0.554157 0.900315 0.085137
N9    N     N_R   0.225670 0.542990 0.004170 -0.050506
C14   C     C_R   0.966743 0.178091 0.781062 -0.141975
H10   H     H_    0.931429 0.115158 0.809600 0.131014
N10   N     N_R   0.946240 0.290870 0.848020 -0.046496
C15   C     C_R   0.206565 0.493464 0.690434 -0.133612
H11   H     H_    0.178849 0.453816 0.627861 0.132986
N11   N     N_R   0.146160 0.501170 0.788610 -0.040260
C16   C     C_R   0.051314 0.255101 0.086942 -0.126437
H12   H     H_    0.089763 0.274556 0.141357 0.081099
N12   N     N_R   0.025750 0.332680 0.063570 -0.037160
C17   C     C_R   0.948170 0.172296 0.995307 -0.117889
H13   H     H_    0.888779 0.116801 0.967688 0.112164
N13   N     N_R   0.962680 0.280000 0.004170 -0.043919
C18   C     C_R   0.301721 0.589957 0.789709 -0.161223
H14   H     H_    0.356583 0.650198 0.821365 0.098938
N14   N     N_R   0.209230 0.553860 0.848010 -0.041379
C19   C     C_R   0.259124 0.417251 0.047712 -0.135748
H15   H     H_    0.248567 0.363617 0.086786 0.090374
N15   N     N_R   0.175100 0.482030 0.063570 -0.043018
C20   C     C_R   0.049360 0.275312 0.683727 -0.130223
H16   H     H_    0.091989 0.297993 0.618076 0.094307
N16   N     N_R   0.996810 0.351820 0.788610 -0.040906
Ni1   Ni    Ni4+2 0.130310 0.630310 0.000000 0.219978
Ni2   Ni    Ni4+2 0.869690 0.369690 0.000000 0.211596
Ni3   Ni    Ni4+2 0.985660 0.509480 0.863750 0.214302
Ni4   Ni    Ni4+2 0.014340 0.490520 0.136250 0.224116
C21   C     C_R   0.361843 0.435302 0.975081 0.160666
C22   C     C_R   0.036497 0.163684 0.676146 0.068164
C23   C     C_R   0.302164 0.553033 0.690219 0.065932
C24   C     C_R   0.004758 0.151860 0.044398 0.028462
H17   H     H_    0.452135 0.003911 0.011376 0.120871
C25   C     C_R   0.428651 0.906407 0.098421 -0.244516
H18   H     H_    0.503145 0.846113 0.033953 0.150363
C26   C     C_R   0.363142 0.895694 0.194505 0.374304
C27   C     C_R   0.265715 0.976095 0.277526 -0.048395
C28   C     C_R   0.239390 0.066647 0.263252 -0.221892
H19   H     H_    0.164885 0.128005 0.325140 0.121555
C29   C     C_R   0.306420 0.076571 0.167900 -0.095312
H20   H     H_    0.284718 0.146118 0.157585 0.104590
C30   C     C_R   0.400487 0.996259 0.085432 -0.153348
C31   C     C_R   0.163833 0.060152 0.478540 -0.217329
H21   H     H_    0.200291 0.140350 0.480512 0.127692
C32   C     C_R   0.087809 0.053798 0.575084 0.050151
C33   C     C_R   0.060570 0.942252 0.568909 0.008903
C34   C     C_R   0.093377 0.846833 0.468222 -0.175629
H22   H     H_    0.068706 0.763468 0.465840 0.115976
C35   C     C_R   0.134843 0.862470 0.375341 0.103386
C36   C     C_R   0.187732 0.964907 0.377430 0.100884
C37   C     C_R   0.025563 0.912713 0.727483 -0.153334
H23   H     H_    0.114775 0.924965 0.712204 0.124076
C38   C     C_R   0.950714 0.893830 0.816253 -0.169505
H24   H     H_    0.983091 0.891502 0.868587 0.135251
C39   C     C_R   0.834711 0.879940 0.837751 -0.116909
H25   H     H_    0.776014 0.866682 0.906984 0.099101
C40   C     C_R   0.793751 0.883409 0.769638 -0.114012
H26   H     H_    0.704305 0.871722 0.785845 0.104639
C41   C     C_R   0.868067 0.903063 0.681205 -0.181265
H27   H     H_    0.835521 0.906505 0.629085 0.116186
C42   C     C_R   0.983727 0.919977 0.661162 0.120165
H28   H     H_    0.025964 0.419028 0.352175 0.110698
C43   C     C_R   0.861260 0.364065 0.358666 -0.114388
H29   H     H_    0.894965 0.276690 0.295611 0.114173
C44   C     C_R   0.745574 0.399497 0.401592 -0.110355
H30   H     H_    0.691002 0.340077 0.368603 0.117062
C45   C     C_R   0.703479 0.514842 0.479682 0.118518
C46   C     C_R   0.774038 0.590401 0.523208 -0.197978
H31   H     H_    0.742081 0.679321 0.583815 0.120140
C47   C     C_R   0.890502 0.555767 0.477038 -0.131237
H32   H     H_    0.947100 0.617504 0.503938 0.133598
C48   C     C_R   0.934747 0.443859 0.392430 -0.109587
C49   C     C_R   0.500550 0.569368 0.593376 -0.245585
H33   H     H_    0.515923 0.554712 0.650487 0.128560
C50   C     C_R   0.389913 0.575229 0.603492 0.069921
C51   C     C_R   0.370588 0.586391 0.524670 0.010618
C52   C     C_R   0.465016 0.590970 0.436501 -0.221782
H34   H     H_    0.452363 0.596450 0.373897 0.158208
C53   C     C_R   0.576057 0.575862 0.423066 0.059667
C54   C     C_R   0.593238 0.560977 0.501037 0.016347
C55   C     C_R   0.242674 0.464446 0.445779 -0.157963
H35   H     H_    0.316572 0.405698 0.377418 0.117322
C56   C     C_R   0.133011 0.425767 0.465934 -0.156842
H36   H     H_    0.122689 0.339792 0.411454 0.107827
C57   C     C_R   0.037592 0.495097 0.559967 -0.133543
H37   H     H_    0.953426 0.462545 0.578612 0.130218
C58   C     C_R   0.050486 0.606600 0.629854 -0.125704
H38   H     H_    0.975997 0.659209 0.702175 0.135005
C59   C     C_R   0.160409 0.645282 0.611029 -0.121122
H39   H     H_    0.170902 0.726191 0.671762 0.112476
C60   C     C_R   0.257523 0.571111 0.522286 0.121798
C61   C     C_2   0.474943 0.394160 0.947464 -0.180544
H40   H     H_    0.477661 0.347854 0.989386 0.117089
C62   C     C_2   0.567935 0.438025 0.896866 -0.167653
H41   H     H_    0.566320 0.480840 0.851756 0.120395
C63   C     C_2   0.823028 0.956251 0.110512 -0.173601
H42   H     H_    0.756672 0.959051 0.087336 0.137314
C64   C     C_2   0.822918 0.045955 0.200098 -0.156746
H43   H     H_    0.884846 0.049152 0.230132 0.123740
N17   N     N_R   0.397688 0.804866 0.206823 0.225980
O1    O     O_R   0.453494 0.708912 0.121682 -0.430186
O2    O     O_R   0.387579 0.823238 0.300696 -0.405343

loop_
_geom_bond_atom_site_label_1
_geom_bond_atom_site_label_2
_geom_bond_distance
_ccdc_geom_bond_type
H17   C30   1.082528 S    
C6    C12   1.381332 A    
C28   C29   1.395259 A    
C41   H27   1.083335 S    
C44   H30   1.083322 S    
C49   H33   1.085991 S    
C45   C46   1.399993 A    
N12   Ni4   1.820408 S    
C17   H13   1.077532 S    
C15   H11   1.062938 S    
C14   C22   1.392062 A    
N17   O1    1.301832 A    
C38   H24   1.078540 S    
C3    H3    1.082308 S    
C19   N15   1.339623 A    
C35   C36   1.410668 A    
C61   H40   1.083480 S    
N8    Ni3   1.820407 S    
C52   C53   1.395976 A    
C64   H43   1.084310 S    
C33   C42   1.465812 S    
C15   N11   1.320823 A    
N2    Ni2   1.876201 S    
C55   C56   1.395129 A    
C16   H12   1.079720 S    
C43   C44   1.393208 A    
C18   C23   1.378762 A    
C58   H38   1.079410 S    
C3    C11   1.379777 A    
C25   C30   1.396155 A    
C15   C23   1.375171 A    
C1    H1    1.078883 S    
C32   C33   1.418609 A    
C7    C10   1.375827 A    
C25   C26   1.407105 A    
N6    Ni1   1.875418 S    
N12   N13   1.387434 A    
C39   H25   1.078868 S    
C61   C62   1.336802 D    
C6    H6    1.075603 S    
C26   N17   1.439817 S    
C8    C9    1.389077 A    
C46   C47   1.392724 A    
C20   N16   1.337188 A    
C53   C54   1.416891 A    
N3    Ni3   1.874124 S    
C43   C48   1.394208 A    
N16   Ni3   1.821133 S    
C51   C60   1.474695 S    
C49   C54   1.363685 A    
C28   H19   1.082665 S    
C49   C50   1.388502 A    
C5    H5    1.079867 S    
C1    C9    1.390798 A    
C17   N13   1.341727 A    
N1    N8    1.387436 A    
N9    N15   1.378973 A    
H28   C48   1.078855 S    
C51   C52   1.390194 A    
C38   C39   1.400858 A    
C11   C62   1.445044 S    
C18   N14   1.324815 A    
C40   C41   1.394909 A    
C33   C34   1.381698 A    
C20   C22   1.398025 A    
N5    Ni2   1.836236 S    
C2    N2    1.336455 A    
C4    H4    1.073605 S    
C43   H29   1.080161 S    
C31   C32   1.409260 A    
C29   H20   1.082706 S    
C58   C59   1.399647 A    
C40   H26   1.082437 S    
N2    N7    1.387449 A    
C1    N1    1.345589 A    
C14   N10   1.325120 A    
C34   H22   1.079388 S    
C13   H9    1.077702 S    
C19   C21   1.387423 A    
N13   Ni2   1.835203 S    
C19   H15   1.078574 S    
C5    N5    1.323682 A    
C46   H31   1.082993 S    
C25   H18   1.082964 S    
C20   H16   1.074620 S    
C56   C57   1.397189 A    
N9    Ni1   1.836236 S    
C12   C35   1.474268 S    
C34   C35   1.393200 A    
N4    Ni4   1.821133 S    
C4    N4    1.328405 A    
C21   C61   1.444232 S    
C16   C24   1.387999 A    
C6    N6    1.337695 A    
C39   C40   1.395025 A    
C13   C21   1.381446 A    
N10   Ni2   1.875420 S    
C47   C48   1.400275 A    
C41   C42   1.404804 A    
C8    N8    1.344515 A    
C18   H14   1.082007 S    
C55   C60   1.406095 A    
C63   C64   1.335153 D    
C57   H37   1.082149 S    
C4    C12   1.384574 A    
C3    N3    1.341357 A    
C27   C36   1.484646 S    
C56   H36   1.081378 S    
C7    N7    1.323959 A    
N10   N16   1.378978 A    
C17   C24   1.389322 A    
C2    H2    1.080578 S    
N17   O2    1.301369 A    
C10   C53   1.446862 S    
N7    Ni4   1.874575 S    
C2    C10   1.386730 A    
N15   Ni4   1.874123 S    
C52   H34   1.084910 S    
C37   C38   1.395019 A    
C23   C50   1.445048 S    
C14   H10   1.063463 S    
C7    H7    1.075925 S    
C59   C60   1.405071 A    
N3    N5    1.378974 A    
C31   H21   1.081036 S    
C13   N9    1.323695 A    
C59   H39   1.081861 S    
C26   C27   1.421601 A    
C16   N12   1.342699 A    
N1    Ni1   1.835203 S    
C44   C45   1.404515 A    
N14   Ni1   1.876202 S    
C27   C28   1.407288 A    
C9    C63   1.477800 S    
C37   C42   1.399449 A    
C45   C54   1.471305 S    
C37   H23   1.082980 S    
N11   Ni3   1.874574 S    
C29   C30   1.394134 A    
C47   H32   1.080224 S    
N4    N6    1.378977 A    
C50   C51   1.419509 A    
C62   H41   1.083766 S    
C8    H8    1.077116 S    
C5    C11   1.373550 A    
N11   N14   1.387450 A    
C55   H35   1.083518 S    
C31   C36   1.397680 A    
C22   C32   1.481667 S    
C63   H42   1.083850 S    
C57   C58   1.396233 A    
