data_mof_unit_35099.cif
_audit_creation_date              2012-12-10T16:48:45-0500
_audit_creation_method            fapswitch 2.2
_symmetry_space_group_name_H-M    P1
_symmetry_Int_Tables_number       1
_space_group_crystal_system       triclinic
_cell_length_a                    7.823109
_cell_length_b                    8.58225
_cell_length_c                    10.752546
_cell_angle_alpha                 89.201692
_cell_angle_beta                  98.67784
_cell_angle_gamma                 93.081529
_cell_volume                      712.615943074

loop_
_atom_site_label
_atom_site_type_symbol
_atom_type_description
_atom_site_fract_x
_atom_site_fract_y
_atom_site_fract_z
_atom_type_partial_charge
C1    C     C_R   0.544198 0.794499 0.496539 0.941269
C2    C     C_2   0.431873 0.042595 0.500976 -0.377764
C3    C     C_3   0.887472 0.316780 0.291219 0.201566
C4    C     C_3   0.967724 0.205551 0.210358 -0.909760
C5    C     C_3   0.097883 0.758240 0.647151 0.195043
C6    C     C_3   0.019269 0.853892 0.740097 -0.892034
C7    C     C_R   0.455609 0.205661 0.502121 0.955886
C8    C     C_R   0.572807 0.499413 0.735789 0.922656
C9    C     C_R   0.428927 0.511845 0.264349 0.915358
C10   C     C_2   0.616449 0.518639 0.870180 -0.360827
C11   C     C_2   0.391237 0.535619 0.130288 -0.365762
C12   C     C_2   0.494095 0.565605 0.933043 -0.157528
C13   C     C_2   0.523543 0.566762 0.067473 -0.158989
C14   C     C_2   0.568016 0.957832 0.494838 -0.391849
H1    H     H_    0.656554 0.579560 0.114453 0.174393
H2    H     H_    0.875804 0.177585 0.123419 0.217343
H3    H     H_    0.089097 0.260205 0.183719 0.260205
H4    H     H_    0.093535 0.826476 0.558266 0.133961
H5    H     H_    0.232742 0.737133 0.689373 0.168866
H6    H     H_    0.021536 0.789318 0.830552 0.252765
H7    H     H_    0.094882 0.966738 0.757704 0.220815
H8    H     H_    0.883244 0.877623 0.701600 0.263428
H9    H     H_    0.364939 0.590033 0.886343 0.191072
H10   H     H_    0.258253 0.524049 0.082783 0.150465
H11   H     H_    0.744846 0.493199 0.917640 0.154795
H12   H     H_    0.697572 0.007871 0.489743 0.186017
H13   H     H_    0.302480 0.993062 0.504786 0.167527
H14   H     H_    0.860140 0.424695 0.235165 0.132834
H15   H     H_    0.767265 0.257894 0.315213 0.177832
H16   H     H_    0.997703 0.095702 0.263124 0.258098
N1    N     N_2   0.940600 0.458860 0.467170 0.161688
N2    N     N_2   0.059400 0.541140 0.532830 0.163098
O1    O     O_R   0.391630 0.738350 0.508060 -0.665378
O2    O     O_3   0.999974 0.617357 0.624951 -0.519964
O3    O     O_R   0.608370 0.261650 0.491940 -0.640069
O4    O     O_R   0.674540 0.711990 0.487010 -0.600330
O5    O     O_R   0.325460 0.288010 0.512990 -0.564618
O6    O     O_R   0.411370 0.508250 0.688780 -0.638961
O7    O     O_R   0.588630 0.491750 0.311220 -0.671270
O8    O     O_R   0.694270 0.481880 0.667740 -0.558678
O9    O     O_R   0.305730 0.518120 0.332260 -0.587673
O10   O     O_3   0.005737 0.351278 0.399753 -0.521164
Zn1   Zn    Zn3+2 0.311100 0.517600 0.514050 1.009716
Zn2   Zn    Zn3+2 0.688900 0.482400 0.485950 1.005920

loop_
_geom_bond_atom_site_label_1
_geom_bond_atom_site_label_2
_ccdc_geom_bond_type
C4    H2    S    
C3    O10   S    
O5    Zn1   S    
C2    H13   S    
C5    H5    S    
N1    O10   S    
C1    C14   S    
C11   C13   D    
O9    Zn1   S    
C9    O9    A    
C2    C7    S    
O8    Zn2   S    
C5    O2    S    
C7    O5    A    
C1    O1    A    
O6    Zn1   S    
C14   H12   S    
O3    Zn2   S    
C9    C11   S    
C12   H9    S    
O7    Zn2   S    
C8    O6    A    
C4    H3    S    
C10   C12   D    
C10   H11   S    
C3    H14   S    
N2    Zn1   S    
C13   H1    S    
C5    C6    S    
C2    C14   D    
O4    Zn2   S    
N1    Zn2   S    
C3    C4    S    
C6    H8    S    
C11   H10   S    
C9    O7    A    
C6    H6    S    
C12   C13   S    
C8    C10   S    
C3    H15   S    
C5    H4    S    
C8    O8    A    
O1    Zn1   S    
C6    H7    S    
C7    O3    A    
C4    H16   S    
N1    N2    D    
C1    O4    A    
N2    O2    S    
