data_mof_unit_43687.cif
_audit_creation_date              2012-10-26T18:40:23-0400
_audit_creation_method            fapswitch 2.2
_symmetry_space_group_name_H-M    P1
_symmetry_Int_Tables_number       1
_space_group_crystal_system       triclinic
_cell_length_a                    8.782286
_cell_length_b                    15.116278
_cell_length_c                    13.863756
_cell_angle_alpha                 90.144072
_cell_angle_beta                  97.509758
_cell_angle_gamma                 90.180069
_cell_volume                      1824.68599825

loop_
_atom_site_label
_atom_site_type_symbol
_atom_type_description
_atom_site_fract_x
_atom_site_fract_y
_atom_site_fract_z
_atom_type_partial_charge
C1    C     C_R   0.500300 0.329922 0.499905 0.532954
C2    C     C_R   0.613346 0.545950 0.901420 -0.136977
C3    C     C_R   0.500502 0.499917 0.054694 0.026034
C4    C     C_R   0.500433 0.499921 0.945288 0.023876
C5    C     C_R   0.204380 0.501126 0.475648 0.570961
C6    C     C_R   0.795532 0.498360 0.524266 0.567064
C7    C     C_2   0.040086 0.510577 0.463207 0.233301
C8    C     C_2   0.959572 0.487640 0.536273 0.233668
C9    C     C_R   0.443648 0.094619 0.572181 -0.133766
C10   C     C_R   0.452747 0.905366 0.416738 -0.133791
C11   C     C_R   0.441736 0.186482 0.572625 -0.160450
C12   C     C_R   0.500518 0.670136 0.500162 0.533329
C13   C     C_R   0.450882 0.813494 0.415969 -0.167060
C14   C     C_R   0.503258 0.233538 0.499881 -0.033941
C15   C     C_R   0.503581 0.766643 0.500707 -0.034495
C16   C     C_R   0.568662 0.188120 0.427376 -0.119166
C17   C     C_R   0.560150 0.812443 0.585955 -0.112527
C18   C     C_R   0.576836 0.095824 0.428765 0.267281
C19   C     C_R   0.567969 0.904773 0.586280 0.267296
C20   C     C_R   0.510990 0.048701 0.500673 0.053450
C21   C     C_R   0.511061 0.951594 0.501444 0.053363
C22   C     C_3   0.983184 0.634129 0.372603 -0.115883
C23   C     C_R   0.566235 0.570010 0.113617 -0.135082
C24   C     C_3   0.009528 0.361660 0.623537 -0.132678
C25   C     C_3   0.803286 0.056005 0.379336 -0.123846
C26   C     C_3   0.785701 0.946714 0.682027 -0.122759
C27   C     C_R   0.387546 0.453773 0.882592 -0.137545
C28   C     C_R   0.565956 0.568369 0.215033 0.066682
C29   C     C_R   0.390491 0.453951 0.781420 0.061724
C30   C     C_R   0.434540 0.431552 0.203743 0.054947
C31   C     C_R   0.610250 0.545707 0.799704 0.052611
C32   C     C_R   0.434745 0.429818 0.102320 -0.135733
Cu1   Cu    Cu3+1 0.500000 0.499990 0.596430 0.952827
Cu2   Cu    Cu3+1 0.500000 0.500010 0.403570 0.956953
H1    H     H_    0.391225 0.059228 0.627251 0.151298
H2    H     H_    0.304584 0.417135 0.734854 0.153850
H3    H     H_    0.382146 0.377446 0.238397 0.128142
H4    H     H_    0.697222 0.581944 0.767546 0.129465
H5    H     H_    0.385151 0.372973 0.062234 0.091772
H6    H     H_    0.705385 0.581188 0.944912 0.094832
H7    H     H_    0.105492 0.654987 0.376442 0.121717
H8    H     H_    0.929159 0.665493 0.432448 0.097633
H9    H     H_    0.922004 0.658729 0.302807 0.134773
H10   H     H_    0.065109 0.330103 0.564484 0.097828
H11   H     H_    0.885817 0.343088 0.616649 0.131309
H12   H     H_    0.407209 0.940521 0.351336 0.153285
H13   H     H_    0.065005 0.334786 0.693767 0.124570
H14   H     H_    0.842706 0.026138 0.451527 0.105490
H15   H     H_    0.845773 0.125262 0.376636 0.110559
H16   H     H_    0.855292 0.017372 0.323950 0.143286
H17   H     H_    0.831620 0.977781 0.619064 0.106589
H18   H     H_    0.828936 0.877858 0.692751 0.110070
H19   H     H_    0.830415 0.985249 0.747926 0.145118
H20   H     H_    0.389364 0.220712 0.628592 0.126669
H21   H     H_    0.405496 0.779128 0.349687 0.130606
H22   H     H_    0.616108 0.224127 0.370671 0.135523
H23   H     H_    0.600816 0.776775 0.651972 0.133654
H24   H     H_    0.616134 0.626775 0.082091 0.088623
H25   H     H_    0.295767 0.418343 0.910709 0.094022
H26   H     H_    0.618372 0.622449 0.258684 0.126248
N1    N     N_R   0.500000 0.500020 0.258690 -0.218992
N2    N     N_R   0.500000 0.499980 0.741310 -0.225273
O1    O     O_R   0.500010 0.371450 0.581430 -0.509302
O2    O     O_3   0.030245 0.454331 0.624032 -0.581359
O3    O     O_3   0.642159 0.051523 0.357105 -0.576631
O4    O     O_3   0.623934 0.949329 0.670817 -0.576788
O5    O     O_R   0.499990 0.628550 0.418570 -0.520632
O6    O     O_R   0.500010 0.371460 0.418560 -0.520583
O7    O     O_R   0.499990 0.628540 0.581440 -0.509862
O8    O     O_R   0.274840 0.499990 0.562640 -0.480028
O9    O     O_R   0.725160 0.500010 0.437360 -0.469085
O10   O     O_R   0.274840 0.500000 0.399770 -0.486591
O11   O     O_R   0.725160 0.500000 0.600230 -0.498302
O12   O     O_3   0.968786 0.541186 0.374296 -0.566126

loop_
_geom_bond_atom_site_label_1
_geom_bond_atom_site_label_2
_ccdc_geom_bond_type
Cu2   O5    S    
C10   H12   S    
C23   H24   S    
C2    C4    A    
C12   O7    A    
C16   H22   S    
C5    O8    A    
C25   H16   S    
C14   C16   A    
C26   H18   S    
C27   C29   A    
C5    C7    S    
C9    C20   A    
C3    C23   A    
C22   H9    S    
C25   H14   S    
C31   H4    S    
Cu1   O7    S    
Cu1   O1    S    
C28   N1    A    
C4    C27   A    
C28   H26   S    
Cu1   Cu2   S    
C7    C8    D    
C24   O2    S    
C27   H25   S    
C26   H17   S    
C18   O3    S    
C30   C32   A    
C9    C11   A    
C29   H2    S    
C31   N2    A    
C7    O12   S    
C22   H8    S    
C11   H20   S    
Cu1   O8    S    
C8    O2    S    
C24   H11   S    
C1    O1    A    
Cu1   O11   S    
C17   C19   A    
Cu1   N2    S    
C5    O10   A    
C18   C20   A    
C13   C15   A    
C10   C21   A    
C3    C32   A    
C24   H10   S    
C12   O5    A    
C25   H15   S    
C30   N1    A    
C22   H7    S    
C22   O12   S    
Cu2   O10   S    
C9    H1    S    
C3    C4    S    
C26   O4    S    
C26   H19   S    
C2    H6    S    
C1    O6    A    
C25   O3    S    
C20   C21   S    
C30   H3    S    
C6    O11   A    
C16   C18   A    
C32   H5    S    
Cu2   O6    S    
C11   C14   A    
C15   C17   A    
C29   N2    A    
C2    C31   A    
C6    C8    S    
C1    C14   S    
C19   C21   A    
C12   C15   S    
C23   C28   A    
C24   H13   S    
Cu2   O9    S    
Cu2   N1    S    
C19   O4    S    
C17   H23   S    
C6    O9    A    
C13   H21   S    
C10   C13   A    
