data_mof_unit_62337.cif
_audit_creation_date              2013-03-05T16:08:02-0500
_audit_creation_method            fapswitch 2.2
_symmetry_space_group_name_H-M    P1
_symmetry_Int_Tables_number       1
_space_group_crystal_system       triclinic
_cell_length_a                    23.45315
_cell_length_b                    11.573124
_cell_length_c                    10.771917
_cell_angle_alpha                 89.991033
_cell_angle_beta                  89.999988
_cell_angle_gamma                 90.0
_cell_volume                      2923.78060377

loop_
_atom_site_label
_atom_site_type_symbol
_atom_site_description
_atom_site_fract_x
_atom_site_fract_y
_atom_site_fract_z
_atom_type_partial_charge
O1    O     O_R   0.500000 0.334450 0.602530 -0.606079
O2    O     O_R   0.500000 0.665550 0.397470 -0.606079
O3    O     O_R   0.500000 0.665550 0.602530 -0.606218
O4    O     O_R   0.500000 0.334450 0.397470 -0.606218
C1    C     C_R   0.500000 0.281153 0.500010 0.917871
C2    C     C_R   0.500000 0.718847 0.499990 0.917871
O5    O     O_R   0.416150 0.500000 0.602560 -0.617606
O6    O     O_R   0.583850 0.500000 0.397440 -0.617606
O7    O     O_R   0.583850 0.500000 0.602560 -0.617606
O8    O     O_R   0.416150 0.500000 0.397440 -0.617606
C3    C     C_R   0.388915 0.500000 0.500000 0.877794
C4    C     C_R   0.611085 0.500000 0.500000 0.877792
Zn1   Zn    Zn3+2 0.500000 0.500000 0.636920 0.990524
Zn2   Zn    Zn3+2 0.500000 0.500000 0.363080 0.990524
C5    C     C_R   0.880635 0.600287 0.526964 0.505430
C6    C     C_R   0.119363 0.399713 0.473037 0.505432
C7    C     C_R   0.880635 0.399713 0.473036 0.505430
C8    C     C_R   0.119363 0.600287 0.526963 0.505432
N1    N     N_R   0.852462 0.500000 0.500000 -0.360353
N2    N     N_R   0.147537 0.500000 0.500000 -0.360341
C9    C     C_R   0.940166 0.397562 0.472340 -0.016668
C10   C     C_R   0.059832 0.602438 0.527659 -0.016663
C11   C     C_R   0.940166 0.602438 0.527660 -0.016667
C12   C     C_R   0.059832 0.397562 0.472341 -0.016663
C13   C     C_R   0.970047 0.500000 0.500000 -0.020928
C14   C     C_R   0.029951 0.500000 0.500000 -0.020926
C15   C     C_R   0.970323 0.295935 0.445030 -0.154999
C16   C     C_R   0.029675 0.704065 0.554970 -0.154999
C17   C     C_R   0.970324 0.704065 0.554970 -0.154999
C18   C     C_R   0.029675 0.295935 0.445030 -0.154999
O9    O     O_2   0.850980 0.697447 0.552256 -0.547906
O10   O     O_2   0.149017 0.302553 0.447749 -0.547929
O11   O     O_2   0.850980 0.302554 0.447744 -0.547907
O12   O     O_2   0.149017 0.697447 0.552251 -0.547929
H1    H     H_    0.948210 0.216225 0.423606 0.195295
H2    H     H_    0.051788 0.783774 0.576395 0.195297
H3    H     H_    0.948210 0.783775 0.576394 0.195294
H4    H     H_    0.051788 0.216226 0.423606 0.195297
C19   C     C_R   0.237637 0.495358 0.387419 -0.097792
C20   C     C_R   0.762363 0.495480 0.387414 -0.097815
C21   C     C_R   0.237637 0.504642 0.612581 -0.097792
C22   C     C_R   0.762363 0.504521 0.612586 -0.097815
H5    H     H_    0.214583 0.491938 0.300388 0.142319
H6    H     H_    0.785417 0.492157 0.300378 0.142283
H7    H     H_    0.214583 0.508062 0.699612 0.142319
H8    H     H_    0.785417 0.507844 0.699622 0.142283
C23   C     C_R   0.296820 0.495450 0.387242 -0.207544
C24   C     C_R   0.703181 0.495572 0.387237 -0.207523
C25   C     C_R   0.296820 0.504550 0.612758 -0.207545
C26   C     C_R   0.703181 0.504428 0.612763 -0.207523
C27   C     C_R   0.326751 0.500000 0.500000 -0.046999
C28   C     C_R   0.673249 0.500000 0.500000 -0.047001
C29   C     C_R   0.208163 0.500000 0.500000 0.317154
C30   C     C_R   0.791837 0.500000 0.500000 0.317212
C31   C     C_1   0.500000 0.161038 0.500026 -0.176562
C32   C     C_1   0.500000 0.838962 0.499974 -0.176562
C33   C     C_1   0.500000 0.059152 0.500010 0.017691
C34   C     C_1   0.500000 0.940848 0.499990 0.017691
N3    N     N_1   0.500000 0.500000 0.180630 -0.080528
N4    N     N_1   0.500000 0.500000 0.819370 -0.080528
C35   C     C_1   0.500000 0.500000 0.069742 0.041052
C36   C     C_1   0.500000 0.500000 0.930258 0.041051
H9    H     H_    0.319037 0.491841 0.299187 0.167272
H10   H     H_    0.680964 0.492063 0.299175 0.167270
H11   H     H_    0.319037 0.508159 0.700813 0.167273
H12   H     H_    0.680964 0.507937 0.700824 0.167270

loop_
_geom_bond_atom_site_label_1
_geom_bond_atom_site_label_2
_geom_bond_distance
_ccdc_geom_bond_type
C26   C28   1.403876 A    
C5    O9    1.349970 S    
C32   C34   1.179143 T    
C6    O10   1.349949 S    
C8    C10   1.396439 A    
C8    O12   1.349949 S    
O7    Zn1   2.001074 S    
C8    N2    1.366802 A    
O3    Zn1   1.951358 S    
O5    Zn1   2.001076 S    
O6    C4    1.276133 A    
O3    C2    1.265020 A    
C15   H1    1.083190 S    
C25   C27   1.403884 A    
C5    C11   1.396439 A    
C9    C15   1.403638 A    
C6    C12   1.396438 A    
Zn1   N4    1.965335 S    
C10   C16   1.403636 A    
C22   C30   1.396923 A    
C15   C18   1.391984 A    
O5    C3    1.276133 A    
Zn2   N3    1.965336 S    
C26   H12   1.083048 S    
C21   C29   1.396934 A    
C33   C34   1.369148 S    
C19   C29   1.396935 A    
C25   H11   1.083035 S    
C22   C26   1.388011 A    
O1    C1    1.265000 A    
O4    C1    1.265020 A    
C11   C17   1.403639 A    
N1    C30   1.421859 S    
C21   C25   1.388008 A    
C6    N2    1.366803 A    
C4    C28   1.457937 S    
C12   C14   1.409074 A    
C24   C28   1.403877 A    
C20   C30   1.396922 A    
C31   C33   1.179143 T    
O4    Zn2   1.951359 S    
C35   C36   1.502513 S    
O2    Zn2   1.951472 S    
O7    C4    1.276135 A    
C12   C18   1.403637 A    
C24   H10   1.083047 S    
C3    C27   1.457932 S    
O8    C3    1.276133 A    
C10   C14   1.409074 A    
O8    Zn2   2.001076 S    
C20   H6    1.082974 S    
C11   C13   1.409072 A    
O1    Zn1   1.951473 S    
C16   H2    1.083173 S    
N4    C36   1.194475 T    
C9    C13   1.409071 A    
C22   H8    1.082974 S    
N3    C35   1.194475 T    
C17   H3    1.083192 S    
C20   C24   1.388011 A    
C21   H7    1.082965 S    
C16   C17   1.391984 A    
C19   H5    1.082966 S    
O6    Zn2   2.001074 S    
C18   H4    1.083174 S    
C7    N1    1.366787 A    
C13   C14   1.404928 A    
C5    N1    1.366786 A    
C19   C23   1.388008 A    
C1    C31   1.390105 S    
C23   C27   1.403883 A    
O2    C2    1.265000 A    
C23   H9    1.083036 S    
C2    C32   1.390105 S    
N2    C29   1.421887 S    
C7    O11   1.349969 S    
C7    C9    1.396439 A    
