data_mof_unit_48012.cif
_audit_creation_date              2012-12-11T17:09:31-0500
_audit_creation_method            fapswitch 2.2
_symmetry_space_group_name_H-M    P1
_symmetry_Int_Tables_number       1
_space_group_crystal_system       triclinic
_cell_length_a                    14.743592
_cell_length_b                    6.926498
_cell_length_c                    13.583556
_cell_angle_alpha                 89.999445
_cell_angle_beta                  99.914479
_cell_angle_gamma                 89.995527
_cell_volume                      1366.45632567

loop_
_atom_site_label
_atom_site_type_symbol
_atom_type_description
_atom_site_fract_x
_atom_site_fract_y
_atom_site_fract_z
_atom_type_partial_charge
O1    O     O_R   0.586930 0.505770 0.416350 -0.538631
O2    O     O_R   0.413070 0.005770 0.583650 -0.538227
O3    O     O_R   0.397900 0.173100 0.389630 -0.538806
O4    O     O_R   0.602100 0.673100 0.610370 -0.538950
C1    C     C_R   0.364646 0.345532 0.362382 0.763108
C2    C     C_R   0.635367 0.845525 0.637603 0.762989
O5    O     O_R   0.585280 0.175870 0.404330 -0.535351
O6    O     O_R   0.414720 0.675870 0.595670 -0.534671
O7    O     O_R   0.601790 0.008380 0.598460 -0.534585
O8    O     O_R   0.398210 0.508380 0.401540 -0.534446
C3    C     C_R   0.615803 0.344703 0.384037 0.696979
C4    C     C_R   0.384216 0.844729 0.615992 0.697189
O9    O     O_3   0.505200 0.340120 0.563670 -0.371979
O10   O     O_3   0.494800 0.840120 0.436330 -0.372564
V1    V     V_3+5 0.499040 0.064180 0.488190 1.462865
V2    V     V_3+5 0.500960 0.564180 0.511810 1.463339
C5    C     C_R   0.247903 0.003251 0.673622 0.040526
C6    C     C_R   0.752718 0.501954 0.327021 0.038802
C7    C     C_R   0.312244 0.852141 0.680146 -0.135641
C8    C     C_R   0.687764 0.351977 0.319878 -0.134184
C9    C     C_R   0.303387 0.701480 0.747720 -0.135086
C10   C     C_R   0.696219 0.201825 0.251849 -0.136782
H1    H     H_    0.350101 0.580090 0.754431 0.120789
H2    H     H_    0.649268 0.080797 0.244868 0.119167
C11   C     C_R   0.238356 0.712136 0.812475 -0.189806
C12   C     C_R   0.761219 0.212566 0.187031 -0.187584
H3    H     H_    0.236380 0.597738 0.866231 0.121449
H4    H     H_    0.762879 0.098659 0.132923 0.120336
C13   C     C_R   0.181340 0.875337 0.812993 -0.085300
C14   C     C_R   0.818641 0.375279 0.186970 -0.084492
C15   C     C_R   0.186589 0.017054 0.741078 0.006267
C16   C     C_R   0.813980 0.515910 0.259578 0.004867
C17   C     C_3   0.197647 0.230012 0.753039 -0.487855
C18   C     C_3   0.804430 0.729445 0.249302 -0.485023
C19   C     C_3   0.261926 0.217487 0.675562 0.321168
C20   C     C_3   0.740222 0.716628 0.326857 0.321399
H5    H     H_    0.234977 0.267029 0.828868 0.141234
H6    H     H_    0.767273 0.769357 0.173829 0.141500
H7    H     H_    0.131735 0.308479 0.731880 0.167749
H8    H     H_    0.870871 0.805695 0.271058 0.167674
H9    H     H_    0.334302 0.255168 0.707317 0.074070
H10   H     H_    0.668103 0.757209 0.295613 0.075008
C21   C     C_1   0.782617 0.877324 0.783943 -0.201186
C22   C     C_1   0.217380 0.377301 0.216058 -0.200431
C23   C     C_1   0.715265 0.860405 0.717911 -0.195438
C24   C     C_1   0.284747 0.360400 0.282072 -0.197135
O11   O     O_R   0.101720 0.231700 0.098560 -0.535663
O12   O     O_R   0.898280 0.731700 0.901440 -0.535592
O13   O     O_R   0.914700 0.558980 0.095690 -0.538644
O14   O     O_R   0.085300 0.058980 0.904310 -0.538565
C25   C     C_R   0.884780 0.389629 0.116557 0.702545
C26   C     C_R   0.115213 0.889624 0.883430 0.702833
O15   O     O_R   0.102080 0.561590 0.110390 -0.537795
O16   O     O_R   0.897920 0.061590 0.889610 -0.537856
O17   O     O_R   0.086950 0.728940 0.916330 -0.542384
O18   O     O_R   0.913050 0.228940 0.083670 -0.542241
C27   C     C_R   0.136423 0.391957 0.137042 0.737438
C28   C     C_R   0.863571 0.891967 0.862963 0.737402
O19   O     O_3   0.994770 0.394510 0.936380 -0.368705
O20   O     O_3   0.005230 0.894510 0.063620 -0.368616
V3    V     V_3+5 0.000970 0.670520 0.011800 1.407201
V4    V     V_3+5 0.999030 0.170520 0.988200 1.407274
O21   O     O_3   0.233632 0.307982 0.580629 -0.538760
C29   C     C_3   0.137611 0.301089 0.543744 0.127573
H11   H     H_    0.102756 0.421571 0.576351 0.124407
H12   H     H_    0.105803 0.161172 0.559126 0.115819
C30   C     C_3   0.120621 0.328757 0.431180 -0.738050
H13   H     H_    0.152175 0.207848 0.395385 0.222766
H14   H     H_    0.045421 0.330690 0.402224 0.168246
H15   H     H_    0.150771 0.467868 0.412091 0.226627
O22   O     O_3   0.769512 0.804263 0.422350 -0.539100
C31   C     C_3   0.865321 0.790638 0.459643 0.127982
H16   H     H_    0.902189 0.909295 0.428093 0.123800
H17   H     H_    0.895173 0.649081 0.443479 0.115483
C32   C     C_3   0.882222 0.815492 0.572381 -0.737588
H18   H     H_    0.848198 0.696786 0.607162 0.223323
H19   H     H_    0.957324 0.811052 0.601774 0.168325
H20   H     H_    0.854558 0.956697 0.592203 0.226197

loop_
_geom_bond_atom_site_label_1
_geom_bond_atom_site_label_2
_ccdc_geom_bond_type
C14   C25   S    
C2    C23   S    
C20   H10   S    
O1    C3    A    
O2    C4    A    
O11   V4    S    
O5    C3    A    
C17   H7    S    
C18   H8    S    
C10   H2    S    
C7    C9    A    
O20   V4    S    
C25   O18   A    
C21   C28   S    
C5    C7    A    
O15   V3    S    
O13   C25   A    
O14   C26   A    
C15   C17   S    
O10   V2    S    
C6    C8    A    
C20   O22   S    
O5    V1    S    
O6    V2    S    
C2    O7    A    
C31   C32   S    
C22   C24   T    
C11   C13   A    
C3    C8    S    
O19   V3    S    
O13   V3    S    
C30   H13   S    
C29   C30   S    
C31   H17   S    
O15   C27   A    
O16   V4    S    
C17   H5    S    
O20   V3    S    
C30   H14   S    
C16   C18   S    
O4    V2    S    
C32   H18   S    
O11   C27   A    
C32   H19   S    
C22   C27   S    
O6    C4    A    
O1    V2    S    
O2    V1    S    
C21   C23   T    
O4    C2    A    
C8    C10   A    
C12   C14   A    
O9    V1    S    
C5    C15   A    
O18   V4    S    
C6    C16   A    
O3    V1    S    
O16   C28   A    
C9    C11   A    
O19   V4    S    
C18   H6    S    
C31   H16   S    
O3    C1    A    
C26   O17   A    
O12   C28   A    
C11   H3    S    
C1    C24   S    
C12   H4    S    
C30   H15   S    
C29   H11   S    
C9    H1    S    
O7    V1    S    
C1    O8    A    
C13   C15   A    
O8    V2    S    
C14   C16   A    
O12   V3    S    
O14   V4    S    
O17   V3    S    
C4    C7    S    
C17   C19   S    
C18   C20   S    
C19   H9    S    
C32   H20   S    
O21   C29   S    
O22   C31   S    
C10   C12   A    
O9    V2    S    
O10   V1    S    
C19   O21   S    
C5    C19   S    
C6    C20   S    
C29   H12   S    
C13   C26   S    
