data_mof_unit_34485.cif
_audit_creation_date              2012-12-11T15:32:31-0500
_audit_creation_method            fapswitch 2.2
_symmetry_space_group_name_H-M    P1
_symmetry_Int_Tables_number       1
_space_group_crystal_system       triclinic
_cell_length_a                    7.01089
_cell_length_b                    20.415675
_cell_length_c                    24.351037
_cell_angle_alpha                 89.722215
_cell_angle_beta                  90.155976
_cell_angle_gamma                 89.945059
_cell_volume                      3485.35836177

loop_
_atom_site_label
_atom_site_type_symbol
_atom_type_description
_atom_site_fract_x
_atom_site_fract_y
_atom_site_fract_z
_atom_type_partial_charge
O1    O     O_R   0.507320 0.423560 0.460500 -0.547187
O2    O     O_R   0.170760 0.556250 0.437010 -0.533365
O3    O     O_R   0.004030 0.576440 0.539500 -0.517128
C1    C     C_R   0.339490 0.576143 0.421107 0.747769
O4    O     O_R   0.177370 0.422820 0.454110 -0.533127
O5    O     O_R   0.010680 0.442050 0.556720 -0.523081
C2    C     C_R   0.345557 0.398689 0.443478 0.798841
O6    O     O_R   0.500680 0.557950 0.443280 -0.527427
O7    O     O_3   0.340380 0.506470 0.533650 -0.359010
V1    V     V_3+5 0.064130 0.498800 0.493760 1.528167
O8    O     O_R   0.681160 0.443750 0.562990 -0.543480
C3    C     C_R   0.849994 0.425583 0.580087 0.723057
O9    O     O_R   0.674560 0.577180 0.545890 -0.531760
C4    C     C_R   0.842735 0.602291 0.555417 0.778357
V2    V     V_3+5 0.564560 0.501200 0.506240 1.504774
O10   O     O_3   0.838180 0.493530 0.466350 -0.378308
C5    C     C_R   0.971789 0.839134 0.909456 -0.125287
C6    C     C_R   0.842481 0.666259 0.584654 -0.196659
C7    C     C_R   0.009087 0.722130 0.902805 -0.108362
C8    C     C_R   0.006937 0.778746 0.934116 -0.257455
C9    C     C_R   0.936682 0.842806 0.852368 0.430278
C10   C     C_R   0.918165 0.784132 0.820071 -0.042100
C11   C     C_R   0.968499 0.724037 0.846145 -0.084190
C12   C     C_R   0.865267 0.782875 0.762586 -0.092132
C13   C     C_R   0.895727 0.724502 0.731134 -0.104780
C14   C     C_R   0.925625 0.665276 0.760325 0.365381
C15   C     C_R   0.977042 0.665875 0.815746 0.319600
C16   C     C_R   0.774106 0.836037 0.735584 0.201442
C17   C     C_R   0.750659 0.836632 0.678738 0.179507
C18   C     C_R   0.768101 0.778477 0.648639 -0.079720
C19   C     C_R   0.865721 0.724745 0.672633 0.020511
C20   C     C_R   0.683165 0.771647 0.596196 0.205177
C21   C     C_R   0.725175 0.716697 0.563954 0.105459
C22   C     C_R   0.927611 0.673504 0.636952 0.178293
H1    H     H_    0.041963 0.676387 0.923486 0.168579
H2    H     H_    0.037113 0.775595 0.977721 0.135228
C23   C     C_3   0.795269 0.302749 0.773049 0.075926
C24   C     C_3   0.986472 0.278970 0.798122 0.304223
C25   C     C_1   0.964540 0.120663 0.874659 -0.215950
C26   C     C_1   0.859330 0.384320 0.628907 -0.153689
C27   C     C_3   0.740551 0.229853 0.765554 0.399996
C28   C     C_3   0.929805 0.206563 0.790660 -0.124023
C29   C     C_3   0.833333 0.229324 0.707905 0.154509
C30   C     C_3   0.891340 0.301640 0.715596 -0.109360
C31   C     C_3   0.025202 0.207033 0.733445 0.118786
C32   C     C_3   0.084273 0.279713 0.741098 0.063574
C33   C     C_1   0.952112 0.158319 0.836037 0.079240
C34   C     C_1   0.870469 0.348738 0.669059 0.142049
C35   C     C_3   0.519531 0.723616 0.211079 0.417922
C36   C     C_3   0.326283 0.696693 0.231603 0.066425
H3    H     H_    0.100040 0.781456 0.213532 0.173049
C37   C     C_1   0.351189 0.622090 0.375404 -0.092924
C38   C     C_1   0.473675 0.878934 0.125364 -0.173585
C39   C     C_3   0.589364 0.734211 0.270645 0.066517
C40   C     C_3   0.394733 0.708096 0.291456 -0.018852
C41   C     C_3   0.507013 0.804901 0.269572 -0.297648
C42   C     C_3   0.436456 0.793598 0.209966 -0.013059
C43   C     C_3   0.313932 0.777854 0.289694 0.491928
C44   C     C_3   0.241525 0.767187 0.230349 -0.268667
C45   C     C_1   0.368508 0.660909 0.337663 0.165718
C46   C     C_1   0.458799 0.840807 0.163699 0.067119
H4    H     H_    0.580171 0.849574 0.284636 0.162524
C47   C     C_R   0.467198 0.162000 0.089216 -0.222962
C48   C     C_R   0.347415 0.336136 0.412321 -0.270229
C49   C     C_R   0.389541 0.277368 0.092205 -0.197432
C50   C     C_R   0.417707 0.220400 0.062136 0.386092
C51   C     C_R   0.502660 0.162891 0.146364 0.130939
C52   C     C_R   0.443752 0.217821 0.178446 0.002746
C53   C     C_R   0.402950 0.277022 0.149818 -0.058766
C54   C     C_R   0.418075 0.216610 0.237197 -0.051055
C55   C     C_R   0.405805 0.277253 0.266420 -0.022273
C56   C     C_R   0.384852 0.335665 0.235982 -0.192137
C57   C     C_R   0.377835 0.335654 0.178847 0.396966
C58   C     C_R   0.381300 0.157862 0.267058 0.398238
C59   C     C_R   0.341529 0.159534 0.323377 0.174682
C60   C     C_R   0.323275 0.219561 0.351156 -0.150246
C61   C     C_R   0.385594 0.277611 0.324966 -0.087065
C62   C     C_R   0.233450 0.222704 0.403049 0.395317
C63   C     C_R   0.252838 0.281046 0.434489 0.231427
C64   C     C_R   0.417543 0.334144 0.358180 0.301475
H5    H     H_    0.356774 0.322011 0.069874 0.177297
H6    H     H_    0.352282 0.381542 0.255737 0.195862
O11   O     O_R   0.323550 0.942140 0.056770 -0.542360
O12   O     O_R   0.647080 0.077200 0.045890 -0.534825
O13   O     O_R   0.813610 0.057920 0.943260 -0.539166
C65   C     C_R   0.478386 0.100837 0.056925 0.772726
O14   O     O_R   0.653470 0.943760 0.063000 -0.528541
O15   O     O_R   0.820050 0.923540 0.960490 -0.527090
C66   C     C_R   0.484756 0.924013 0.079017 0.721682
O16   O     O_R   0.317110 0.076520 0.039540 -0.530577
O17   O     O_3   0.483830 0.993580 0.966380 -0.368868
V3    V     V_3+5 0.760140 0.001190 0.006240 1.477476
O18   O     O_R   0.149510 0.922740 0.954070 -0.546010
C67   C     C_R   0.980853 0.898878 0.943453 0.752799
O19   O     O_R   0.143120 0.056170 0.936970 -0.537667
C68   C     C_R   0.974444 0.075997 0.921064 0.742661
V4    V     V_3+5 0.259690 0.998700 0.993700 1.452920
O20   O     O_3   0.986130 0.006420 0.033620 -0.366052
O21   O     O_3   0.034510 0.607919 0.840276 -0.537562
C69   C     C_3   0.233656 0.601911 0.832754 0.112647
H7    H     H_    0.311277 0.643080 0.852727 0.106490
H8    H     H_    0.270829 0.600693 0.788287 0.150532
C70   C     C_3   0.301430 0.538429 0.858778 -0.679379
H9    H     H_    0.258169 0.536540 0.902599 0.221732
H10   H     H_    0.237707 0.496629 0.836446 0.243967
H11   H     H_    0.459095 0.534828 0.856362 0.193938
I1    I     I_    0.433272 0.827268 0.574402 -0.225360
O22   O     O_3   0.048112 0.296895 0.851164 -0.549889
C71   C     C_3   0.166568 0.352036 0.849547 0.154720
H12   H     H_    0.114098 0.390258 0.820454 0.171442
H13   H     H_    0.310883 0.336320 0.837498 0.169408
C72   C     C_3   0.176992 0.380798 0.907062 -0.715834
H14   H     H_    0.196558 0.341233 0.938053 0.249630
H15   H     H_    0.299729 0.414779 0.910250 0.197222
H16   H     H_    0.043064 0.407591 0.916352 0.238018
I2    I     I_    0.677894 0.387784 0.812026 -0.491022
I3    I     I_    0.331984 0.328611 0.711176 -0.410530
I4    I     I_    0.199188 0.131724 0.699197 -0.273580
I5    I     I_    0.715325 0.187398 0.634926 -0.324417
O23   O     O_3   0.558801 0.201284 0.772378 -0.505753
C73   C     C_3   0.507267 0.197410 0.828294 0.143558
H17   H     H_    0.373019 0.225021 0.834020 0.173310
H18   H     H_    0.613838 0.218543 0.857086 0.102211
C74   C     C_3   0.468982 0.126228 0.843732 -0.629134
H19   H     H_    0.594906 0.095286 0.834654 0.231289
H20   H     H_    0.435705 0.122458 0.888136 0.179734
H21   H     H_    0.345957 0.107284 0.819958 0.232406
I6    I     I_    0.187422 0.606607 0.211372 -0.495352
O24   O     O_3   0.627203 0.704944 0.164803 -0.543868
C75   C     C_3   0.681091 0.638748 0.168012 0.124803
H22   H     H_    0.555556 0.606197 0.166352 0.150749
H23   H     H_    0.762957 0.628507 0.206130 0.180638
C76   C     C_3   0.803546 0.622926 0.118303 -0.660258
H24   H     H_    0.926199 0.657186 0.115867 0.251995
H25   H     H_    0.858039 0.571965 0.121488 0.195226
H26   H     H_    0.717503 0.627852 0.080132 0.211519
I7    I     I_    0.195917 0.625089 0.650537 -0.378909
O25   O     O_3   0.207852 0.803892 0.333668 -0.517673
C77   C     C_3   0.148119 0.868058 0.320344 0.117090
H27   H     H_    0.059178 0.868612 0.282396 0.114027
H28   H     H_    0.273075 0.900988 0.314767 0.134589
C78   C     C_3   0.027564 0.894741 0.367013 -0.562340
H29   H     H_    0.112521 0.895806 0.405566 0.243815
H30   H     H_    0.979911 0.945310 0.356967 0.184518
H31   H     H_    0.900043 0.863327 0.373208 0.240818
I8    I     I_    0.843549 0.704044 0.311499 -0.361569
O26   O     O_3   0.331610 0.393042 0.151484 -0.549953
C79   C     C_3   0.500833 0.428053 0.140335 0.095512
H32   H     H_    0.617127 0.395717 0.124784 0.116087
H33   H     H_    0.550936 0.453337 0.178105 0.143631
C80   C     C_3   0.459472 0.479041 0.096135 -0.688043
H34   H     H_    0.351687 0.514633 0.110955 0.249601
H35   H     H_    0.592246 0.505601 0.085496 0.177143
H36   H     H_    0.404322 0.454761 0.058585 0.217139
O27   O     O_3   0.517547 0.387785 0.338615 -0.564852
C81   C     C_3   0.714582 0.373342 0.340815 0.090177
H37   H     H_    0.750540 0.331464 0.313563 0.135553
H38   H     H_    0.760247 0.361540 0.383634 0.136607
C82   C     C_3   0.826766 0.432787 0.321373 -0.634130
H39   H     H_    0.795053 0.475528 0.347894 0.230604
H40   H     H_    0.982065 0.422136 0.323452 0.176607
H41   H     H_    0.787615 0.444938 0.278273 0.215889
O28   O     O_3   0.171943 0.285851 0.485987 -0.563587
C83   C     C_3   0.315242 0.275730 0.526191 0.022194
H42   H     H_    0.394276 0.321997 0.533681 0.146422
H43   H     H_    0.419691 0.236886 0.514571 0.128115
C84   C     C_3   0.221683 0.254833 0.579557 -0.589326
H44   H     H_    0.143542 0.208103 0.574541 0.221869
H45   H     H_    0.332355 0.247454 0.611332 0.251804
H46   H     H_    0.121015 0.293129 0.593201 0.228824
I9    I     I_    0.350908 0.067795 0.366298 -0.383102
O29   O     O_3   0.409950 0.223503 0.005410 -0.559625
C85   C     C_3   0.597837 0.228354 0.984146 0.076473
H47   H     H_    0.616200 0.190056 0.952492 0.133037
H48   H     H_    0.714516 0.220236 0.014852 0.117779
C86   C     C_3   0.626779 0.295233 0.957593 -0.707270
H49   H     H_    0.608480 0.334459 0.988567 0.215192
H50   H     H_    0.772778 0.298448 0.940220 0.235348
H51   H     H_    0.522061 0.302541 0.923944 0.234046
I10   I     I_    0.720628 0.097709 0.174816 -0.435287
I11   I     I_    0.632109 0.713992 0.480125 -0.266361
O30   O     O_3   0.380122 0.097417 0.241996 -0.529278
C87   C     C_3   0.194662 0.082286 0.223821 0.137484
H52   H     H_    0.092240 0.081162 0.258699 0.161466
H53   H     H_    0.145972 0.118561 0.192538 0.135675
C88   C     C_3   0.198727 0.014747 0.197544 -0.623686
H54   H     H_    0.253589 0.977939 0.227392 0.211718
H55   H     H_    0.053395 0.000005 0.184508 0.194680
H56   H     H_    0.293000 0.015528 0.160992 0.212190
O31   O     O_3   0.091097 0.175944 0.412729 -0.540780
C89   C     C_3   0.070152 0.156926 0.468137 0.148666
H57   H     H_    0.979842 0.192958 0.489973 0.182161
H58   H     H_    0.210859 0.149760 0.488524 0.141835
C90   C     C_3   0.961547 0.092421 0.471142 -0.614017
H59   H     H_    0.044993 0.052352 0.452203 0.244931
H60   H     H_    0.934478 0.079403 0.514775 0.210620
H61   H     H_    0.822479 0.097108 0.449480 0.237600
I12   I     I_    0.765001 0.930759 0.639523 -0.214868
O32   O     O_3   0.928557 0.904537 0.829238 -0.554113
C91   C     C_3   0.105612 0.919230 0.805614 0.052623
H62   H     H_    0.146723 0.881558 0.774914 0.165899
H63   H     H_    0.216189 0.923249 0.838303 0.151346
C92   C     C_3   0.091918 0.984519 0.775941 -0.551785
H64   H     H_    0.980255 0.982575 0.743664 0.263771
H65   H     H_    0.055559 0.023560 0.805418 0.199417
H66   H     H_    0.230841 0.996241 0.756602 0.227345
O33   O     O_3   0.894670 0.605217 0.735857 -0.528940
C93   C     C_3   0.701012 0.587987 0.742198 0.104682
H67   H     H_    0.603316 0.628675 0.729862 0.113484
H68   H     H_    0.672792 0.574159 0.785632 0.149931
C94   C     C_3   0.657318 0.529457 0.705899 -0.582440
H69   H     H_    0.757526 0.488787 0.715294 0.246372
H70   H     H_    0.508987 0.512523 0.713172 0.210585
H71   H     H_    0.672702 0.543402 0.662015 0.200481
I13   I     I_    0.566248 0.895112 0.774862 -0.404373

loop_
_geom_bond_atom_site_label_1
_geom_bond_atom_site_label_2
_ccdc_geom_bond_type
C31   I4    S    
C13   C19   A    
C90   H60   S    
C92   H64   S    
O27   C81   S    
O18   C67   A    
C48   C64   A    
C27   C28   S    
C4    C6    S    
O2    C1    A    
O19   C68   A    
C62   O31   S    
C79   C80   S    
C55   C61   A    
C1    O6    A    
C72   H15   S    
V4    O20   S    
V3    O20   S    
C84   H45   S    
C23   I2    S    
C31   C32   S    
O22   C71   S    
C25   C68   S    
C92   H65   S    
C15   O21   S    
C14   C15   A    
O31   C89   S    
C57   O26   S    
C36   C44   S    
C50   O29   S    
C16   C17   A    
C60   C62   A    
C24   C28   S    
C74   H20   S    
C51   I10   S    
C71   H13   S    
O5    C3    A    
C18   C19   A    
O13   C68   A    
C42   C44   S    
C90   H61   S    
C35   C39   S    
C5    C8    A    
C35   C42   S    
C41   C42   S    
C80   H36   S    
C35   C36   S    
O30   C87   S    
C73   C74   S    
C37   C45   T    
O26   C79   S    
C52   C53   A    
O8    V2    S    
C59   I9    S    
C86   H51   S    
C7    C8    A    
C91   H62   S    
C20   I1    S    
C54   C58   A    
C76   H26   S    
C80   H34   S    
C82   H40   S    
C53   C57   A    
C54   C55   A    
O1    V2    S    
C11   C15   A    
C18   C20   A    
C17   C18   A    
O7    V1    S    
O16   V4    S    
C93   C94   S    
C39   I8    S    
C40   C45   S    
C52   C54   A    
C43   O25   S    
C16   I13   S    
C86   H50   S    
C90   H59   S    
C47   C50   A    
O32   C91   S    
O9    C4    A    
C23   C27   S    
C27   C29   S    
C78   H31   S    
C83   H42   S    
C38   C46   T    
C9    O32   S    
C51   C52   A    
C10   C11   A    
C72   H14   S    
O17   V4    S    
O13   V3    S    
C30   C32   S    
C84   H46   S    
O15   C67   A    
C85   H48   S    
O11   C66   A    
C92   H66   S    
C47   C51   A    
C19   C22   A    
C24   C32   S    
C58   C59   A    
C89   H57   S    
O15   V3    S    
C12   C13   A    
C65   O16   A    
C87   C88   S    
O17   V3    S    
O4    C2    A    
C62   C63   A    
C93   H67   S    
C43   C44   S    
C85   H47   S    
C35   O24   S    
C69   C70   S    
C5    C9    A    
O33   C93   S    
C32   I3    S    
C28   C31   S    
C3    C26   S    
C75   H23   S    
C59   C60   A    
C89   H58   S    
C94   H69   S    
C23   C24   S    
C29   C31   S    
C49   H5    S    
C82   H39   S    
C81   H38   S    
O8    C3    A    
C94   H71   S    
C69   H8    S    
C82   H41   S    
C87   H52   S    
C70   H10   S    
C60   C61   A    
C6    C22   A    
C73   H17   S    
O3    C4    A    
C74   H21   S    
C79   H33   S    
C91   H63   S    
C86   H49   S    
C94   H70   S    
C1    C37   S    
C49   C50   A    
O6    V2    S    
O9    V2    S    
C29   C30   S    
C38   C66   S    
C76   H24   S    
C48   C63   A    
C41   H4    S    
C71   C72   S    
C75   C76   S    
H3    C44   S    
C88   H55   S    
O29   C85   S    
O2    V1    S    
O18   V4    S    
C84   H44   S    
C78   H30   S    
O14   V3    S    
O23   C73   S    
C7    C11   A    
C64   O27   S    
C25   C33   T    
O24   C75   S    
C85   C86   S    
C26   C34   T    
C39   C40   S    
C81   H37   S    
O1    C2    A    
C83   C84   S    
C12   C16   A    
C63   O28   S    
C56   C57   A    
C14   O33   S    
O5    V1    S    
C77   H27   S    
O19   V4    S    
C39   C41   S    
C42   C46   S    
C58   O30   S    
C81   C82   S    
C22   I7    S    
C36   C40   S    
O21   C69   S    
C20   C21   A    
C88   H56   S    
C87   H53   S    
C75   H22   S    
C13   C14   A    
C89   C90   S    
C55   C56   A    
C47   C65   S    
O3    V1    S    
V1    O10   S    
C71   H12   S    
C21   I11   S    
C77   H28   S    
C61   C64   A    
C23   C30   S    
C91   C92   S    
C49   C53   A    
C83   H43   S    
C69   H7    S    
C77   C78   S    
C41   C43   S    
C70   H11   S    
C10   C12   A    
C79   H32   S    
C80   H35   S    
C27   O23   S    
C24   O22   S    
C6    C21   A    
C2    C48   S    
C73   H18   S    
O28   C83   S    
O25   C77   S    
C8    H2    S    
C30   C34   S    
O4    V1    S    
C28   C33   S    
C36   I6    S    
C93   H68   S    
C17   I12   S    
O11   V4    S    
C40   C43   S    
C70   H9    S    
C76   H25   S    
O14   C66   A    
C78   H29   S    
O12   C65   A    
C7    H1    S    
C5    C67   S    
O12   V3    S    
C88   H54   S    
C9    C10   A    
C72   H16   S    
C56   H6    S    
V2    O10   S    
O7    V2    S    
C29   I5    S    
C74   H19   S    
