data_mof_unit_38755.cif
_audit_creation_date              2012-12-11T15:38:11-0500
_audit_creation_method            fapswitch 2.2
_symmetry_space_group_name_H-M    P1
_symmetry_Int_Tables_number       1
_space_group_crystal_system       monoclinic
_cell_length_a                    20.546172
_cell_length_b                    7.273832
_cell_length_c                    18.86506
_cell_angle_alpha                 90.0
_cell_angle_beta                  107.290378
_cell_angle_gamma                 90.0
_cell_volume                      2691.96658909

loop_
_atom_site_label
_atom_site_type_symbol
_atom_type_description
_atom_site_fract_x
_atom_site_fract_y
_atom_site_fract_z
_atom_type_partial_charge
O1    O     O_R   0.422200 0.494350 0.423850 -0.532655
O2    O     O_R   0.577800 0.994350 0.576150 -0.532655
O3    O     O_R   0.555980 0.819730 0.435060 -0.529643
O4    O     O_R   0.444020 0.319730 0.564940 -0.529643
C1    C     C_R   0.575391 0.655449 0.420395 0.724160
C2    C     C_R   0.424609 0.155449 0.579605 0.724160
O5    O     O_R   0.421370 0.823790 0.415230 -0.531816
O6    O     O_R   0.578630 0.323790 0.584770 -0.531816
O7    O     O_R   0.442220 0.998380 0.556180 -0.538615
O8    O     O_R   0.557780 0.498380 0.443820 -0.538615
C3    C     C_R   0.396361 0.655339 0.394221 0.715963
C4    C     C_R   0.603638 0.155339 0.605779 0.715963
O9    O     O_3   0.507000 0.662200 0.546270 -0.375188
O10   O     O_3   0.493000 0.162200 0.453730 -0.375188
V1    V     V_3+5 0.498700 0.935390 0.491420 1.483442
V2    V     V_3+5 0.501300 0.435390 0.508580 1.483442
C5    C     C_1   0.666319 0.145282 0.668143 -0.153426
C6    C     C_1   0.333681 0.645282 0.331857 -0.153426
C7    C     C_1   0.718904 0.134432 0.719797 0.035833
C8    C     C_1   0.281096 0.634432 0.280203 0.035833
C9    C     C_1   0.780941 0.120688 0.780435 0.036389
C10   C     C_1   0.219059 0.620688 0.219565 0.036389
C11   C     C_1   0.833563 0.109845 0.832038 -0.154228
C12   C     C_1   0.166437 0.609845 0.167962 -0.154228
C13   C     C_3   0.287620 0.187517 0.850617 0.496541
C14   C     C_3   0.712380 0.687517 0.149383 0.496541
C15   C     C_3   0.214035 0.958267 0.759995 -0.430221
C16   C     C_3   0.785965 0.458267 0.240005 -0.430221
C17   C     C_3   0.261128 0.961617 0.709437 -0.412419
C18   C     C_3   0.738872 0.461617 0.290563 -0.412419
H1    H     H_    0.368091 0.047416 0.814296 0.084941
H2    H     H_    0.631909 0.547416 0.185704 0.084941
H3    H     H_    0.162368 0.910817 0.727924 0.239011
H4    H     H_    0.837632 0.410817 0.272075 0.239011
H5    H     H_    0.232727 0.852142 0.803441 0.230880
H6    H     H_    0.767273 0.352142 0.196559 0.230880
H7    H     H_    0.298707 0.847500 0.725627 0.201854
H8    H     H_    0.701293 0.347500 0.274372 0.201854
H9    H     H_    0.231214 0.934844 0.650869 0.236616
H10   H     H_    0.768786 0.434844 0.349131 0.236616
C19   C     C_1   0.380485 0.147756 0.626893 -0.107866
C20   C     C_1   0.619515 0.647756 0.373107 -0.107866
C21   C     C_3   0.211350 0.149173 0.796833 -0.020956
C22   C     C_3   0.788650 0.649173 0.203167 -0.020956
C23   C     C_3   0.338809 0.176978 0.800032 0.273965
C24   C     C_3   0.661191 0.676978 0.199968 0.273965
C25   C     C_3   0.298470 0.148339 0.715873 -0.015136
C26   C     C_3   0.701530 0.648339 0.284127 -0.015136
C27   C     C_3   0.243963 0.300991 0.689537 -0.405414
C28   C     C_3   0.756036 0.800991 0.310463 -0.405414
C29   C     C_3   0.187468 0.296904 0.730949 0.639969
C30   C     C_3   0.812532 0.796904 0.269051 0.639968
C31   C     C_1   0.343763 0.145525 0.666865 0.093568
C32   C     C_1   0.656237 0.645525 0.333135 0.093568
C33   C     C_1   0.161381 0.129663 0.840106 0.096467
C34   C     C_1   0.838619 0.629663 0.159894 0.096467
C35   C     C_1   0.121726 0.114175 0.876434 -0.124868
C36   C     C_1   0.878274 0.614175 0.123566 -0.124868
H11   H     H_    0.270620 0.434944 0.696458 0.192247
H12   H     H_    0.729380 0.934944 0.303542 0.192247
H13   H     H_    0.220527 0.288784 0.628456 0.207488
H14   H     H_    0.779473 0.788784 0.371544 0.207488
O11   O     O_R   0.942270 0.764870 0.056240 -0.524737
O12   O     O_R   0.057730 0.264870 0.943760 -0.524736
O13   O     O_R   0.078640 0.431230 0.084780 -0.529882
O14   O     O_R   0.921360 0.931230 0.915220 -0.529882
C37   C     C_R   0.103687 0.599808 0.105696 0.715986
C38   C     C_R   0.896313 0.099808 0.894304 0.715987
O15   O     O_R   0.944030 0.435400 0.064960 -0.543028
O16   O     O_R   0.055970 0.935400 0.935040 -0.543028
O17   O     O_R   0.922190 0.260960 0.923840 -0.532325
O18   O     O_R   0.077810 0.760960 0.076160 -0.532325
C39   C     C_R   0.924649 0.603797 0.078952 0.716406
C40   C     C_R   0.075351 0.103797 0.921048 0.716406
O19   O     O_3   0.993030 0.592980 0.953770 -0.376129
O20   O     O_3   0.006970 0.092980 0.046230 -0.376129
V3    V     V_3+5 0.001290 0.319740 0.008580 1.466112
V4    V     V_3+5 0.998710 0.819740 0.991420 1.466112
S1    S     S_3+6 0.292121 0.403588 0.902578 0.047412
O21   O     O_2   0.350128 0.396629 0.973309 -0.279100
O22   O     O_2   0.302173 0.566777 0.858344 -0.312395
O23   O     O_3   0.220805 0.436392 0.927226 -0.525541
H15   H     H_    0.226317 0.559247 0.950939 0.351689
S2    S     S_3+6 0.707879 0.903588 0.097421 0.047412
O24   O     O_2   0.649872 0.896629 0.026691 -0.279100
O25   O     O_2   0.697827 0.066777 0.141656 -0.312395
O26   O     O_3   0.779195 0.936392 0.072774 -0.525541
H16   H     H_    0.773683 0.059247 0.049061 0.351689
S3    S     S_3+6 0.408225 0.343954 0.815087 0.054991
O27   O     O_2   0.439136 0.387681 0.895884 -0.271198
O28   O     O_2   0.463355 0.261342 0.787665 -0.338974
O29   O     O_3   0.382366 0.540294 0.768128 -0.502019
H17   H     H_    0.422949 0.621308 0.781491 0.368372
S4    S     S_3+6 0.591775 0.843954 0.184913 0.054991
O30   O     O_2   0.560863 0.887681 0.104116 -0.271198
O31   O     O_2   0.536645 0.761342 0.212335 -0.338974
O32   O     O_3   0.617633 0.040294 0.231872 -0.502019
H18   H     H_    0.577051 0.121307 0.218509 0.368372
N1    N     N_2   0.303528 0.039919 0.906937 -0.573527
H19   H     H_    0.271443 0.033869 0.939809 0.273565
C41   C     C_3   0.373128 0.989028 0.947272 -0.284705
H20   H     H_    0.408402 0.106905 0.954678 0.255272
H21   H     H_    0.390647 0.876604 0.917607 0.223731
H22   H     H_    0.375352 0.935999 0.003192 0.211693
N2    N     N_2   0.696472 0.539918 0.093063 -0.573527
H23   H     H_    0.728557 0.533869 0.060191 0.273565
C42   C     C_3   0.626871 0.489028 0.052728 -0.284705
H24   H     H_    0.591598 0.606905 0.045322 0.255272
H25   H     H_    0.609353 0.376604 0.082393 0.223731
H26   H     H_    0.624648 0.435999 0.996808 0.211693
N3    N     N_2   0.181099 0.482911 0.759017 -0.486671
H27   H     H_    0.195463 0.586441 0.729587 0.255222
C43   C     C_3   0.120907 0.540792 0.778685 -0.309402
H28   H     H_    0.134657 0.656875 0.818533 0.160614
H29   H     H_    0.080937 0.590567 0.728814 0.221401
H30   H     H_    0.099297 0.430945 0.804820 0.210928
N4    N     N_2   0.818901 0.982911 0.240983 -0.486671
H31   H     H_    0.804537 0.086441 0.270413 0.255222
C44   C     C_3   0.879093 0.040792 0.221315 -0.309401
H32   H     H_    0.865343 0.156875 0.181467 0.160614
H33   H     H_    0.919063 0.090567 0.271186 0.221401
H34   H     H_    0.900702 0.930945 0.195180 0.210928
S5    S     S_3+6 0.106234 0.237846 0.661799 -0.020709
O33   O     O_2   0.053920 0.183045 0.699115 -0.347665
O34   O     O_2   0.080649 0.403153 0.613730 -0.314033
O35   O     O_3   0.115066 0.065440 0.605978 -0.516168
H35   H     H_    0.068626 0.043776 0.572114 0.397928
S6    S     S_3+6 0.893766 0.737846 0.338201 -0.020709
O36   O     O_2   0.946080 0.683045 0.300885 -0.347664
O37   O     O_2   0.919350 0.903153 0.386269 -0.314033
O38   O     O_3   0.884934 0.565440 0.394022 -0.516168
H36   H     H_    0.931374 0.543776 0.427886 0.397928

loop_
_geom_bond_atom_site_label_1
_geom_bond_atom_site_label_2
_ccdc_geom_bond_type
C11   C38   S    
O14   C38   A    
C1    C20   S    
C3    C6    S    
O35   H35   S    
O16   V4    S    
C29   S5    S    
O12   V3    S    
O15   V3    S    
N3    H27   S    
O1    C3    A    
S2    O26   S    
O26   H16   S    
O2    C4    A    
S6    O36   D    
C13   C21   S    
C2    O7    A    
O32   H18   S    
C30   S6    S    
C14   C22   S    
S5    O33   D    
C25   C27   S    
C15   H3    S    
O5    C3    A    
N2    C42   S    
C41   H20   S    
C17   C25   S    
C18   C26   S    
C7    C9    S    
S2    O25   D    
C26   C28   S    
N4    C44   S    
S5    O34   D    
C15   C17   S    
C18   H8    S    
C37   O18   A    
O18   V4    S    
C12   C37   S    
C13   N1    S    
O13   C37   A    
C27   C29   S    
C2    C19   S    
C4    C5    S    
O16   C40   A    
C28   C30   S    
C42   H24   S    
O15   C39   A    
S3    O28   D    
C23   S3    S    
C25   C31   S    
C43   H30   S    
C30   N4    S    
C22   C30   S    
O5    V1    S    
C16   H4    S    
C41   H21   S    
C42   H25   S    
C14   N2    S    
C23   C25   S    
O14   V4    S    
C24   C26   S    
O13   V3    S    
C27   H13   S    
S2    O24   D    
O4    C2    A    
S1    O22   D    
S5    O35   S    
O11   C39   A    
S4    O32   S    
C15   H5    S    
C16   C22   S    
C35   C40   S    
O4    V2    S    
C26   C32   S    
C22   C34   S    
N1    H19   S    
C24   S4    S    
O6    C4    A    
C17   H9    S    
C18   H10   S    
N3    C43   S    
O1    V2    S    
O20   V3    S    
S3    O29   S    
S4    O31   D    
O2    V1    S    
C19   C31   T    
C44   H33   S    
C21   C33   S    
N1    C41   S    
C8    C10   S    
C41   H22   S    
C9    C11   T    
C28   H14   S    
C42   H26   S    
C10   C12   T    
O38   H36   S    
S6    O38   S    
C13   C23   S    
O17   V3    S    
O3    V1    S    
C43   H28   S    
C44   H34   S    
C29   N3    S    
C13   S1    S    
H2    C24   S    
O3    C1    A    
S6    O37   D    
S1    O23   S    
C44   H32   S    
N2    H23   S    
C27   H11   S    
C28   H12   S    
C33   C35   T    
O7    V1    S    
C1    O8    A    
O8    V2    S    
N4    H31   S    
C20   C32   T    
C14   S2    S    
C21   C29   S    
C38   O17   A    
C16   C18   S    
O29   H17   S    
C5    C7    T    
C34   C36   T    
C6    C8    T    
S4    O30   D    
O19   V4    S    
C14   C24   S    
S1    O21   D    
C15   C21   S    
C16   H6    S    
O6    V2    S    
O23   H15   S    
H1    C23   S    
O9    V2    S    
C17   H7    S    
O12   C40   A    
O10   V1    S    
S3    O27   D    
C36   C39   S    
C43   H29   S    
O11   V4    S    
