data_mof_unit_19051.cif
_audit_creation_date              2012-12-10T18:56:28-0500
_audit_creation_method            fapswitch 2.2
_symmetry_space_group_name_H-M    P1
_symmetry_Int_Tables_number       1
_space_group_crystal_system       triclinic
_cell_length_a                    10.779961
_cell_length_b                    10.052575
_cell_length_c                    19.353521
_cell_angle_alpha                 91.779904
_cell_angle_beta                  95.72048
_cell_angle_gamma                 92.681828
_cell_volume                      2083.19390822

loop_
_atom_site_label
_atom_site_type_symbol
_atom_type_description
_atom_site_fract_x
_atom_site_fract_y
_atom_site_fract_z
_atom_type_partial_charge
C1    C     C_R   0.872942 0.511667 0.484249 -0.329041
C2    C     C_R   0.739369 0.503367 0.493922 0.995571
C3    C     C_R   0.507120 0.496921 0.365446 0.986025
C4    C     C_R   0.494092 0.502739 0.634294 0.977329
C5    C     C_R   0.050685 0.375263 0.493005 0.244175
C6    C     C_R   0.948421 0.625380 0.507737 0.314816
C7    C     C_R   0.929389 0.395598 0.465031 0.309096
C8    C     C_R   0.070526 0.606034 0.534613 0.302781
C9    C     C_R   0.453347 0.391126 0.744320 0.406430
C10   C     C_R   0.548019 0.613809 0.257293 0.371192
C11   C     C_R   0.509234 0.371319 0.244657 0.409761
C12   C     C_R   0.126723 0.489250 0.515761 -0.329153
C13   C     C_R   0.528803 0.625033 0.752592 0.384860
C14   C     C_R   0.489948 0.378292 0.815086 0.100583
C15   C     C_R   0.523939 0.626209 0.185729 0.074362
C16   C     C_R   0.494108 0.384784 0.171773 0.091514
C17   C     C_R   0.576044 0.608427 0.821752 0.088282
C18   C     C_R   0.548949 0.488333 0.853860 -0.169738
C19   C     C_R   0.501468 0.511154 0.143230 -0.171365
C20   C     C_R   0.582788 0.080102 0.547465 0.326800
C21   C     C_R   0.416859 0.919965 0.453112 0.337635
C22   C     C_R   0.415712 0.065616 0.453849 0.335417
C23   C     C_R   0.423674 0.520043 0.951368 -0.168602
C24   C     C_R   0.583487 0.934316 0.546687 0.317194
C25   C     C_R   0.487817 0.508812 0.710986 -0.376831
C26   C     C_R   0.520930 0.491152 0.288656 -0.387350
C27   C     C_3   0.383247 0.225018 0.889662 -0.617586
C28   C     C_3   0.420100 0.817078 0.140371 -0.602874
C29   C     C_3   0.579353 0.213941 0.098864 -0.613249
C30   C     C_3   0.768453 0.739971 0.848270 -0.627598
C31   C     C_R   0.633761 0.503987 0.046493 -0.197390
C32   C     C_R   0.410478 0.527940 0.021806 -0.219641
C33   C     C_R   0.645939 0.489394 0.975867 -0.215388
C34   C     C_R   0.515292 0.518512 0.069303 0.186000
C35   C     C_R   0.540129 0.494751 0.928436 0.174786
C36   C     C_R   0.260476 0.496748 0.505988 1.000702
H1    H     H_    0.342578 0.530202 0.914421 0.168310
H2    H     H_    0.954992 0.801246 0.348207 0.418815
H3    H     H_    0.923948 0.144350 0.325439 0.407569
H4    H     H_    0.084627 0.854893 0.677100 0.408651
H5    H     H_    0.172659 0.164537 0.730341 0.414846
H6    H     H_    0.802543 0.709296 0.225168 0.355402
H7    H     H_    0.694949 0.077808 0.250117 0.412575
H8    H     H_    0.493484 0.985529 0.778755 0.405194
H9    H     H_    0.566143 0.217565 0.864896 0.235329
H10   H     H_    0.421850 0.234179 0.944987 0.194153
H11   H     H_    0.343432 0.121771 0.879008 0.260791
H12   H     H_    0.715297 0.498133 0.083612 0.153124
H13   H     H_    0.306999 0.294944 0.880954 0.263549
H14   H     H_    0.592840 0.758059 0.116394 0.235770
H15   H     H_    0.438866 0.919544 0.123126 0.242917
H16   H     H_    0.367909 0.823063 0.186784 0.292731
H17   H     H_    0.361574 0.760524 0.097934 0.195602
H18   H     H_    0.395378 0.273653 0.089709 0.223709
H19   H     H_    0.573711 0.223831 0.041730 0.195234
H20   H     H_    0.581275 0.106534 0.109947 0.253360
H21   H     H_    0.668289 0.264387 0.122238 0.259183
H22   H     H_    0.625126 0.728452 0.912471 0.239075
H23   H     H_    0.319042 0.539205 0.039262 0.147718
H24   H     H_    0.808138 0.832722 0.876359 0.241081
H25   H     H_    0.776584 0.750936 0.791911 0.274070
H26   H     H_    0.822898 0.654835 0.867223 0.203120
H27   H     H_    0.736709 0.474822 0.958204 0.154980
H28   H     H_    0.755676 0.363166 0.666425 0.359519
H29   H     H_    0.238451 0.639479 0.334636 0.362989
H30   H     H_    0.210585 0.315449 0.352484 0.380073
H31   H     H_    0.786867 0.685862 0.650252 0.365089
H32   H     H_    0.969158 0.094922 0.471285 0.421160
N1    N     N_R   0.500000 0.857200 0.500000 -0.217368
N2    N     N_R   0.500000 0.142800 0.500000 -0.216171
N3    N     N_2   0.481154 0.250458 0.844918 -0.260923
N4    N     N_2   0.536805 0.754096 0.156533 -0.243179
N5    N     N_2   0.471525 0.269474 0.126203 -0.251805
N6    N     N_2   0.639116 0.718819 0.860727 -0.241794
O1    O     O_R   0.316770 0.614620 0.500000 -0.534682
O2    O     O_2   0.809725 0.123463 0.628137 -0.137594
O3    O     O_3   0.715496 0.339065 0.619099 -0.540722
O4    O     O_2   0.187590 0.876439 0.378886 -0.192326
O5    O     O_2   0.370438 0.852865 0.316996 -0.257086
O6    O     O_3   0.284436 0.660699 0.380890 -0.536988
O7    O     O_2   0.286670 0.082206 0.324522 -0.175762
O8    O     O_2   0.172292 0.106480 0.424974 -0.232282
O9    O     O_3   0.289334 0.304156 0.382272 -0.538780
O10   O     O_2   0.826948 0.897697 0.580789 -0.156446
O11   O     O_2   0.701410 0.915709 0.677611 -0.199025
O12   O     O_R   0.683230 0.385380 0.500000 -0.531250
O13   O     O_3   0.710689 0.695696 0.618051 -0.553516
O14   O     O_2   0.184104 0.180421 0.555164 -0.168807
O15   O     O_2   0.026060 0.284489 0.618113 -0.210256
O16   O     O_3   0.950974 0.116751 0.519087 -0.392154
O17   O     O_2   0.809288 0.821413 0.450847 -0.193832
O18   O     O_2   0.030274 0.874730 0.486332 -0.173339
O19   O     O_3   0.974364 0.723634 0.376974 -0.490267
O20   O     O_2   0.772892 0.188293 0.420726 -0.239061
O21   O     O_2   0.785856 0.376922 0.344301 -0.240734
O22   O     O_3   0.968902 0.218951 0.353527 -0.537741
O23   O     O_R   0.683230 0.614620 0.500000 -0.538254
O24   O     O_2   0.220674 0.634424 0.652256 -0.247514
O25   O     O_2   0.226906 0.818514 0.572345 -0.198650
O26   O     O_3   0.036319 0.790739 0.643666 -0.494606
O27   O     O_2   0.258736 0.366379 0.651806 -0.250548
O28   O     O_2   0.380642 0.167895 0.665842 -0.215245
O29   O     O_3   0.233225 0.226164 0.758720 -0.542103
O30   O     O_2   0.613510 0.837226 0.337347 -0.175914
O31   O     O_2   0.741634 0.643450 0.350174 -0.268574
O32   O     O_3   0.760018 0.786864 0.242714 -0.555575
O33   O     O_2   0.552359 0.178917 0.346104 -0.192510
O34   O     O_R   0.316770 0.385380 0.500000 -0.541962
O35   O     O_2   0.452143 0.106721 0.232671 -0.251387
O36   O     O_3   0.686526 0.174790 0.244891 -0.524850
O37   O     O_2   0.438311 0.816961 0.663632 -0.187347
O38   O     O_2   0.336636 0.775566 0.768195 -0.277607
O39   O     O_3   0.547546 0.908452 0.780768 -0.489060
O40   O     O_R   0.500030 0.614710 0.398180 -0.533520
O41   O     O_R   0.499970 0.385290 0.601820 -0.538466
O42   O     O_R   0.499970 0.614710 0.601820 -0.528868
O43   O     O_R   0.500030 0.385290 0.398180 -0.526134
O44   O     O_2   0.621961 0.151737 0.684202 -0.263703
S1    S     S_3+6 0.681599 0.174942 0.618472 0.167404
S2    S     S_3+6 0.666209 0.723983 0.299423 0.099130
S3    S     S_3+6 0.545829 0.205566 0.270513 0.140231
S4    S     S_3+6 0.460206 0.782564 0.738385 0.132209
S5    S     S_3+6 0.315909 0.825424 0.383752 0.158035
S6    S     S_3+6 0.293165 0.141652 0.396741 0.178391
S7    S     S_3+6 0.703513 0.858598 0.605353 0.172515
S8    S     S_3+6 0.057473 0.237384 0.547816 0.181082
S9    S     S_3+6 0.937354 0.767790 0.456570 0.169976
S10   S     S_3+6 0.859058 0.292838 0.394710 0.089265
S11   S     S_3+6 0.143938 0.714898 0.601688 0.144075
S12   S     S_3+6 0.331035 0.284013 0.703076 0.120591
Zn1   Zn    Zn3+2 0.500000 0.653120 0.500000 1.199116
Zn2   Zn    Zn3+2 0.500000 0.346880 0.500000 1.199072

loop_
_geom_bond_atom_site_label_1
_geom_bond_atom_site_label_2
_ccdc_geom_bond_type
C36   O34   A    
H28   O3    S    
C14   C18   A    
C4    O41   A    
O11   S7    D    
C13   C25   A    
C4    C25   S    
C9    C25   A    
C14   N3    S    
C28   N4    S    
C9    S12   S    
C15   C19   A    
C15   N4    S    
O17   S9    D    
C6    S9    S    
C10   C15   A    
O36   S3    S    
C30   N6    S    
C28   H15   S    
C8    S11   S    
H9    N3    S    
O22   S10   S    
C1    C2    S    
O40   Zn1   S    
O43   Zn2   S    
H14   N4    S    
O44   S1    D    
O14   S8    D    
C3    O43   A    
H30   O9    S    
O21   S10   D    
O39   S4    S    
C20   C24   A    
C2    O23   A    
C30   H24   S    
C5    S8    S    
H32   O16   S    
C31   C33   A    
O31   S2    D    
H7    O36   S    
C7    S10   S    
C12   C36   S    
C18   C35   S    
C8    C12   A    
O15   S8    D    
O27   S12   D    
C10   C26   A    
H29   O6    S    
C21   C22   A    
O37   S4    D    
C20   N2    A    
C11   S3    S    
O8    S6    D    
O1    Zn1   S    
C24   N1    A    
O41   Zn2   S    
N1    Zn1   S    
O2    S1    D    
O25   S11   D    
O7    S6    D    
C16   N5    S    
O23   Zn1   S    
C5    C12   A    
C5    C7    A    
O26   S11   S    
C6    C8    A    
C29   H19   S    
C11   C26   A    
C23   H1    S    
O5    S5    D    
C19   C34   S    
H5    O29   S    
C21   N1    A    
C32   C34   A    
C21   S5    S    
C9    C14   A    
O19   S9    S    
O38   S4    D    
C36   O1    A    
H18   N5    S    
C11   C16   A    
C33   H27   S    
N2    Zn2   S    
C17   C18   A    
O16   S8    S    
C31   C34   A    
O4    S5    D    
H6    O32   S    
C27   H10   S    
C29   H21   S    
H8    O39   S    
C23   C35   A    
C31   H12   S    
C30   H26   S    
C24   S7    S    
O9    S6    S    
O33   S3    D    
O18   S9    D    
O13   S7    S    
C27   N3    S    
H22   N6    S    
C27   H11   S    
O10   S7    D    
O32   S2    S    
C1    C7    A    
C4    O42   A    
C3    C26   S    
O28   S12   D    
O3    S1    S    
C3    O40   A    
H4    O26   S    
C28   H17   S    
C22   S6    S    
C29   H20   S    
O20   S10   D    
H31   O13   S    
O12   Zn2   S    
C13   C17   A    
C23   C32   A    
C13   S4    S    
C28   H16   S    
O35   S3    D    
C17   N6    S    
O42   Zn1   S    
C16   C19   A    
H2    O19   S    
C33   C35   A    
C2    O12   A    
O29   S12   S    
H3    O22   S    
O34   Zn2   S    
C10   S2    S    
C29   N5    S    
O24   S11   D    
C30   H25   S    
C1    C6    A    
C32   H23   S    
C22   N2    A    
C20   S1    S    
C27   H13   S    
O30   S2    D    
O6    S5    S    
