data_mof_unit_24529.cif
_audit_creation_date              2012-12-10T18:58:10-0500
_audit_creation_method            fapswitch 2.2
_symmetry_space_group_name_H-M    P1
_symmetry_Int_Tables_number       1
_space_group_crystal_system       triclinic
_cell_length_a                    10.996981
_cell_length_b                    10.884263
_cell_length_c                    9.554527
_cell_angle_alpha                 90.461045
_cell_angle_beta                  102.631698
_cell_angle_gamma                 90.749282
_cell_volume                      1115.77448237

loop_
_atom_site_label
_atom_site_type_symbol
_atom_type_description
_atom_site_fract_x
_atom_site_fract_y
_atom_site_fract_z
_atom_type_partial_charge
C1    C     C_R   0.498226 0.262228 0.498258 0.805747
C2    C     C_R   0.487838 0.128551 0.489830 -0.149056
C3    C     C_R   0.512680 0.060616 0.371375 -0.028722
C4    C     C_R   0.512643 0.932607 0.375249 -0.231477
C5    C     C_R   0.491219 0.870205 0.495647 -0.111703
C6    C     C_R   0.451396 0.937147 0.601643 0.061293
C7    C     C_3   0.492756 0.936888 0.761357 -0.272207
C8    C     C_3   0.479937 0.077047 0.756921 -0.245190
C9    C     C_R   0.603353 0.537179 0.099846 0.255995
C10   C     C_R   0.406016 0.444380 0.048726 0.044010
C11   C     C_R   0.404647 0.448139 0.899955 -0.093637
C12   C     C_R   0.262936 0.506107 0.442297 0.854875
C13   C     C_R   0.604325 0.534876 0.953093 0.268958
C14   C     C_3   0.672318 0.654774 0.963948 -0.502280
C15   C     C_3   0.668444 0.658878 0.121957 -0.495561
C16   C     C_R   0.499336 0.737486 0.500114 0.793035
C17   C     C_R   0.737661 0.503137 0.557936 0.852236
C18   C     C_2   0.127342 0.510500 0.411510 -0.374396
C19   C     C_2   0.064229 0.563861 0.501610 0.165901
C20   C     C_2   0.872818 0.521251 0.588802 -0.356304
C21   C     C_2   0.931336 0.531666 0.479942 -0.152820
C22   C     C_R   0.446814 0.063762 0.597203 0.044151
Cu1   Cu    Cu3+1 0.499990 0.499980 0.640670 0.946098
Cu2   Cu    Cu3+1 0.500010 0.500020 0.359330 0.970135
H1    H     H_    0.881202 0.513095 0.370411 0.159650
H2    H     H_    0.568991 0.128108 0.797981 0.164058
H3    H     H_    0.327045 0.408056 0.823016 0.159592
H4    H     H_    0.767995 0.645052 0.945151 0.194599
H5    H     H_    0.616193 0.726330 0.900249 0.213682
H6    H     H_    0.762209 0.653945 0.194175 0.193306
H7    H     H_    0.608216 0.732618 0.148418 0.213276
H8    H     H_    0.922840 0.533473 0.699393 0.156059
H9    H     H_    0.077707 0.456689 0.319791 0.144138
H10   H     H_    0.536245 0.882294 0.286896 0.160041
H11   H     H_    0.591238 0.908813 0.797059 0.138845
N1    N     N_R   0.500780 0.500930 0.148120 -0.209497
N2    N     N_R   0.500790 0.500890 0.852210 -0.193990
O1    O     O_R   0.500000 0.319640 0.618810 -0.581577
O2    O     O_R   0.500010 0.319680 0.381230 -0.571569
O3    O     O_R   0.320680 0.500000 0.575130 -0.591064
O4    O     O_R   0.320690 0.500040 0.337550 -0.571454
O5    O     O_R   0.499990 0.680320 0.618770 -0.589804
O6    O     O_R   0.500000 0.680360 0.381190 -0.583628
O7    O     O_R   0.679310 0.499960 0.662450 -0.580886
O8    O     O_R   0.679320 0.500000 0.424870 -0.579037
C23   C     C_1   0.308923 0.374246 0.091713 0.336697
N3    N     N_1   0.230623 0.316738 0.124713 -0.289881
C24   C     C_3   0.122578 0.657993 0.617265 -0.314114
C25   C     C_3   0.050763 0.778284 0.600335 -0.826603
H12   H     H_    0.044666 0.815459 0.491114 0.252565
H13   H     H_    0.955373 0.764517 0.618751 0.251711
H14   H     H_    0.100075 0.847031 0.680001 0.258373
H15   H     H_    0.125218 0.619674 0.725221 0.200825
H16   H     H_    0.219309 0.683414 0.611957 0.220023
C26   C     C_1   0.547526 0.116790 0.248790 0.293378
N4    N     N_1   0.575490 0.161272 0.150532 -0.304820
C27   C     C_1   0.405655 0.867823 0.830152 0.300365
N5    N     N_1   0.338026 0.813420 0.884765 -0.299859
C28   C     C_1   0.373864 0.125415 0.810601 0.328969
N6    N     N_1   0.289758 0.161838 0.852148 -0.301447

loop_
_geom_bond_atom_site_label_1
_geom_bond_atom_site_label_2
_ccdc_geom_bond_type
C10   C23   S    
C9    N1    A    
C8    C22   S    
C26   N4    T    
C2    C22   A    
C6    C7    S    
Cu1   O1    S    
C8    H2    S    
C13   N2    A    
C14   C15   S    
C11   H3    S    
Cu1   Cu2   S    
C25   H14   S    
C17   C20   S    
C25   H13   S    
C2    C3    A    
C9    C15   S    
C17   O7    A    
C7    C8    S    
Cu2   N1    S    
C13   C14   S    
C24   H16   S    
Cu2   O4    S    
C16   O6    A    
C27   N5    T    
C12   O4    A    
Cu1   O5    S    
C3    C26   S    
C1    O1    A    
C5    C6    A    
Cu2   O8    S    
C24   C25   S    
C19   C21   S    
C17   O8    A    
C1    C2    S    
C8    C28   S    
C24   H15   S    
C18   H9    S    
C4    H10   S    
C10   C11   A    
C1    O2    A    
C14   H5    S    
C3    C4    A    
C6    C22   A    
C16   O5    A    
C28   N6    T    
Cu2   O2    S    
C20   C21   D    
C15   H6    S    
C25   H12   S    
C20   H8    S    
C12   C18   S    
C11   N2    A    
Cu2   O6    S    
C9    C13   A    
C23   N3    T    
C18   C19   D    
C5    C16   S    
C21   H1    S    
C12   O3    A    
C19   C24   S    
C14   H4    S    
Cu1   N2    S    
C7    H11   S    
C15   H7    S    
C7    C27   S    
Cu1   O7    S    
Cu1   O3    S    
C4    C5    A    
C10   N1    A    
