data_mof_unit_52379.cif
_audit_creation_date              2012-12-11T15:54:02-0500
_audit_creation_method            fapswitch 2.2
_symmetry_space_group_name_H-M    P1
_symmetry_Int_Tables_number       1
_space_group_crystal_system       triclinic
_cell_length_a                    10.700086
_cell_length_b                    10.73768
_cell_length_c                    17.100209
_cell_angle_alpha                 80.363736
_cell_angle_beta                  99.840526
_cell_angle_gamma                 118.974538
_cell_volume                      1685.3347061

loop_
_atom_site_label
_atom_site_type_symbol
_atom_type_description
_atom_site_fract_x
_atom_site_fract_y
_atom_site_fract_z
_atom_type_partial_charge
C1    C     C_R   0.361484 0.229566 0.627604 0.553216
C2    C     C_1   0.320339 0.159430 0.778056 -0.046995
C3    C     C_1   0.318029 0.683584 0.280257 -0.071494
C4    C     C_R   0.374359 0.650741 0.589721 0.547210
C5    C     C_1   0.297302 0.707301 0.209620 -0.057807
C6    C     C_R   0.873417 0.687398 0.168567 0.004953
C7    C     C_R   0.896454 0.587503 0.223372 0.022824
C8    C     C_R   0.885911 0.580253 0.302474 0.007527
C9    C     C_R   0.865222 0.798996 0.279253 -0.018053
C10   C     C_R   0.873768 0.802247 0.197777 -0.132495
C11   C     C_3   0.836272 0.430206 0.222880 -0.267132
C12   C     C_R   0.471127 0.756598 0.715610 -0.158411
C13   C     C_3   0.822140 0.419688 0.310583 -0.266916
C14   C     C_R   0.852487 0.674829 0.330653 0.016665
C15   C     C_R   0.323128 0.156344 0.162576 0.020972
C16   C     C_R   0.776986 0.618890 0.626908 0.544337
C17   C     C_R   0.227740 0.190317 0.187399 0.019677
C18   C     C_R   0.230691 0.201421 0.265803 0.004550
C19   C     C_R   0.417105 0.130292 0.300764 -0.169205
C20   C     C_R   0.414731 0.119913 0.220157 -0.167432
C21   C     C_3   0.202531 0.316145 0.159401 -0.268455
C22   C     C_3   0.207527 0.330550 0.246405 -0.241665
C23   C     C_R   0.472877 0.745117 0.797984 0.015614
C24   C     C_R   0.327432 0.176267 0.323412 0.020758
C25   C     C_R   0.891692 0.701940 0.855832 0.581267
C26   C     C_R   0.316586 0.704001 0.900170 0.582299
C27   C     C_R   0.283988 0.113831 0.857543 0.543691
C28   C     C_R   0.351451 0.227975 0.399415 0.548826
C29   C     C_R   0.895879 0.694761 0.086868 0.556070
C30   C     C_R   0.285037 0.738580 0.125440 0.565028
C31   C     C_R   0.286996 0.108484 0.084618 0.539251
C32   C     C_R   0.361999 0.657288 0.361750 0.543866
C33   C     C_R   0.775800 0.624941 0.401252 0.543732
C34   C     C_3   0.144065 0.406508 0.794470 -0.120429
C35   C     C_R   0.343273 0.656615 0.832705 -0.014563
C36   C     C_R   0.221496 0.567388 0.785300 -0.004091
C37   C     C_R   0.222908 0.572698 0.703502 -0.002016
C38   C     C_2   0.611856 0.824410 0.846750 0.588799
C39   C     C_3   0.001748 0.342584 0.832879 -0.257871
C40   C     C_3   0.020696 0.299334 0.922244 -0.387654
C41   C     C_3   0.984147 0.364439 0.658180 -0.274994
C42   C     C_3   0.985405 0.395613 0.567902 -0.384402
C43   C     C_3   0.866499 0.927004 0.306347 -0.261801
C44   C     C_3   0.731598 0.940401 0.271638 -0.400043
C45   C     C_3   0.135672 0.413065 0.703489 -0.105395
C46   C     C_R   0.348900 0.667125 0.667520 -0.022899
C47   C     C_1   0.823020 0.656559 0.706095 -0.047119
C48   C     C_1   0.850673 0.684602 0.773720 -0.028115
C49   C     C_1   0.345481 0.187526 0.709890 -0.044763
Cr1   Cr    Cr6+3 0.608440 0.389080 0.519680 0.996164
Cr2   Cr    Cr6+3 0.288640 0.400090 0.490760 0.982679
Cr3   Cr    Cr6+3 0.602940 0.710800 0.489510 1.006652
Cr4   Cr    Cr6+3 0.052530 0.947560 0.964210 1.008103
Cr5   Cr    Cr6+3 0.059970 0.626800 0.992920 0.993245
Cr6   Cr    Cr6+3 0.373320 0.938440 0.995370 1.030156
H1    H     H_    0.571721 0.826241 0.690408 0.180369
H2    H     H_    0.103364 0.310855 0.263556 0.133702
H3    H     H_    0.216533 0.362124 0.825111 0.150598
H4    H     H_    0.194571 0.362816 0.685875 0.175595
H5    H     H_    0.878244 0.893252 0.157348 0.143377
H6    H     H_    0.917399 0.400686 0.211599 0.141721
H7    H     H_    0.727398 0.841405 0.954260 0.346492
H8    H     H_    0.026815 0.197658 0.931820 0.185806
H9    H     H_    0.119828 0.381657 0.952210 0.167822
H10   H     H_    0.926874 0.282341 0.950485 0.126413
H11   H     H_    0.958275 0.419940 0.823173 0.181901
H12   H     H_    0.731214 0.381264 0.185796 0.144155
H13   H     H_    0.920002 0.244040 0.805656 0.179345
H14   H     H_    0.043564 0.512607 0.550826 0.166774
H15   H     H_    0.035460 0.340691 0.545565 0.167793
H16   H     H_    0.873268 0.354385 0.539299 0.150893
H17   H     H_    0.919456 0.246972 0.671554 0.154500
H18   H     H_    0.930262 0.417466 0.678376 0.184498
H19   H     H_    0.739289 0.984801 0.208104 0.133048
H20   H     H_    0.635013 0.834298 0.274798 0.201755
H21   H     H_    0.719721 0.013597 0.305101 0.131987
H22   H     H_    0.881552 0.926023 0.372097 0.167889
H23   H     H_    0.707961 0.362544 0.323042 0.169221
H24   H     H_    0.960569 0.025220 0.285380 0.141174
H25   H     H_    0.893500 0.381725 0.349970 0.129716
H26   H     H_    0.492542 0.109073 0.344286 0.125851
H27   H     H_    0.482708 0.082166 0.203257 0.136462
H28   H     H_    0.094469 0.285103 0.126183 0.136397
H29   H     H_    0.293386 0.406423 0.129475 0.153325
H30   H     H_    0.303237 0.428011 0.267016 0.159783
O1    O     O_R   0.754020 0.497590 0.609930 -0.528883
O2    O     O_R   0.406180 0.826930 0.920660 -0.473750
O3    O     O_R   0.358620 0.062870 0.901950 -0.489422
O4    O     O_R   0.481420 0.271390 0.600630 -0.486423
O5    O     O_R   0.163910 0.085460 0.050210 -0.533840
O6    O     O_R   0.935200 0.815170 0.045770 -0.521350
O7    O     O_R   0.916120 0.596690 0.069430 -0.519694
O8    O     O_R   0.192310 0.631200 0.086170 -0.507742
O9    O     O_R   0.406770 0.819480 0.096420 -0.511119
O10   O     O_R   0.359170 0.055960 0.064880 -0.525591
O11   O     O_3   0.161940 0.837600 0.984160 -0.275159
O12   O     O_R   0.295080 0.533620 0.397890 -0.505375
O13   O     O_R   0.263810 0.254550 0.589590 -0.534802
O14   O     O_R   0.300820 0.531200 0.560890 -0.514700
O15   O     O_R   0.491480 0.744020 0.564270 -0.521628
O16   O     O_R   0.726290 0.693800 0.583010 -0.496007
O17   O     O_R   0.747830 0.500190 0.434090 -0.535014
O18   O     O_R   0.475680 0.273800 0.437630 -0.506177
O19   O     O_R   0.257620 0.257160 0.413750 -0.524241
O20   O     O_2   0.709640 0.931808 0.817158 -0.548324
O21   O     O_R   0.631393 0.774948 0.926557 -0.685902
O22   O     O_R   0.485280 0.746620 0.388440 -0.521896
O23   O     O_R   0.720550 0.696220 0.420010 -0.504947
O24   O     O_3   0.500010 0.499990 0.499980 -0.241538
O25   O     O_R   0.163320 0.092900 0.874450 -0.522262
O26   O     O_R   0.934650 0.822080 0.882840 -0.460951
O27   O     O_R   0.915520 0.604140 0.893670 -0.526168
O28   O     O_R   0.191760 0.638110 0.923230 -0.511373

loop_
_geom_bond_atom_site_label_1
_geom_bond_atom_site_label_2
_ccdc_geom_bond_type
Cr4   O25   S    
Cr2   O12   S    
C8    C13   S    
C20   H27   S    
C41   C42   S    
C19   C20   A    
C43   C44   S    
C14   C33   S    
C7    C8    A    
C4    C46   S    
C7    C11   S    
C12   C23   A    
C40   H8    S    
C18   C24   A    
C36   C37   A    
C30   O8    A    
C43   H24   S    
Cr5   O28   S    
C42   H15   S    
C32   O12   A    
C39   H13   S    
C22   H30   S    
Cr6   O3    S    
C44   H21   S    
Cr5   O8    S    
C25   O27   A    
C21   H28   S    
Cr3   O22   S    
C26   O2    A    
C32   O22   A    
Cr4   O6    S    
C8    C14   A    
C2    C27   S    
C9    C10   A    
Cr5   O11   S    
Cr4   O26   S    
Cr2   O13   S    
C13   H25   S    
Cr1   O18   S    
Cr2   O24   S    
C21   C22   S    
Cr4   O11   S    
C16   O1    A    
C3    C32   S    
C33   O23   A    
C22   H2    S    
Cr6   O9    S    
C16   C47   S    
C11   H12   S    
Cr2   O14   S    
C15   C20   A    
Cr3   O16   S    
C9    C43   S    
C33   O17   A    
C27   O25   A    
Cr6   O10   S    
C39   C40   S    
Cr1   O1    S    
C3    C5    T    
Cr2   O19   S    
Cr3   O15   S    
C42   H14   S    
C17   C21   S    
C34   C39   S    
C35   C36   A    
C38   O21   S    
C44   H20   S    
C10   H5    S    
C9    C14   A    
Cr5   O7    S    
C2    C49   T    
C28   O19   A    
Cr1   O4    S    
C47   C48   T    
C21   H29   S    
C31   O5    A    
C17   C18   A    
Cr5   O27   S    
C34   C45   S    
C44   H19   S    
C25   C48   S    
C12   H1    S    
C41   H17   S    
C12   C46   A    
Cr1   O17   S    
C23   C35   A    
C40   H10   S    
C4    O15   A    
C39   H11   S    
C37   C45   S    
C29   O6    A    
C5    C30   S    
C15   C17   A    
C13   H23   S    
C45   H4    S    
C1    O4    A    
C18   C22   S    
C24   C28   S    
Cr6   O11   S    
C11   H6    S    
C1    O13   A    
C6    C10   A    
C15   C31   S    
C6    C7    A    
H7    O21   S    
C43   H22   S    
C23   C38   S    
C40   H9    S    
C38   O20   D    
C19   C24   A    
C26   O28   A    
C30   O9    A    
C11   C13   S    
C28   O18   A    
Cr3   O24   S    
C31   O10   A    
C42   H16   S    
C26   C35   S    
C34   C36   S    
Cr1   O24   S    
Cr6   O2    S    
C27   O3    A    
C25   O26   A    
C41   H18   S    
C16   O16   A    
C6    C29   S    
Cr3   O23   S    
C4    O14   A    
Cr4   O5    S    
C34   H3    S    
C41   C45   S    
C37   C46   A    
C19   H26   S    
C1    C49   S    
C29   O7    A    
