data_mof_unit_39540.cif
_audit_creation_date              2012-10-26T18:50:03-0400
_audit_creation_method            fapswitch 2.2
_symmetry_space_group_name_H-M    P1
_symmetry_Int_Tables_number       1
_space_group_crystal_system       triclinic
_cell_length_a                    10.84224
_cell_length_b                    13.06691
_cell_length_c                    11.727701
_cell_angle_alpha                 101.469247
_cell_angle_beta                  92.935612
_cell_angle_gamma                 91.817869
_cell_volume                      1624.71105976

loop_
_atom_site_label
_atom_site_type_symbol
_atom_type_description
_atom_site_fract_x
_atom_site_fract_y
_atom_site_fract_z
_atom_type_partial_charge
C1    C     C_R   0.495852 0.298516 0.476579 0.565900
C2    C     C_R   0.481512 0.858262 0.439811 -0.130531
C3    C     C_R   0.497573 0.034015 0.555173 0.010234
C4    C     C_R   0.482324 0.965920 0.445096 0.011335
C5    C     C_R   0.370575 0.409454 0.025931 -0.049769
C6    C     C_R   0.631889 0.587607 0.973727 -0.047809
C7    C     C_R   0.386699 0.417546 0.146382 0.041846
C8    C     C_R   0.614865 0.580649 0.853519 0.071781
C9    C     C_R   0.556379 0.538762 0.157644 0.114391
C10   C     C_R   0.444325 0.460364 0.842206 0.120854
C11   C     C_R   0.548690 0.531916 0.033627 -0.029969
C12   C     C_R   0.500271 0.701545 0.523495 0.548534
C13   C     C_R   0.452791 0.466207 0.966106 -0.030167
C14   C     C_R   0.265149 0.519232 0.503796 0.543931
C15   C     C_R   0.738829 0.501107 0.498764 0.580791
C16   C     C_R   0.122574 0.642037 0.720890 -0.007152
C17   C     C_R   0.893144 0.414525 0.295120 0.004995
C18   C     C_R   0.048411 0.693288 0.806775 -0.128982
C19   C     C_R   0.946046 0.417986 0.189418 -0.134141
C20   C     C_R   0.926797 0.710288 0.779418 -0.111796
C21   C     C_R   0.044978 0.487951 0.186547 -0.073501
C22   C     C_R   0.873671 0.665976 0.669550 0.113045
C23   C     C_R   0.498815 0.816563 0.540112 -0.031313
C24   C     C_R   0.103806 0.543052 0.290640 0.146975
C25   C     C_R   0.937127 0.589316 0.594246 0.029006
C26   C     C_R   0.061594 0.525704 0.398510 0.021440
C27   C     C_R   0.068483 0.589629 0.609086 -0.023833
C28   C     C_R   0.941285 0.482916 0.398636 -0.024812
C29   C     C_R   0.874388 0.519388 0.498536 -0.015179
C30   C     C_R   0.132824 0.548355 0.506556 -0.044863
C31   C     C_1   0.265787 0.343497 0.971276 0.181200
C32   C     C_1   0.739590 0.649962 0.027951 0.179804
C33   C     C_1   0.251029 0.659834 0.754099 0.216722
C34   C     C_R   0.489629 0.183536 0.460172 -0.016722
C35   C     C_1   0.804515 0.330232 0.296832 0.230442
C36   C     C_1   0.538819 0.848004 0.758021 0.244272
C37   C     C_1   0.458986 0.154805 0.242420 0.266917
C38   C     C_1   0.453315 0.937301 0.228345 0.206869
C39   C     C_1   0.524000 0.063300 0.772014 0.203793
C40   C     C_1   0.355034 0.390185 0.767741 0.281606
C41   C     C_1   0.644412 0.610233 0.232158 0.288469
C42   C     C_R   0.469114 0.006657 0.342190 -0.021070
C43   C     C_R   0.511367 0.993646 0.658078 -0.023613
C44   C     C_R   0.472603 0.115525 0.349516 -0.024689
C45   C     C_R   0.514234 0.885101 0.650792 -0.039218
C46   C     C_R   0.500663 0.141577 0.560566 -0.123138
Cu1   Cu    Cu3+1 0.509250 0.507730 0.615930 1.014024
Cu2   Cu    Cu3+1 0.490750 0.492270 0.384070 0.976784
H1    H     H_    0.077587 0.497878 0.103507 0.139416
H2    H     H_    0.785379 0.732124 0.549128 0.236937
H3    H     H_    0.268851 0.595323 0.243946 0.252640
H4    H     H_    0.219703 0.668825 0.367742 0.237381
H5    H     H_    0.876333 0.763469 0.841311 0.143077
H6    H     H_    0.088343 0.731677 0.891927 0.147982
H7    H     H_    0.908582 0.368693 0.108860 0.139055
H8    H     H_    0.468651 0.805617 0.355982 0.155524
H9    H     H_    0.513314 0.194062 0.644476 0.156050
H10   H     H_    0.676883 0.623570 0.809038 0.160170
H11   H     H_    0.324535 0.374650 0.191205 0.152781
H12   H     H_    0.748344 0.779787 0.683697 0.219938
N1    N     N_R   0.523180 0.519350 0.790130 -0.249170
N2    N     N_1   0.448412 0.184813 0.156164 -0.246727
N3    N     N_1   0.440844 0.882131 0.137811 -0.246791
N4    N     N_1   0.533922 0.118646 0.862551 -0.246537
N5    N     N_1   0.283575 0.333581 0.707836 -0.264801
N6    N     N_1   0.714836 0.667923 0.292010 -0.274337
N7    N     N_R   0.476820 0.480650 0.209870 -0.271780
N8    N     N_1   0.181238 0.290485 0.929312 -0.260466
N9    N     N_1   0.826491 0.699911 0.069746 -0.264142
N10   N     N_1   0.352776 0.677450 0.787524 -0.231000
N11   N     N_1   0.734548 0.261766 0.297752 -0.268013
N12   N     N_3   0.765180 0.709937 0.627263 -0.586743
N13   N     N_3   0.191330 0.626679 0.284692 -0.598778
N14   N     N_1   0.560366 0.820992 0.844843 -0.251496
O1    O     O_R   0.506570 0.354460 0.582000 -0.510161
O2    O     O_R   0.493430 0.645540 0.418000 -0.523383
O3    O     O_R   0.490940 0.341410 0.386200 -0.480850
O4    O     O_R   0.509060 0.658590 0.613800 -0.465355
O5    O     O_R   0.327470 0.506520 0.597900 -0.486264
O6    O     O_R   0.672530 0.493480 0.402100 -0.490506
O7    O     O_R   0.311840 0.493460 0.402100 -0.524133
O8    O     O_R   0.688160 0.506540 0.597900 -0.483206

loop_
_geom_bond_atom_site_label_1
_geom_bond_atom_site_label_2
_ccdc_geom_bond_type
C6    C32   S    
C23   C45   A    
C1    O3    A    
Cu2   O2    S    
Cu1   O5    S    
C21   H1    S    
C37   N2    T    
C39   N4    T    
C12   C23   S    
C3    C43   A    
C28   C29   A    
C19   C21   A    
C24   C26   A    
C38   C42   S    
C24   N13   S    
H12   N12   S    
Cu2   O7    S    
C10   C40   S    
Cu1   O8    S    
C7    H11   S    
H2    N12   S    
C8    H10   S    
Cu1   Cu2   S    
C22   C25   A    
C12   O4    A    
C34   C46   A    
C5    C13   A    
C8    N1    A    
C16   C27   A    
C35   N11   T    
C27   C30   A    
C42   C44   A    
C14   C30   S    
C22   N12   S    
C1    C34   S    
C15   C29   S    
C15   O8    A    
C25   C29   A    
C31   N8    T    
C1    O1    A    
C34   C44   A    
H4    N13   S    
C6    C11   A    
C5    C7    A    
C39   C43   S    
Cu2   O3    S    
C2    C4    A    
C9    N7    A    
C16   C33   S    
C9    C11   A    
C15   O6    A    
C36   C45   S    
C14   O5    A    
C43   C45   A    
C32   N9    T    
C36   N14   T    
C33   N10   T    
C20   C22   A    
C26   C30   A    
C40   N5    T    
C12   O2    A    
C46   H9    S    
C10   N1    A    
C3    C4    A    
C38   N3    T    
C19   H7    S    
C17   C28   A    
C26   C28   A    
H3    N13   S    
C20   H5    S    
C10   C13   A    
Cu1   N1    S    
C6    C8    A    
C41   N6    T    
C25   C27   A    
C3    C46   A    
C9    C41   S    
C14   O7    A    
Cu2   O6    S    
C37   C44   S    
Cu1   O1    S    
C2    H8    S    
C11   C13   A    
C4    C42   A    
C17   C19   A    
C18   C20   A    
Cu2   N7    S    
C18   H6    S    
C7    N7    A    
C16   C18   A    
C21   C24   A    
C2    C23   A    
C17   C35   S    
Cu1   O4    S    
C5    C31   S    
