data_mof_unit_39569.cif
_audit_creation_date              2012-12-11T15:44:56-0500
_audit_creation_method            fapswitch 2.2
_symmetry_space_group_name_H-M    P1
_symmetry_Int_Tables_number       1
_space_group_crystal_system       triclinic
_cell_length_a                    6.930446
_cell_length_b                    16.824937
_cell_length_c                    17.077299
_cell_angle_alpha                 100.419248
_cell_angle_beta                  87.925383
_cell_angle_gamma                 91.89386
_cell_volume                      1956.45673147

loop_
_atom_site_label
_atom_site_type_symbol
_atom_type_description
_atom_site_fract_x
_atom_site_fract_y
_atom_site_fract_z
_atom_type_partial_charge
O1    O     O_R   0.494370 0.415690 0.413450 -0.540574
O2    O     O_R   0.819420 0.429360 0.578420 -0.540472
O3    O     O_R   0.994280 0.584310 0.586550 -0.540786
C1    C     C_R   0.645653 0.413088 0.604623 0.703812
O4    O     O_R   0.823790 0.406230 0.413570 -0.543459
O5    O     O_R   0.998670 0.561000 0.420530 -0.536583
C2    C     C_R   0.655108 0.383081 0.384918 0.685923
O6    O     O_R   0.489970 0.439000 0.579470 -0.540915
O7    O     O_3   0.662300 0.550810 0.502470 -0.368851
V1    V     V_3+5 0.935380 0.490570 0.499540 1.400094
O8    O     O_R   0.328650 0.570640 0.421580 -0.543402
C3    C     C_R   0.164823 0.587057 0.395085 0.702080
O9    O     O_R   0.324290 0.593770 0.586430 -0.543562
C4    C     C_R   0.154878 0.616967 0.615098 0.685984
V2    V     V_3+5 0.435930 0.509430 0.500460 1.399448
O10   O     O_3   0.159140 0.449190 0.497530 -0.368482
C5    C     C_R   0.312417 0.723584 0.717665 -0.155537
H1    H     H_    0.453562 0.704228 0.693889 0.116629
C6    C     C_R   0.301403 0.787364 0.782789 -0.151452
H2    H     H_    0.434557 0.815293 0.807025 0.118241
C7    C     C_R   0.121336 0.814718 0.816003 -0.046886
C8    C     C_R   0.952597 0.776515 0.782199 -0.155549
H3    H     H_    0.811448 0.795866 0.805975 0.116629
C9    C     C_R   0.963610 0.712738 0.717077 -0.151448
H4    H     H_    0.830452 0.684808 0.692847 0.118281
C10   C     C_R   0.143674 0.685377 0.683867 -0.046909
C11   C     C_R   0.175420 0.641260 0.334555 -0.070142
C12   C     C_R   0.089418 0.858564 0.165300 -0.070123
C13   C     C_R   0.892868 0.796752 0.261613 -0.200484
C14   C     C_R   0.914943 0.851563 0.209122 -0.163868
C15   C     C_R   0.243327 0.809554 0.176287 -0.237738
C16   C     C_R   0.220886 0.753269 0.228499 0.159853
C17   C     C_R   0.043944 0.746544 0.271344 0.159849
C18   C     C_R   0.021507 0.690266 0.323562 -0.237733
C19   C     C_R   0.349889 0.648254 0.290727 -0.163866
C20   C     C_R   0.371960 0.703060 0.238230 -0.200472
H5    H     H_    0.886747 0.686265 0.357067 0.123433
H6    H     H_    0.471310 0.611345 0.297349 0.129178
H7    H     H_    0.756746 0.793324 0.294247 0.122797
H8    H     H_    0.508082 0.706487 0.205596 0.122799
H9    H     H_    0.793525 0.888475 0.202505 0.129178
H10   H     H_    0.378092 0.813560 0.142786 0.123416
C21   C     C_R   0.616834 0.358964 0.664389 -0.070730
C22   C     C_R   0.647997 0.141244 0.835777 -0.070689
C23   C     C_R   0.865857 0.198542 0.743294 -0.201131
C24   C     C_R   0.828671 0.144352 0.795411 -0.162699
C25   C     C_R   0.503604 0.193309 0.821769 -0.239507
C26   C     C_R   0.540994 0.248675 0.769787 0.160459
C27   C     C_R   0.723840 0.251550 0.730400 0.160463
C28   C     C_R   0.761227 0.306907 0.678412 -0.239499
C29   C     C_R   0.436163 0.355866 0.704760 -0.162717
C30   C     C_R   0.398979 0.301684 0.756889 -0.201101
H11   H     H_    0.900613 0.308078 0.647640 0.125114
H12   H     H_    0.321705 0.395269 0.695724 0.131266
H13   H     H_    0.006353 0.199216 0.713402 0.120964
H14   H     H_    0.258481 0.301012 0.786780 0.120973
H15   H     H_    0.943128 0.104942 0.804432 0.131279
H16   H     H_    0.364215 0.192128 0.852536 0.125112
C31   C     C_R   0.811512 0.275946 0.281992 -0.156410
H17   H     H_    0.952011 0.294906 0.305485 0.116369
C32   C     C_R   0.800147 0.212171 0.216892 -0.150048
H18   H     H_    0.932549 0.183880 0.192427 0.118868
C33   C     C_R   0.620831 0.185268 0.183993 -0.046737
C34   C     C_R   0.453203 0.223961 0.218130 -0.156409
H19   H     H_    0.312708 0.205003 0.194633 0.116368
C35   C     C_R   0.464569 0.287738 0.283231 -0.150073
H20   H     H_    0.332170 0.316032 0.307695 0.118832
C36   C     C_R   0.643888 0.314644 0.316125 -0.046781
O11   O     O_R   0.774880 0.061150 0.920630 -0.540957
O12   O     O_R   0.440980 0.093710 0.086500 -0.543432
O13   O     O_R   0.266190 0.938890 0.079390 -0.536598
C37   C     C_R   0.609641 0.116854 0.115177 0.686025
O14   O     O_R   0.445420 0.070740 0.921670 -0.540450
O15   O     O_R   0.270660 0.915760 0.913380 -0.540783
C38   C     C_R   0.619183 0.087071 0.895500 0.703819
O16   O     O_R   0.770400 0.084270 0.086640 -0.540632
O17   O     O_3   0.602590 0.949210 0.997500 -0.368866
V3    V     V_3+5 0.329470 0.009420 0.000470 1.400119
O18   O     O_R   0.940650 0.906250 0.913470 -0.543658
C39   C     C_R   0.110091 0.883098 0.884799 0.685897
O19   O     O_R   0.936210 0.929220 0.078300 -0.543416
C40   C     C_R   0.100031 0.912798 0.104798 0.702044
V4    V     V_3+5 0.828930 0.990510 0.999490 1.399477
O20   O     O_3   0.105680 0.050790 0.002500 -0.368455

loop_
_geom_bond_atom_site_label_1
_geom_bond_atom_site_label_2
_ccdc_geom_bond_type
C35   C36   A    
C15   H10   S    
O12   V3    S    
C18   H5    S    
C19   C20   A    
C1    O6    A    
O19   C40   A    
C15   C16   A    
C23   C24   A    
C5    C10   A    
C16   C20   A    
C6    C7    A    
C9    C10   A    
O5    C3    A    
O17   V4    S    
V2    O10   S    
C13   C17   A    
C32   C33   A    
C2    C36   S    
O8    V2    S    
C6    H2    S    
O14   V3    S    
C14   H9    S    
O1    V2    S    
O7    V1    S    
C22   C25   A    
C37   O16   A    
O13   C40   A    
C35   H20   S    
C31   H17   S    
O15   C39   A    
O9    C4    A    
O14   C38   A    
O16   V4    S    
O19   V4    S    
C22   C24   A    
C17   C18   A    
C11   C18   A    
C31   C32   A    
C28   H11   S    
C3    C11   S    
C12   C40   S    
C29   C30   A    
C25   C26   A    
C20   H8    S    
C19   H6    S    
C9    H4    S    
O4    C2    A    
C11   C19   A    
O17   V3    S    
O18   C39   A    
C34   C35   A    
C22   C38   S    
O2    C1    A    
C13   C14   A    
O11   V4    S    
C31   C36   A    
V4    O20   S    
C23   C27   A    
C13   H7    S    
C5    H1    S    
C4    C10   S    
O3    C4    A    
C26   C27   A    
O6    V2    S    
O9    V2    S    
C24   H15   S    
C8    C9    A    
O2    V1    S    
O1    C2    A    
C12   C15   A    
O5    V1    S    
O8    C3    A    
C21   C28   A    
C1    C21   S    
C29   H12   S    
C16   C17   A    
C12   C14   A    
O7    V2    S    
O4    V1    S    
O3    V1    S    
V1    O10   S    
C34   H19   S    
C25   H16   S    
O18   V4    S    
C21   C29   A    
C7    C39   S    
C5    C6    A    
O11   C38   A    
C32   H18   S    
C33   C34   A    
V3    O20   S    
C26   C30   A    
C33   C37   S    
C23   H13   S    
C27   C28   A    
O15   V3    S    
C8    H3    S    
O12   C37   A    
C7    C8    A    
O13   V3    S    
C30   H14   S    
