data_mof_unit_31928.cif
_audit_creation_date              2013-03-05T16:46:43-0500
_audit_creation_method            fapswitch 2.2
_symmetry_space_group_name_H-M    P1
_symmetry_Int_Tables_number       1
_space_group_crystal_system       triclinic
_cell_length_a                    10.847394
_cell_length_b                    8.920398
_cell_length_c                    8.101412
_cell_angle_alpha                 89.592568
_cell_angle_beta                  90.033216
_cell_angle_gamma                 90.003173
_cell_volume                      783.897557821

loop_
_atom_site_label
_atom_site_type_symbol
_atom_site_description
_atom_site_fract_x
_atom_site_fract_y
_atom_site_fract_z
_atom_type_partial_charge
O1    O     O_R   0.500000 0.285350 0.636850 -0.558910
O2    O     O_R   0.500000 0.714650 0.636850 -0.611914
O3    O     O_R   0.500000 0.285360 0.363100 -0.636544
O4    O     O_R   0.500000 0.714640 0.363100 -0.594543
C1    C     C_R   0.499996 0.218029 0.500083 1.040175
C2    C     C_R   0.499978 0.781946 0.499552 0.971629
O5    O     O_R   0.316770 0.500000 0.636900 -0.624403
O6    O     O_R   0.683230 0.500000 0.636900 -0.624699
O7    O     O_R   0.316780 0.500000 0.363150 -0.591592
O8    O     O_R   0.683220 0.500000 0.363150 -0.592874
C3    C     C_R   0.259631 0.494966 0.500229 0.972700
C4    C     C_R   0.740367 0.495065 0.500346 0.975262
Zn1   Zn    Zn3+2 0.500000 0.500000 0.682780 1.118378
Zn2   Zn    Zn3+2 0.500000 0.500000 0.317220 1.120942
C5    C     C_R   0.126559 0.294723 0.730827 0.362623
C6    C     C_R   0.873634 0.294958 0.731059 0.361740
C7    C     C_R   0.063855 0.243379 0.870827 -0.189952
C8    C     C_R   0.936536 0.243496 0.870943 -0.191638
H1    H     H_    0.111071 0.178216 0.964783 0.222330
H2    H     H_    0.889412 0.178398 0.964968 0.222335
N1    N     N_1   0.500000 0.500000 0.073640 0.015400
N2    N     N_1   0.500000 0.500000 0.926360 0.018055
C9    C     C_R   0.935240 0.392040 0.616986 -0.055729
C10   C     C_R   0.064858 0.391879 0.616842 -0.055234
C11   C     C_R   0.127499 0.483867 0.499852 -0.221784
C12   C     C_R   0.872503 0.484345 0.500263 -0.222149
C13   C     C_R   0.063519 0.573365 0.384835 0.211565
C14   C     C_R   0.936388 0.573939 0.385293 0.209794
C15   C     C_1   0.499991 0.065027 0.499822 0.049161
C16   C     C_1   0.499983 0.934648 0.499092 -0.046397
N3    N     N_R   0.127476 0.675838 0.277405 0.238689
O9    O     O_R   0.133471 0.649998 0.119745 -0.317134
O10   O     O_R   0.182890 0.792592 0.338072 -0.345261
N4    N     N_R   0.872462 0.677236 0.278547 0.237621
O11   O     O_R   0.812833 0.790183 0.340565 -0.347708
O12   O     O_R   0.872779 0.657587 0.119588 -0.315211
N5    N     N_R   0.234873 0.214333 0.683682 0.187156
O13   O     O_R   0.305809 0.156090 0.796886 -0.370949
O14   O     O_R   0.239702 0.160681 0.534884 -0.418721
N6    N     N_R   0.765220 0.214627 0.684027 0.187322
O15   O     O_R   0.760244 0.160786 0.535312 -0.418679
O16   O     O_R   0.694335 0.156589 0.797312 -0.370852

loop_
_geom_bond_atom_site_label_1
_geom_bond_atom_site_label_2
_geom_bond_distance
_ccdc_geom_bond_type
O7    Zn2   2.022205 S    
N3    O10   1.301707 A    
O6    Zn1   2.022236 S    
C11   C13   1.405704 A    
C12   C14   1.405923 A    
N3    O9    1.301181 A    
O6    C4    1.269419 A    
C9    C10   1.406017 A    
N6    O16   1.302146 A    
C7    C8    1.381076 A    
C14   N4    1.437294 S    
N5    O14   1.301255 A    
O2    C2    1.260194 A    
N1    N2    1.193175 T    
O5    C3    1.269663 A    
O7    C3    1.272667 A    
C15   C16   1.163091 T    
O3    Zn2   1.947823 S    
O8    C4    1.272836 A    
C6    N6    1.430018 S    
O1    C1    1.264027 A    
Zn2   N1    1.973342 S    
C6    C8    1.397250 A    
C5    C10   1.428211 A    
C2    C16   1.362140 S    
N5    O13   1.302138 A    
Zn1   N2    1.973342 S    
C6    C9    1.428241 A    
N4    O12   1.300911 A    
O4    Zn2   1.953012 S    
O1    Zn1   1.953179 S    
C3    C11   1.436702 S    
C13   N3    1.436552 S    
C1    C15   1.364863 S    
O5    Zn1   2.021814 S    
C10   C11   1.422314 A    
C8    H2    1.082998 S    
O4    C2    1.261723 A    
N4    O11   1.301372 A    
O8    Zn2   2.021780 S    
C9    C12   1.422514 A    
C13   C14   1.379066 A    
C5    C7    1.397247 A    
O2    Zn1   1.947984 S    
N6    O15   1.301256 A    
C7    H1    1.082992 S    
C5    N5    1.430060 S    
C4    C12   1.436520 S    
O3    C1    1.258103 A    
