data_mof_unit_12596.cif
_audit_creation_date              2013-03-05T15:55:02-0500
_audit_creation_method            fapswitch 2.2
_symmetry_space_group_name_H-M    P1
_symmetry_Int_Tables_number       1
_space_group_crystal_system       triclinic
_cell_length_a                    11.701501
_cell_length_b                    12.354816
_cell_length_c                    13.162108
_cell_angle_alpha                 116.306058
_cell_angle_beta                  77.522564
_cell_angle_gamma                 101.36431
_cell_volume                      1654.3047008

loop_
_atom_site_label
_atom_site_type_symbol
_atom_site_description
_atom_site_fract_x
_atom_site_fract_y
_atom_site_fract_z
_atom_type_partial_charge
O1    O     O_R   0.533340 0.972510 0.318140 -0.565781
O2    O     O_R   0.488570 0.806530 0.359650 -0.595943
C1    C     C_R   0.506825 0.854968 0.286654 0.827794
O3    O     O_R   0.685190 0.083000 0.479260 -0.549938
O4    O     O_R   0.640410 0.917020 0.520770 -0.586663
C2    C     C_R   0.715801 0.999911 0.499943 0.821383
Cu1   Cu    Cu3+1 0.526510 0.098270 0.475420 0.997599
Cu2   Cu    Cu3+1 0.473490 0.901730 0.524580 1.011591
O5    O     O_R   0.511430 0.193470 0.640350 -0.597483
O6    O     O_R   0.466660 0.027490 0.681860 -0.538817
O7    O     O_R   0.359590 0.082980 0.479230 -0.567849
O8    O     O_R   0.314810 0.917000 0.520740 -0.544591
C3    C     C_R   0.490122 0.144891 0.713791 0.825798
C4    C     C_R   0.284141 0.000614 0.500748 0.845757
C5    C     C_1   0.837522 0.000016 0.500179 -0.119202
C6    C     C_1   0.940040 0.000306 0.500436 0.057906
C7    C     C_1   0.059889 0.000692 0.500736 0.068236
C8    C     C_1   0.162403 0.000853 0.500865 -0.096134
C9    C     C_R   0.438080 0.272319 0.038690 -0.184647
H1    H     H_    0.343176 0.438377 0.234214 0.180827
H2    H     H_    0.414627 0.240840 0.106208 0.166728
C10   C     C_R   0.485565 0.228226 0.836586 -0.109984
C11   C     C_R   0.565615 0.818276 0.082971 -0.223172
C12   C     C_R   0.596752 0.740419 0.968323 0.387501
C13   C     C_R   0.568793 0.615113 0.933724 -0.236259
C14   C     C_R   0.504850 0.566151 0.011083 0.011648
C15   C     C_R   0.466742 0.646514 0.125626 0.028451
C16   C     C_R   0.482558 0.438855 0.979451 0.103255
C17   C     C_R   0.439958 0.395411 0.065057 0.074168
C18   C     C_R   0.392261 0.474068 0.173523 -0.228436
C19   C     C_R   0.392587 0.595727 0.198095 0.172636
C20   C     C_R   0.497645 0.353332 0.865316 -0.245804
C21   C     C_R   0.467244 0.189281 0.925659 0.184214
C22   C     C_R   0.507050 0.772842 0.163594 -0.153290
H3    H     H_    0.512826 0.383067 0.797453 0.169727
H4    H     H_    0.592331 0.914690 0.110223 0.214301
H5    H     H_    0.603641 0.557596 0.847346 0.174831
C23   C     C_R   0.683066 0.346949 0.324022 -0.283342
H6    H     H_    0.723950 0.547367 0.291281 0.164571
H7    H     H_    0.756365 0.347897 0.257894 0.177173
N1    N     N_R   0.566700 0.246290 0.438210 -0.209399
C24   C     C_R   0.335881 0.751611 0.641482 0.310423
C25   C     C_R   0.288956 0.643128 0.654279 0.086744
C26   C     C_R   0.339531 0.536156 0.583426 0.063636
C27   C     C_R   0.451497 0.542671 0.519098 -0.079901
C28   C     C_R   0.492783 0.651552 0.501441 0.232803
C29   C     C_R   0.520877 0.442648 0.466014 0.017043
C30   C     C_R   0.617247 0.444755 0.381434 0.120770
C31   C     C_R   0.649661 0.545730 0.356363 -0.236753
C32   C     C_R   0.591202 0.648160 0.417518 -0.112008
C33   C     C_R   0.502924 0.343274 0.497544 0.027420
C34   C     C_R   0.656477 0.247892 0.351929 0.353090
N2    N     N_R   0.434010 0.754320 0.561170 -0.229492
H8    H     H_    0.441112 0.344027 0.571511 0.162667
H9    H     H_    0.625376 0.721699 0.394131 0.194185
I1    I     I_    0.491850 0.014009 0.903400 -0.218052
I2    I     I_    0.234516 0.902254 0.742162 -0.180188
I3    I     I_    0.223432 0.367969 0.540887 -0.305427
I4    I     I_    0.140286 0.636079 0.781095 -0.176681
N3    N     N_R   0.664480 0.787850 0.888657 0.147499
O9    O     O_R   0.721553 0.896561 0.925416 -0.306024
O10   O     O_R   0.672653 0.721427 0.778740 -0.340768
I5    I     I_    0.242623 0.674387 0.311377 -0.306057
I6    I     I_    0.769095 0.109724 0.255553 -0.254292

loop_
_geom_bond_atom_site_label_1
_geom_bond_atom_site_label_2
_geom_bond_distance
_ccdc_geom_bond_type
Cu2   N2    2.027784 S    
O4    Cu2   1.916743 S    
Cu1   O7    1.916743 S    
C11   C12   1.396116 A    
H6    C31   1.084679 S    
C17   C18   1.390618 A    
C28   C32   1.405882 A    
N1    C34   1.374735 A    
C14   C16   1.421168 A    
C29   C30   1.408299 A    
C25   I4    2.152796 S    
Cu2   O8    1.916477 S    
C11   C22   1.404601 A    
C33   H8    1.077687 S    
C21   I1    2.122469 S    
Cu1   N1    2.039800 S    
C7    C8    1.199537 T    
C13   C14   1.414520 A    
Cu1   Cu2   2.706517 S    
C24   N2    1.388791 A    
H1    C18   1.084710 S    
C27   C28   1.438546 A    
C26   C27   1.406918 A    
N3    O10   1.301736 A    
C23   H7    1.084370 S    
C14   C15   1.419442 A    
C18   C19   1.389690 A    
C10   C20   1.403920 A    
C25   C26   1.394252 A    
O3    Cu1   1.916478 S    
C28   N2    1.388846 A    
O3    C2    1.300363 A    
C16   C17   1.412114 A    
C9    H2    1.084072 S    
O8    C4    1.301158 A    
C3    C10   1.478040 S    
O2    C1    1.302848 A    
Cu1   O5    1.944283 S    
C27   C29   1.435059 A    
C15   C22   1.424288 A    
C9    C21   1.395740 A    
O4    C2    1.300189 A    
O7    C4    1.299448 A    
C23   C34   1.388688 A    
C24   C25   1.412912 A    
C15   C19   1.419420 A    
C5    C6    1.199647 T    
C9    C17   1.398583 A    
C20   H3    1.077457 S    
C19   I5    2.122282 S    
C16   C20   1.398720 A    
C12   C13   1.396789 A    
C24   I2    2.152132 S    
Cu2   O6    1.957692 S    
C11   H4    1.080884 S    
C34   I6    2.122420 S    
C31   C32   1.384808 A    
C10   C21   1.415166 A    
O5    C3    1.306852 A    
C30   C31   1.390466 A    
C29   C33   1.426892 A    
C12   N3    1.439962 S    
C1    C22   1.481764 S    
C13   H5    1.077791 S    
C2    C5    1.424729 S    
O1    Cu1   1.957693 S    
C23   C30   1.389366 A    
C4    C8    1.424779 S    
N1    C33   1.368835 A    
O2    Cu2   1.944283 S    
C32   H9    1.063803 S    
C6    C7    1.402338 S    
C26   I3    2.159133 S    
N3    O9    1.301614 A    
O1    C1    1.312059 A    
O6    C3    1.307094 A    
