data_mof_unit_61186.cif
_audit_creation_date              2012-12-11T14:23:00-0500
_audit_creation_method            fapswitch 2.2
_symmetry_space_group_name_H-M    P1
_symmetry_Int_Tables_number       1
_space_group_crystal_system       triclinic
_cell_length_a                    16.911929
_cell_length_b                    6.958133
_cell_length_c                    15.327311
_cell_angle_alpha                 90.069161
_cell_angle_beta                  93.582461
_cell_angle_gamma                 90.098821
_cell_volume                      1800.11949482

loop_
_atom_site_label
_atom_site_type_symbol
_atom_type_description
_atom_site_fract_x
_atom_site_fract_y
_atom_site_fract_z
_atom_type_partial_charge
O1    O     O_R   0.414560 0.494300 0.417030 -0.528656
O2    O     O_R   0.585440 0.994300 0.582970 -0.530588
O3    O     O_R   0.577160 0.822630 0.413790 -0.540939
O4    O     O_R   0.422840 0.322630 0.586210 -0.533133
C1    C     C_R   0.604205 0.655246 0.393247 0.712058
C2    C     C_R   0.395770 0.155182 0.606723 0.753368
O5    O     O_R   0.414660 0.823920 0.406630 -0.543637
O6    O     O_R   0.585340 0.323920 0.593370 -0.542491
O7    O     O_R   0.421790 0.995650 0.575760 -0.532174
O8    O     O_R   0.578210 0.495650 0.424240 -0.539262
C3    C     C_R   0.385823 0.654976 0.386814 0.722926
C4    C     C_R   0.611163 0.154781 0.617009 0.707127
O9    O     O_3   0.502530 0.661260 0.555500 -0.361918
O10   O     O_3   0.497470 0.161260 0.444500 -0.372922
V1    V     V_3+5 0.499530 0.935570 0.489700 1.491049
V2    V     V_3+5 0.500470 0.435570 0.510300 1.501772
C5    C     C_2   0.780799 0.272179 0.788285 0.223349
C6    C     C_2   0.230192 0.768566 0.198652 0.209593
C7    C     C_2   0.824964 0.116159 0.811754 -0.313357
C8    C     C_2   0.186178 0.612330 0.174394 -0.297113
H1    H     H_    0.816615 0.985866 0.773088 0.158432
H2    H     H_    0.206318 0.473193 0.197962 0.180367
C9    C     C_2   0.725829 0.269502 0.709043 -0.201808
C10   C     C_2   0.302965 0.753883 0.258013 -0.182870
C11   C     C_2   0.666756 0.141034 0.694660 0.016495
C12   C     C_2   0.312084 0.644049 0.330524 0.006768
H3    H     H_    0.732024 0.385240 0.662419 0.133544
H4    H     H_    0.351607 0.847959 0.242856 0.138740
C13   C     C_1   0.166457 0.119266 0.831410 -0.172623
C14   C     C_1   0.833522 0.619099 0.168559 -0.165526
C15   C     C_1   0.218960 0.127527 0.780157 0.027282
C16   C     C_1   0.781006 0.627435 0.219792 0.026795
C17   C     C_1   0.280915 0.137416 0.719975 0.034210
C18   C     C_1   0.719044 0.637476 0.279961 0.020049
C19   C     C_1   0.333398 0.145698 0.668698 -0.156707
C20   C     C_1   0.666567 0.645842 0.331244 -0.184211
O11   O     O_R   0.921850 0.770730 0.075840 -0.532651
O12   O     O_R   0.078150 0.270730 0.924160 -0.536451
O13   O     O_R   0.085350 0.439650 0.093390 -0.531916
O14   O     O_R   0.914650 0.939650 0.906610 -0.533168
C21   C     C_R   0.115086 0.608611 0.112595 0.770991
C22   C     C_R   0.887048 0.108829 0.884452 0.770250
O15   O     O_R   0.922860 0.441090 0.086230 -0.535830
O16   O     O_R   0.077140 0.941090 0.913770 -0.538893
O17   O     O_R   0.914540 0.269530 0.917020 -0.527218
O18   O     O_R   0.085460 0.769530 0.082980 -0.523770
C23   C     C_R   0.895954 0.609771 0.106654 0.747596
C24   C     C_R   0.104043 0.109844 0.893335 0.731915
O19   O     O_3   0.997510 0.602520 0.944550 -0.368881
O20   O     O_3   0.002490 0.102520 0.055450 -0.360813
V3    V     V_3+5 0.000460 0.328160 0.010290 1.521690
V4    V     V_3+5 0.999540 0.828160 0.989710 1.517847
I1    I     I_    0.787112 0.540453 0.854671 -0.335740
I2    I     I_    0.213217 0.046766 0.143451 -0.382196
I3    I     I_    0.636342 0.935172 0.789444 -0.334765
I4    I     I_    0.220532 0.476348 0.382917 -0.381984

loop_
_geom_bond_atom_site_label_1
_geom_bond_atom_site_label_2
_ccdc_geom_bond_type
O4    V2    S    
O13   V3    S    
C21   O18   A    
C15   C17   S    
C9    H3    S    
O11   C23   A    
O20   V4    S    
O1    C3    A    
C7    C22   S    
C8    H2    S    
C4    C11   S    
O6    C4    A    
O19   V4    S    
O2    C4    A    
O16   V4    S    
C2    O7    A    
O5    V1    S    
O20   V3    S    
O7    V1    S    
O3    V1    S    
C1    O8    A    
C13   C15   T    
O1    V2    S    
O8    V2    S    
C11   I3    S    
O18   V4    S    
C14   C16   T    
O2    V1    S    
O15   V3    S    
C5    C9    S    
O15   C23   A    
C6    C10   S    
O14   C22   A    
C7    H1    S    
C10   C12   D    
O5    C3    A    
C18   C20   T    
C9    C11   D    
O9    V1    S    
C17   C19   T    
O10   V2    S    
O19   V3    S    
C6    I2    S    
C13   C24   S    
C1    C20   S    
C5    I1    S    
C14   C23   S    
O16   C24   A    
C2    C19   S    
O13   C21   A    
C6    C8    D    
O4    C2    A    
O6    V2    S    
O9    V2    S    
O11   V4    S    
O17   V3    S    
O10   V1    S    
O12   V3    S    
C3    C12   S    
C5    C7    D    
C16   C18   S    
O14   V4    S    
O12   C24   A    
C10   H4    S    
C8    C21   S    
O3    C1    A    
C22   O17   A    
C12   I4    S    
