data_mof_unit_32397.cif
_audit_creation_date              2012-12-11T14:50:42-0500
_audit_creation_method            fapswitch 2.2
_symmetry_space_group_name_H-M    P1
_symmetry_Int_Tables_number       1
_space_group_crystal_system       triclinic
_cell_length_a                    20.670238
_cell_length_b                    7.189869
_cell_length_c                    20.366366
_cell_angle_alpha                 89.305027
_cell_angle_beta                  101.784804
_cell_angle_gamma                 90.826903
_cell_volume                      2962.53552683

loop_
_atom_site_label
_atom_site_type_symbol
_atom_type_description
_atom_site_fract_x
_atom_site_fract_y
_atom_site_fract_z
_atom_type_partial_charge
O1    O     O_R   0.423690 0.494470 0.435930 -0.536908
O2    O     O_R   0.576310 0.994470 0.564070 -0.534971
O3    O     O_R   0.556070 0.822310 0.435760 -0.519949
O4    O     O_R   0.443930 0.322310 0.564240 -0.518258
C1    C     C_R   0.575592 0.657019 0.420988 0.719120
C2    C     C_R   0.424596 0.153764 0.579039 0.716003
O5    O     O_R   0.422940 0.824080 0.428040 -0.516967
O6    O     O_R   0.577060 0.324080 0.571960 -0.517085
O7    O     O_R   0.442240 0.995960 0.556300 -0.535307
O8    O     O_R   0.557760 0.495960 0.443700 -0.533632
C3    C     C_R   0.399606 0.655046 0.410082 0.780486
C4    C     C_R   0.600482 0.155417 0.589802 0.777259
O9    O     O_3   0.506490 0.661310 0.542090 -0.371609
O10   O     O_3   0.493510 0.161310 0.457910 -0.372680
V1    V     V_3+5 0.498800 0.935560 0.492190 1.637693
V2    V     V_3+5 0.501200 0.435560 0.507810 1.634564
C5    C     C_R   0.836402 0.092819 0.860453 -0.087458
C6    C     C_R   0.163498 0.594088 0.139638 -0.087056
C7    C     C_R   0.661639 0.143906 0.642941 -0.229147
C8    C     C_R   0.338526 0.643107 0.356884 -0.232130
C9    C     C_R   0.776777 0.046281 0.674932 0.254127
C10   C     C_R   0.221992 0.551532 0.325664 0.252388
C11   C     C_R   0.720343 0.084868 0.625221 0.227679
C12   C     C_R   0.278901 0.588840 0.375076 0.227935
C13   C     C_R   0.660388 0.173945 0.711358 -0.106131
C14   C     C_R   0.340388 0.670545 0.288231 -0.107243
C15   C     C_R   0.720144 0.160393 0.761233 0.001955
C16   C     C_R   0.280521 0.658841 0.238370 0.002117
C17   C     C_R   0.776948 0.081446 0.743200 0.023942
C18   C     C_R   0.222502 0.583970 0.257073 0.022798
C19   C     C_R   0.833566 0.043579 0.793713 -0.133983
C20   C     C_R   0.165446 0.547395 0.206845 -0.135411
C21   C     C_R   0.782851 0.183812 0.877059 -0.157215
C22   C     C_R   0.218317 0.681787 0.122226 -0.160257
C23   C     C_R   0.725702 0.222580 0.828668 -0.007123
C24   C     C_R   0.275964 0.719112 0.170344 -0.007842
H1    H     H_    0.877066 0.982008 0.781702 0.163372
H2    H     H_    0.121055 0.488382 0.219346 0.162468
H3    H     H_    0.787185 0.233728 0.927864 0.161635
H4    H     H_    0.214760 0.729958 0.070922 0.163767
C25   C     C_3   0.242265 0.308819 0.792760 0.057696
C26   C     C_3   0.762362 0.799374 0.203662 0.056263
C27   C     C_3   0.259317 0.957370 0.809746 -0.347623
C28   C     C_3   0.736282 0.451489 0.192716 -0.343713
C29   C     C_3   0.307826 0.962300 0.759604 0.035905
C30   C     C_3   0.687987 0.469740 0.242916 0.026653
H5    H     H_    0.230782 0.824346 0.798728 0.160116
H6    H     H_    0.761053 0.315251 0.205545 0.172578
H7    H     H_    0.297787 0.835792 0.731161 0.200312
H8    H     H_    0.693081 0.343961 0.273479 0.213005
C31   C     C_1   0.378886 0.139701 0.624157 -0.002997
C32   C     C_1   0.621484 0.652220 0.375874 -0.011201
C33   C     C_3   0.206713 0.115462 0.791661 -0.077836
C34   C     C_3   0.793041 0.602155 0.208446 -0.085361
C35   C     C_3   0.294367 0.309307 0.746047 0.416886
C36   C     C_3   0.711570 0.815472 0.251203 0.422227
C37   C     C_3   0.290287 0.121954 0.705824 -0.086851
C38   C     C_3   0.710009 0.631634 0.294316 -0.076582
C39   C     C_3   0.215189 0.082150 0.664169 -0.258285
C40   C     C_3   0.783756 0.584228 0.336702 -0.257801
C41   C     C_3   0.167474 0.079493 0.717769 -0.306449
C42   C     C_3   0.831124 0.567227 0.283207 -0.299643
C43   C     C_1   0.339632 0.128349 0.661057 0.223111
C44   C     C_1   0.660779 0.645725 0.338966 0.219748
C45   C     C_1   0.159583 0.106401 0.838558 0.051962
C46   C     C_1   0.840154 0.587924 0.161687 0.053576
C47   C     C_1   0.121149 0.094960 0.876231 -0.085783
C48   C     C_1   0.878639 0.582396 0.123964 -0.084022
H9    H     H_    0.147746 0.935756 0.720766 0.192952
H10   H     H_    0.846593 0.419472 0.283173 0.190559
H11   H     H_    0.204480 0.413181 0.773109 0.180100
H12   H     H_    0.803516 0.898662 0.220193 0.184652
O11   O     O_R   0.942280 0.741210 0.056360 -0.529338
O12   O     O_R   0.057720 0.241210 0.943640 -0.531005
O13   O     O_R   0.077070 0.409690 0.071960 -0.533365
O14   O     O_R   0.922930 0.909690 0.928040 -0.534176
C49   C     C_R   0.101308 0.579108 0.088729 0.701367
C50   C     C_R   0.898647 0.078575 0.911336 0.702021
O15   O     O_R   0.943940 0.411580 0.064250 -0.535629
O16   O     O_R   0.056060 0.911580 0.935750 -0.534103
O17   O     O_R   0.923670 0.239840 0.935920 -0.536401
O18   O     O_R   0.076330 0.739840 0.064080 -0.536743
C51   C     C_R   0.924264 0.578319 0.078605 0.714261
C52   C     C_R   0.075630 0.081519 0.921478 0.715700
O19   O     O_3   0.993540 0.572620 0.957940 -0.373998
O20   O     O_3   0.006460 0.072620 0.042060 -0.373985
V3    V     V_3+5 0.001200 0.298330 0.007800 1.507646
V4    V     V_3+5 0.998800 0.798330 0.992200 1.506016
C53   C     C_2   0.289563 0.937564 0.884804 1.063529
O21   O     O_2   0.262755 0.831712 0.918595 -0.493944
O22   O     O_R   0.345273 0.036083 0.917693 -0.556127
H13   H     H_    0.363407 0.127510 0.888264 0.361874
C54   C     C_2   0.705368 0.431257 0.117967 1.070333
O23   O     O_2   0.729940 0.321588 0.085157 -0.484817
O24   O     O_R   0.651538 0.533586 0.084197 -0.555748
H14   H     H_    0.636174 0.631009 0.112271 0.362188
Br1   Br    Br    0.401744 0.913191 0.795660 -0.319738
Br2   Br    Br    0.592757 0.435593 0.207265 -0.336169
C55   C     C_2   0.105123 0.196757 0.699528 0.887508
O25   O     O_2   0.050870 0.120459 0.692503 -0.507352
O26   O     O_R   0.108974 0.389364 0.690219 -0.652814
H15   H     H_    0.063906 0.449026 0.678166 0.335666
C56   C     C_2   0.896540 0.675150 0.299828 0.895158
O27   O     O_2   0.948574 0.590374 0.308933 -0.504818
O28   O     O_R   0.897940 0.869003 0.305184 -0.648508
H16   H     H_    0.944549 0.922058 0.316521 0.334472
C57   C     C_2   0.192088 0.211035 0.603029 0.905047
O29   O     O_2   0.232116 0.275528 0.572034 -0.493914
O30   O     O_R   0.124877 0.223435 0.573516 -0.625868
H17   H     H_    0.116434 0.303418 0.531345 0.348491
C58   C     C_2   0.809824 0.715484 0.395819 0.907139
O31   O     O_2   0.771261 0.788654 0.425511 -0.498969
O32   O     O_R   0.877276 0.723128 0.425010 -0.619019
H18   H     H_    0.887475 0.806218 0.465802 0.346938
Br3   Br    Br    0.277930 0.513763 0.684325 -0.488543
Br4   Br    Br    0.738703 0.023064 0.307949 -0.515445
C59   C     C_2   0.209839 0.896001 0.627393 0.842792
O33   O     O_2   0.250991 0.856989 0.594387 -0.496363
O34   O     O_R   0.154094 0.780331 0.623719 -0.624990
H19   H     H_    0.154586 0.668702 0.593879 0.362235
C60   C     C_2   0.785400 0.402352 0.376687 0.846086
O35   O     O_2   0.738086 0.353810 0.400680 -0.506834
O36   O     O_R   0.844527 0.303677 0.394135 -0.612534
H20   H     H_    0.840910 0.192598 0.424392 0.365720
Br5   Br    Br    0.854183 0.950643 0.647701 -0.396480
Br6   Br    Br    0.143080 0.461850 0.353698 -0.393796
C61   C     C_2   0.678358 0.352331 0.849004 0.853688
O37   O     O_2   0.661964 0.331092 0.903049 -0.466071
O38   O     O_R   0.654991 0.504071 0.807767 -0.647868
H21   H     H_    0.623637 0.583623 0.827342 0.352812
C62   C     C_2   0.325245 0.845477 0.148842 0.856920
O39   O     O_2   0.341341 0.821629 0.095028 -0.465007
O40   O     O_R   0.350861 0.997116 0.188663 -0.646047
H22   H     H_    0.383423 0.074200 0.168387 0.355434
Br7   Br    Br    0.722641 0.053590 0.531701 -0.356560
Br8   Br    Br    0.275978 0.563095 0.468861 -0.341568
C63   C     C_2   0.595120 0.189952 0.730748 0.803228
O41   O     O_2   0.580681 0.084067 0.773120 -0.499094
O42   O     O_R   0.550348 0.325021 0.700760 -0.642861
H23   H     H_    0.507846 0.321267 0.718301 0.331415
C64   C     C_2   0.405953 0.683171 0.268955 0.805298
O43   O     O_2   0.419003 0.576119 0.227412 -0.498577
O44   O     O_R   0.452592 0.816406 0.298144 -0.644780
H24   H     H_    0.494989 0.810985 0.280539 0.329945
Br9   Br    Br    0.384734 0.373066 0.792638 -0.334520
Br10  Br    Br    0.623053 0.893947 0.205397 -0.341386
Br11  Br    Br    0.272461 0.408879 0.883075 -0.394032
Br12  Br    Br    0.733752 0.894026 0.111711 -0.396123

loop_
_geom_bond_atom_site_label_1
_geom_bond_atom_site_label_2
_ccdc_geom_bond_type
C46   C48   T    
O26   H15   S    
C15   C17   A    
C13   C63   S    
O24   H14   S    
O1    C3    A    
O16   C52   A    
O2    C4    A    
C2    O7    A    
O15   V3    S    
O36   H20   S    
C62   O40   S    
O5    C3    A    
C63   O42   S    
C29   C37   S    
C54   O23   D    
C35   Br3   S    
C22   H4    S    
O14   C50   A    
C42   C56   S    
C64   O44   S    
O20   V4    S    
C37   C39   S    
C35   Br9   S    
C38   C40   S    
O44   H24   S    
C42   H10   S    
C40   C42   S    
C25   C35   S    
C28   C54   S    
C26   C36   S    
C33   C41   S    
C27   C33   S    
C8    C12   A    
C36   Br10  S    
C45   C47   T    
C57   O29   D    
C1    C32   S    
C20   H2    S    
O12   V3    S    
C53   O22   S    
C14   C64   S    
C33   C45   S    
O14   V4    S    
O18   V4    S    
C25   H11   S    
C12   Br8   S    
O5    V1    S    
C30   Br2   S    
C26   Br12  S    
C47   C52   S    
O6    V2    S    
C30   C38   S    
C17   C19   A    
C57   O30   S    
C41   C55   S    
C64   O43   D    
C5    C21   A    
C28   C30   S    
C37   C43   S    
O19   V3    S    
C9    C11   A    
C38   C44   S    
C3    C8    S    
C39   C41   S    
C31   C43   T    
O4    C2    A    
C32   C44   T    
C24   C62   S    
O22   H13   S    
O20   V3    S    
C34   C42   S    
C15   C23   A    
C9    C17   A    
C39   C57   S    
C19   H1    S    
O4    V2    S    
C7    C11   A    
C61   O38   S    
O11   V4    S    
C21   H3    S    
C55   O25   D    
C25   Br11  S    
C29   H7    S    
O6    C4    A    
C26   H12   S    
C36   Br4   S    
C58   O32   S    
O1    V2    S    
C27   C53   S    
O34   H19   S    
C23   C61   S    
O2    V1    S    
O13   C49   A    
C25   C33   S    
C60   O35   D    
O17   V3    S    
O13   V3    S    
C55   O26   S    
C35   C37   S    
O40   H22   S    
C2    C31   S    
C56   O28   S    
C10   C12   A    
C6    C20   A    
C39   C59   S    
C9    Br5   S    
C61   O37   D    
O3    V1    S    
O32   H18   S    
O28   H16   S    
O19   V4    S    
C41   H9    S    
C10   C18   A    
C58   O31   D    
C48   C51   S    
O12   C52   A    
O3    C1    A    
C62   O39   D    
O42   H23   S    
C34   C46   S    
C13   C15   A    
C63   O41   D    
C30   H8    S    
C14   C16   A    
C11   Br7   S    
C59   O34   S    
O38   H21   S    
C1    O8    A    
O16   V4    S    
C40   C58   S    
O8    V2    S    
C59   O33   D    
C26   C34   S    
C18   C20   A    
C50   O17   A    
C8    C14   A    
C49   O18   A    
C6    C22   A    
C6    C49   S    
C5    C19   A    
C4    C7    S    
C16   C18   A    
C5    C50   S    
C21   C23   A    
C36   C38   S    
C22   C24   A    
O7    V1    S    
C40   C60   S    
C7    C13   A    
C60   O36   S    
C10   Br6   S    
O15   C51   A    
C28   C34   S    
C16   C24   A    
C54   O24   S    
O9    V2    S    
C56   O27   D    
O10   V1    S    
C29   Br1   S    
C53   O21   D    
O30   H17   S    
C27   H5    S    
C27   C29   S    
O11   C51   A    
C28   H6    S    
