data_mof_unit_10149.cif
_audit_creation_date              2012-12-11T17:08:29-0500
_audit_creation_method            fapswitch 2.2
_symmetry_space_group_name_H-M    P1
_symmetry_Int_Tables_number       1
_space_group_crystal_system       triclinic
_cell_length_a                    6.967121
_cell_length_b                    14.515609
_cell_length_c                    16.087725
_cell_angle_alpha                 89.994546
_cell_angle_beta                  90.025736
_cell_angle_gamma                 90.011669
_cell_volume                      1626.98366851

loop_
_atom_site_label
_atom_site_type_symbol
_atom_type_description
_atom_site_fract_x
_atom_site_fract_y
_atom_site_fract_z
_atom_type_partial_charge
O1    O     O_R   0.505700 0.583890 0.413310 -0.536744
O2    O     O_R   0.175960 0.594920 0.586080 -0.543308
O3    O     O_R   0.005660 0.416110 0.586690 -0.536589
C1    C     C_R   0.344763 0.616884 0.614839 0.696736
O4    O     O_R   0.175980 0.594920 0.413930 -0.542616
O5    O     O_R   0.005680 0.416110 0.413310 -0.540251
C2    C     C_R   0.344699 0.616931 0.385188 0.696565
O6    O     O_R   0.505680 0.583890 0.586690 -0.536322
O7    O     O_3   0.339200 0.441330 0.500000 -0.370921
V1    V     V_3+5 0.064350 0.510880 0.500000 1.387846
O8    O     O_R   0.675960 0.405080 0.413920 -0.539724
C3    C     C_R   0.844958 0.382880 0.385347 0.693040
O9    O     O_R   0.675940 0.405080 0.586070 -0.543572
C4    C     C_R   0.844682 0.383150 0.614800 0.728791
V2    V     V_3+5 0.564340 0.489120 0.500000 1.392225
O10   O     O_3   0.839360 0.558670 0.500000 -0.371665
C5    C     C_R   0.996890 0.321613 0.745368 0.094039
C6    C     C_R   0.852175 0.317183 0.684987 -0.182645
C7    C     C_R   0.707982 0.250151 0.695880 -0.260792
H1    H     H_    0.591389 0.244979 0.651633 0.151586
C8    C     C_R   0.720320 0.184514 0.760312 0.593722
C9    C     C_R   0.875243 0.185742 0.817197 -0.217445
C10   C     C_R   0.007529 0.258007 0.809997 -0.004049
C11   C     C_3   0.221245 0.255321 0.806246 -0.351092
C12   C     C_3   0.209662 0.324925 0.735790 -0.378185
H2    H     H_    0.274645 0.186847 0.786270 0.239391
H3    H     H_    0.288763 0.283465 0.863474 0.164287
H4    H     H_    0.258297 0.296999 0.675014 0.179985
H5    H     H_    0.269669 0.393432 0.752505 0.158128
C13   C     C_R   0.725555 0.247438 0.189563 0.100772
C14   C     C_R   0.882043 0.187554 0.181348 -0.107013
C15   C     C_R   0.034512 0.198237 0.238056 -0.177410
H6    H     H_    0.157816 0.153362 0.234407 0.131616
C16   C     C_R   0.022854 0.262131 0.303878 -0.178000
H7    H     H_    0.138648 0.265406 0.348528 0.131720
C17   C     C_R   0.857731 0.316741 0.315304 -0.108722
C18   C     C_R   0.713612 0.310358 0.254886 0.097468
C19   C     C_3   0.504145 0.293794 0.265582 -0.413970
C20   C     C_3   0.517072 0.225624 0.194155 -0.397129
H8    H     H_    0.417260 0.355824 0.250546 0.171492
H9    H     H_    0.471230 0.260701 0.326226 0.172399
H10   H     H_    0.438268 0.248398 0.137682 0.172639
H11   H     H_    0.490884 0.153082 0.213230 0.167118
C21   C     C_R   0.507270 0.682759 0.741347 0.100609
C22   C     C_R   0.352746 0.682319 0.685547 -0.111824
C23   C     C_R   0.201009 0.743967 0.701390 -0.176187
H12   H     H_    0.078376 0.746043 0.660327 0.135209
C24   C     C_R   0.212188 0.808162 0.766921 -0.161478
H13   H     H_    0.097212 0.857461 0.774518 0.132999
C25   C     C_R   0.375772 0.812897 0.818409 -0.107007
C26   C     C_R   0.518788 0.746556 0.805952 0.089738
C27   C     C_3   0.729146 0.759179 0.793925 -0.406142
C28   C     C_3   0.716729 0.689274 0.723855 -0.395772
H14   H     H_    0.813587 0.734336 0.848108 0.169320
H15   H     H_    0.764755 0.829817 0.772183 0.182080
H16   H     H_    0.793235 0.623834 0.737680 0.166285
H17   H     H_    0.745952 0.719132 0.661498 0.174024
C29   C     C_R   0.509253 0.747362 0.310379 0.105463
C30   C     C_R   0.352710 0.687488 0.318617 -0.111997
C31   C     C_R   0.200215 0.698160 0.261926 -0.179119
H18   H     H_    0.076888 0.653276 0.265592 0.131324
C32   C     C_R   0.211867 0.762061 0.196106 -0.180681
H19   H     H_    0.096053 0.765336 0.151467 0.129231
C33   C     C_R   0.377008 0.816685 0.184672 -0.106479
C34   C     C_R   0.521190 0.810293 0.245057 0.101233
C35   C     C_3   0.730613 0.793698 0.234295 -0.417137
C36   C     C_3   0.717694 0.725512 0.305719 -0.396295
H20   H     H_    0.817617 0.855711 0.249309 0.173520
H21   H     H_    0.763386 0.760618 0.173639 0.169135
H22   H     H_    0.796629 0.748253 0.362169 0.175637
H23   H     H_    0.743734 0.652971 0.286630 0.165986
O11   O     O_R   0.229000 0.916070 0.913330 -0.543809
O12   O     O_R   0.558770 0.905070 0.086080 -0.543785
O13   O     O_R   0.729000 0.083900 0.086690 -0.541108
C37   C     C_R   0.389770 0.882843 0.114649 0.678166
O14   O     O_R   0.558720 0.905070 0.913930 -0.533332
O15   O     O_R   0.728960 0.083900 0.913310 -0.503959
C38   C     C_R   0.389654 0.883161 0.885091 0.736370
O16   O     O_R   0.229050 0.916070 0.086710 -0.543421
O17   O     O_3   0.395460 0.058650 0.000020 -0.364471
V3    V     V_3+5 0.670340 0.989120 0.000000 1.443822
O18   O     O_R   0.058670 0.094960 0.913900 -0.542437
C39   C     C_R   0.889601 0.116324 0.884650 0.760986
O19   O     O_R   0.058720 0.094960 0.086050 -0.546112
C40   C     C_R   0.890017 0.116974 0.114792 0.680890
V4    V     V_3+5 0.170330 0.010930 0.999970 1.418076
O20   O     O_3   0.895340 0.941350 0.999980 -0.379290
F1    F     F_    0.589285 0.115410 0.762632 -0.711661

loop_
_geom_bond_atom_site_label_1
_geom_bond_atom_site_label_2
_ccdc_geom_bond_type
C35   H20   S    
C14   C40   S    
C4    C6    S    
C7    H1    S    
C11   H3    S    
C1    O6    A    
C22   C23   A    
C21   C22   A    
C12   H4    S    
C32   H19   S    
O14   C38   A    
C17   C18   A    
C7    C8    A    
O19   V4    S    
C16   H7    S    
O5    C3    A    
C19   C20   S    
C35   H21   S    
O15   C39   A    
V2    O10   S    
C31   C32   A    
C6    C7    A    
O12   V3    S    
C32   C33   A    
O8    V2    S    
C21   C28   S    
O17   V4    S    
C10   C11   S    
O1    V2    S    
C3    C17   S    
O7    V1    S    
C36   H23   S    
C27   H15   S    
C24   C25   A    
C35   C36   S    
C8    F1    S    
C30   C31   A    
C8    C9    A    
O12   C37   A    
C25   C38   S    
C2    C30   S    
C27   H14   S    
C25   C26   A    
C20   H10   S    
C1    C22   S    
C12   H5    S    
C23   C24   A    
C26   C27   S    
C11   C12   S    
C19   H9    S    
O4    C2    A    
C28   H17   S    
V4    O20   S    
C20   H11   S    
C29   C30   A    
O18   V4    S    
C13   C18   A    
C31   H18   S    
C15   C16   A    
O2    C1    A    
C18   C19   S    
C29   C34   A    
C14   C15   A    
O15   V3    S    
C5    C6    A    
C5    C10   A    
O19   C40   A    
V3    O20   S    
O3    C4    A    
C21   C26   A    
C24   H13   S    
C34   C35   S    
O6    V2    S    
O9    V2    S    
O13   V3    S    
O2    V1    S    
C27   C28   S    
C28   H16   S    
C23   H12   S    
O1    C2    A    
C11   H2    S    
O17   V3    S    
O14   V3    S    
O5    V1    S    
O11   V4    S    
O8    C3    A    
C36   H22   S    
C5    C12   S    
C9    C39   S    
O7    V2    S    
O4    V1    S    
O3    V1    S    
V1    O10   S    
C15   H6    S    
C19   H8    S    
C13   C14   A    
C33   C34   A    
C33   C37   S    
C13   C20   S    
C16   C17   A    
O13   C40   A    
C29   C36   S    
O18   C39   A    
O11   C38   A    
C9    C10   A    
O9    C4    A    
C37   O16   A    
O16   V4    S    
