data_mof_unit_14197.cif
_audit_creation_date              2013-03-05T16:35:54-0500
_audit_creation_method            fapswitch 2.2
_symmetry_space_group_name_H-M    P1
_symmetry_Int_Tables_number       1
_space_group_crystal_system       triclinic
_cell_length_a                    23.611567
_cell_length_b                    9.089319
_cell_length_c                    7.772779
_cell_angle_alpha                 90.656083
_cell_angle_beta                  90.11318
_cell_angle_gamma                 89.26786
_cell_volume                      1667.89158835

loop_
_atom_site_label
_atom_site_type_symbol
_atom_site_description
_atom_site_fract_x
_atom_site_fract_y
_atom_site_fract_z
_atom_type_partial_charge
O1    O     O_R   0.500000 0.288390 0.642760 -0.575751
O2    O     O_R   0.500000 0.711610 0.357240 -0.576596
O3    O     O_R   0.500000 0.711610 0.642760 -0.576632
O4    O     O_R   0.500000 0.288390 0.357240 -0.577381
C1    C     C_R   0.500029 0.219972 0.499397 0.839254
C2    C     C_R   0.499951 0.780028 0.500600 0.838416
O5    O     O_R   0.417880 0.500000 0.642820 -0.581323
O6    O     O_R   0.582120 0.500000 0.357180 -0.577813
O7    O     O_R   0.582120 0.500000 0.642820 -0.580898
O8    O     O_R   0.417880 0.500000 0.357180 -0.579239
C3    C     C_R   0.208778 0.525558 0.487730 0.294307
C4    C     C_R   0.791984 0.485603 0.487130 0.261414
C5    C     C_R   0.390656 0.502803 0.499818 0.830168
C6    C     C_R   0.609407 0.497569 0.500090 0.828312
Cu1   Cu    Cu3+1 0.500000 0.500000 0.669080 0.988862
Cu2   Cu    Cu3+1 0.500000 0.500000 0.330920 0.989079
C7    C     C_R   0.299972 0.605499 0.378424 0.075198
C8    C     C_R   0.700943 0.410100 0.367205 0.079639
C9    C     C_R   0.295907 0.429355 0.616752 0.077644
C10   C     C_R   0.703935 0.563792 0.628971 0.080082
C11   C     C_R   0.327908 0.512511 0.498595 -0.132561
C12   C     C_R   0.672276 0.490270 0.499333 -0.137903
C13   C     C_R   0.878754 0.626923 0.489351 0.544185
C14   C     C_R   0.122534 0.404258 0.406189 0.548238
C15   C     C_R   0.885019 0.367224 0.455238 0.577403
C16   C     C_R   0.117698 0.642940 0.537789 0.539890
N1    N     N_R   0.853163 0.492958 0.476275 -0.449829
N2    N     N_R   0.147950 0.524812 0.476276 -0.444110
C17   C     C_R   0.943711 0.376143 0.426003 -0.054044
C18   C     C_R   0.057839 0.643724 0.531589 -0.100826
C19   C     C_R   0.937975 0.635046 0.510692 -0.098267
C20   C     C_R   0.062944 0.394237 0.403159 -0.069957
C21   C     C_R   0.970881 0.509306 0.467363 -0.092055
C22   C     C_R   0.030650 0.515931 0.467062 -0.072113
C23   C     C_R   0.975348 0.257682 0.355455 0.184163
C24   C     C_R   0.024105 0.765228 0.590850 0.166881
C25   C     C_R   0.964967 0.761731 0.577518 0.154315
C26   C     C_R   0.034370 0.267785 0.338895 0.102760
C27   C     C_1   0.499990 0.065360 0.499162 -0.178183
C28   C     C_1   0.499962 0.934640 0.500822 -0.178330
C29   C     C_R   0.240278 0.603958 0.365905 0.163803
C30   C     C_R   0.760280 0.421921 0.351123 0.165809
C31   C     C_R   0.236185 0.443380 0.617428 0.162952
C32   C     C_R   0.763549 0.547500 0.631820 0.183171
N3    N     N_1   0.500000 0.500000 0.076820 -0.052206
N4    N     N_1   0.500000 0.500000 0.923180 -0.052333
O9    O     O_2   0.846778 0.750544 0.481039 -0.545039
O10   O     O_2   0.155613 0.294744 0.342442 -0.560696
O11   O     O_2   0.860141 0.234843 0.464860 -0.510289
O12   O     O_2   0.146180 0.757837 0.604489 -0.562191
N5    N     N_3   0.947053 0.130918 0.286858 -0.518302
H1    H     H_    0.953752 0.126953 0.153936 0.235990
H2    H     H_    0.965708 0.036743 0.339426 0.245284
N6    N     N_3   0.048031 0.894436 0.668392 -0.540007
H3    H     H_    0.074208 0.945873 0.579995 0.253777
H4    H     H_    0.070592 0.865060 0.778885 0.259653
N7    N     N_3   0.933462 0.883333 0.650870 -0.533276
H5    H     H_    0.905223 0.843861 0.742389 0.238457
H6    H     H_    0.911236 0.938499 0.554572 0.294537
N8    N     N_3   0.063397 0.147545 0.254306 -0.595129
H7    H     H_    0.091004 0.096168 0.340503 0.266533
H8    H     H_    0.085281 0.186751 0.147775 0.264449
C33   C     C_3   0.210221 0.683559 0.220731 -0.775552
H9    H     H_    0.165224 0.652596 0.206068 0.227157
H10   H     H_    0.211528 0.804208 0.243822 0.244023
H11   H     H_    0.230918 0.655727 0.096127 0.231274
C34   C     C_3   0.789337 0.370159 0.187078 -0.787941
H12   H     H_    0.827046 0.437301 0.158576 0.224083
H13   H     H_    0.801853 0.252550 0.196602 0.273712
H14   H     H_    0.760684 0.381067 0.074843 0.221806
C35   C     C_3   0.201488 0.370833 0.756144 -0.784280
H15   H     H_    0.156719 0.408823 0.758836 0.225491
H16   H     H_    0.201768 0.249747 0.735765 0.244968
H17   H     H_    0.219250 0.397860 0.884954 0.235129
C36   C     C_3   0.796980 0.596559 0.788590 -0.814568
H18   H     H_    0.837276 0.533362 0.801525 0.223587
H19   H     H_    0.806023 0.715780 0.781811 0.259243
H20   H     H_    0.772811 0.577696 0.907836 0.228132
C37   C     C_3   0.334000 0.706637 0.264760 -0.774308
H21   H     H_    0.308638 0.799484 0.213169 0.230320
H22   H     H_    0.368581 0.758675 0.339902 0.218758
H23   H     H_    0.352098 0.643149 0.154589 0.244544
C38   C     C_3   0.668668 0.309181 0.245848 -0.774346
H24   H     H_    0.695852 0.218049 0.195551 0.234191
H25   H     H_    0.633679 0.254206 0.314212 0.223020
H26   H     H_    0.651475 0.372918 0.136028 0.239737
C39   C     C_3   0.325747 0.324594 0.739297 -0.774762
H27   H     H_    0.297214 0.244277 0.799029 0.232499
H28   H     H_    0.358020 0.257567 0.668873 0.220604
H29   H     H_    0.346371 0.388076 0.844392 0.244659
C40   C     C_3   0.674415 0.662700 0.760680 -0.771958
H30   H     H_    0.703331 0.743263 0.821328 0.234451
H31   H     H_    0.641012 0.730495 0.697857 0.224913
H32   H     H_    0.655475 0.595016 0.863167 0.240071

loop_
_geom_bond_atom_site_label_1
_geom_bond_atom_site_label_2
_geom_bond_distance
_ccdc_geom_bond_type
C39   H27   1.106327 S    
C33   H10   1.109988 S    
O7    C6    1.283852 A    
O3    C2    1.274135 A    
N3    N4    1.194211 T    
O1    C1    1.269872 A    
C24   C25   1.400722 A    
C9    C11   1.420886 A    
C9    C39   1.520314 S    
C8    C30   1.412429 A    
N7    H6    1.042795 S    
Cu1   Cu2   2.628444 S    
C17   C21   1.410671 A    
C7    C37   1.520338 S    
N8    H8    1.045368 S    
C4    C30   1.416656 A    
C35   H17   1.110858 S    
C31   C35   1.517259 S    
C19   C21   1.411669 A    
C3    C31   1.412544 A    
O1    Cu1   1.931910 S    
C20   C26   1.425157 A    
O2    Cu2   1.931909 S    
O5    Cu1   1.949297 S    
C33   H11   1.110835 S    
O6    Cu2   1.949295 S    
O2    C2    1.269852 A    
C10   C32   1.413617 A    
C9    C31   1.414270 A    
C21   C22   1.413300 A    
C15   O11   1.348615 S    
C15   C17   1.408249 A    
C10   C40   1.519152 S    
N6    H4    1.045216 S    
C13   O9    1.347781 S    
C18   C22   1.420334 A    
C4    N1    1.449598 S    
N5    H1    1.045661 S    
C14   O10   1.347876 S    
C23   C26   1.404044 A    
C37   H21   1.107011 S    
C40   H30   1.108233 S    
C35   H16   1.110078 S    
C7    C11   1.422436 A    
C34   H12   1.109960 S    
N8    H7    1.043802 S    
C34   H13   1.108698 S    
C13   C19   1.410552 A    
O4    Cu2   1.936569 S    
C32   C36   1.516410 S    
C36   H18   1.110100 S    
C14   C20   1.411243 A    
C40   H31   1.110485 S    
C38   H24   1.109476 S    
C8    C38   1.518921 S    
C5    C11   1.483103 S    
C36   H19   1.109014 S    
C26   N8    1.436183 S    
C38   H25   1.110382 S    
C10   C12   1.419549 A    
C16   C18   1.414028 A    
C13   N1    1.368880 A    
C1    C27   1.405314 S    
C23   N5    1.436110 S    
C30   C34   1.516367 S    
C2    C28   1.405303 S    
C29   C33   1.517512 S    
C27   C28   1.188375 T    
O3    Cu1   1.936568 S    
C37   H22   1.110497 S    
N6    H3    1.043616 S    
O6    C6    1.283302 A    
C8    C12   1.420169 A    
C14   N2    1.363619 A    
O4    C1    1.274117 A    
O8    C5    1.282491 A    
Cu2   N3    1.975062 S    
C37   H23   1.110295 S    
C15   N1    1.368518 A    
C17   C23   1.409118 A    
C16   N2    1.364426 A    
C18   C24   1.426037 A    
C34   H14   1.107477 S    
C6    C12   1.485088 S    
C16   O12   1.347544 S    
O7    Cu1   1.950097 S    
C35   H15   1.108002 S    
C4    C32   1.418073 A    
O8    Cu2   1.950099 S    
C40   H32   1.110280 S    
N7    H5    1.045544 S    
C3    N2    1.438926 S    
C3    C29   1.410466 A    
C36   H20   1.105619 S    
C7    C29   1.412869 A    
C24   N6    1.435642 S    
C33   H9    1.107881 S    
C19   C25   1.416207 A    
O5    C5    1.283247 A    
C38   H26   1.110401 S    
C39   H29   1.110036 S    
C39   H28   1.110683 S    
Cu1   N4    1.975062 S    
N5    H2    1.044671 S    
C25   N7    1.437459 S    
C20   C22   1.420920 A    
