data_mof_unit_19041.cif
_audit_creation_date              2012-12-10T16:52:02-0500
_audit_creation_method            fapswitch 2.2
_symmetry_space_group_name_H-M    P1
_symmetry_Int_Tables_number       1
_space_group_crystal_system       triclinic
_cell_length_a                    7.842864
_cell_length_b                    8.576843
_cell_length_c                    14.85986
_cell_angle_alpha                 92.834238
_cell_angle_beta                  86.046626
_cell_angle_gamma                 93.261263
_cell_volume                      994.544431767

loop_
_atom_site_label
_atom_site_type_symbol
_atom_type_description
_atom_site_fract_x
_atom_site_fract_y
_atom_site_fract_z
_atom_type_partial_charge
C1    C     C_R   0.545113 0.794281 0.497840 0.947237
C2    C     C_R   0.541785 0.645884 0.816157 -0.002818
C3    C     C_R   0.487916 0.495158 0.231678 -0.073470
C4    C     C_R   0.504020 0.505499 0.768169 -0.086757
C5    C     C_R   0.554454 0.627198 0.188641 0.020963
C6    C     C_R   0.436231 0.372479 0.809802 0.031384
C7    C     C_R   0.523979 0.642561 0.097910 -0.020488
C8    C     C_R   0.400056 0.379533 0.903567 -0.072768
C9    C     C_R   0.453141 0.510405 0.048833 -0.073993
C10   C     C_R   0.457355 0.513527 0.954442 -0.080274
C11   C     C_R   0.382271 0.374873 0.093564 0.004499
C12   C     C_R   0.454892 0.205722 0.502205 0.974785
C13   C     C_R   0.516986 0.651432 0.910721 0.054030
C14   C     C_R   0.557280 0.786874 0.056090 0.443599
C15   C     C_R   0.303705 0.259485 0.947479 0.461113
C16   C     C_3   0.711015 0.024580 0.083093 0.101939
C17   C     C_3   0.768240 0.122234 0.165284 -0.893429
C18   C     C_3   0.046448 0.206496 0.888202 0.091925
C19   C     C_3   0.946884 0.092461 0.827198 -0.857587
C20   C     C_R   0.539451 0.792151 0.963119 -0.010802
C21   C     C_R   0.300835 0.251711 0.040818 0.019811
C22   C     C_2   0.568926 0.957592 0.496424 -0.381443
C23   C     C_2   0.431095 0.042425 0.503764 -0.379255
C24   C     C_R   0.502815 0.504494 0.672477 0.902244
C25   C     C_R   0.496710 0.494950 0.327370 0.940827
C26   C     C_R   0.393883 0.373836 0.188291 0.018877
H1    H     H_    0.699535 0.007512 0.489217 0.177807
H2    H     H_    0.287751 0.205846 0.743929 0.230004
H3    H     H_    0.671612 0.107970 0.034717 0.180500
H4    H     H_    0.821838 0.960247 0.052258 0.143423
H5    H     H_    0.842693 0.229250 0.143373 0.211748
H6    H     H_    0.656727 0.159962 0.208894 0.275618
H7    H     H_    0.847822 0.053366 0.205903 0.233452
H8    H     H_    0.059644 0.321520 0.855825 0.141653
H9    H     H_    0.971849 0.219914 0.954403 0.143012
H10   H     H_    0.923490 0.978606 0.859619 0.257075
H11   H     H_    0.823079 0.141325 0.814647 0.214157
H12   H     H_    0.300487 0.992510 0.510994 0.174802
H13   H     H_    0.019463 0.072921 0.761227 0.251109
H14   H     H_    0.408298 0.927010 0.886762 0.252121
H15   H     H_    0.621762 0.977844 0.889187 0.186870
H16   H     H_    0.110124 0.145470 0.120666 0.170079
H17   H     H_    0.295685 0.044074 0.104307 0.248906
H18   H     H_    0.990593 0.386006 0.349466 0.177733
H19   H     H_    0.980899 0.245572 0.424505 0.165100
H20   H     H_    0.005674 0.614935 0.650518 0.173347
H21   H     H_    0.020922 0.755102 0.575062 0.165664
H22   H     H_    0.364988 0.146184 0.228989 0.202530
H23   H     H_    0.181573 0.253123 0.243469 0.184527
H24   H     H_    0.526545 0.810155 0.723264 0.178766
H25   H     H_    0.726651 0.748992 0.732893 0.198336
H26   H     H_    0.768796 0.771779 0.201139 0.209969
H27   H     H_    0.584714 0.838828 0.257410 0.238191
H28   H     H_    0.468120 0.138462 0.785630 0.208590
N1    N     N_2   0.950330 0.457950 0.475660 -0.004321
N2    N     N_3   0.969032 0.642618 0.587202 -0.328289
N3    N     N_2   0.049670 0.542050 0.524340 -0.003599
N4    N     N_3   0.314327 0.254590 0.244197 -0.480374
N5    N     N_3   0.613157 0.779169 0.768894 -0.492852
N6    N     N_3   0.655631 0.741438 0.239049 -0.444426
N7    N     N_3   0.416423 0.230308 0.755011 -0.456412
N8    N     N_3   0.512417 0.939888 0.927204 -0.439443
N9    N     N_3   0.212396 0.115404 0.076626 -0.430612
N10   N     N_3   0.030703 0.358631 0.412106 -0.313968
O1    O     O_R   0.389250 0.738570 0.505970 -0.626142
O2    O     O_3   0.207834 0.147600 0.899680 -0.620700
O3    O     O_R   0.610750 0.261430 0.494030 -0.623542
O4    O     O_R   0.678390 0.711620 0.490370 -0.611577
O5    O     O_R   0.321610 0.288380 0.509630 -0.614097
O6    O     O_R   0.355420 0.513510 0.639950 -0.630939
O7    O     O_R   0.644580 0.486490 0.360050 -0.624470
O8    O     O_R   0.644560 0.486560 0.624350 -0.610518
O9    O     O_R   0.355440 0.513440 0.375650 -0.600000
O10   O     O_3   0.569354 0.923951 0.110047 -0.647498
Zn1   Zn    Zn3+2 0.306940 0.517990 0.510420 0.964123
Zn2   Zn    Zn3+2 0.693060 0.482010 0.489580 0.964419

loop_
_geom_bond_atom_site_label_1
_geom_bond_atom_site_label_2
_ccdc_geom_bond_type
C2    C4    A    
C12   O5    A    
C14   O10   S    
O9    Zn1   S    
H22   N4    S    
C25   O7    A    
H28   N7    S    
C18   O2    S    
C23   H12   S    
C26   N4    S    
C9    C10   A    
H19   N10   S    
C1    O1    A    
C5    N6    S    
C15   C21   A    
C2    C13   A    
O8    Zn2   S    
H2    N7    S    
N3    Zn1   S    
N1    N3    D    
H14   N8    S    
H17   N9    S    
C1    C22   S    
H18   N10   S    
C9    C11   A    
C12   C23   S    
O7    Zn2   S    
C17   H7    S    
H15   N8    S    
C16   O10   S    
H24   N5    S    
C19   H13   S    
C6    N7    S    
C8    C10   A    
C2    N5    S    
H27   N6    S    
C11   C21   A    
H26   N6    S    
O5    Zn1   S    
C8    C15   A    
C25   O9    A    
C19   H10   S    
C18   H8    S    
N1    N10   S    
C20   N8    S    
C22   H1    S    
C4    C24   S    
C12   O3    A    
C21   N9    S    
O4    Zn2   S    
H23   N4    S    
N1    Zn2   S    
C24   O6    A    
C14   C20   A    
C3    C25   S    
C1    O4    A    
H25   N5    S    
N2    N3    S    
C24   O8    A    
C4    C6    A    
C18   C19   S    
C18   H9    S    
H20   N2    S    
O6    Zn1   S    
C7    C9    A    
C17   H6    S    
C5    C7    A    
C16   C17   S    
C6    C8    A    
O3    Zn2   S    
C19   H11   S    
C11   C26   A    
C16   H3    S    
C22   C23   D    
C15   O2    S    
C16   H4    S    
H16   N9    S    
C13   C20   A    
C3    C26   A    
C7    C14   A    
C17   H5    S    
H21   N2    S    
C3    C5    A    
C10   C13   A    
O1    Zn1   S    
