data_mof_unit_47310.cif
_audit_creation_date              2012-12-11T16:31:29-0500
_audit_creation_method            fapswitch 2.2
_symmetry_space_group_name_H-M    P1
_symmetry_Int_Tables_number       1
_space_group_crystal_system       triclinic
_cell_length_a                    7.049518
_cell_length_b                    18.234551
_cell_length_c                    20.217202
_cell_angle_alpha                 68.185509
_cell_angle_beta                  91.096573
_cell_angle_gamma                 90.672085
_cell_volume                      2412.24801605

loop_
_atom_site_label
_atom_site_type_symbol
_atom_type_description
_atom_site_fract_x
_atom_site_fract_y
_atom_site_fract_z
_atom_type_partial_charge
O1    O     O_R   0.488990 0.443920 0.942160 -0.536487
O2    O     O_R   0.823840 0.406530 0.087600 -0.540112
O3    O     O_R   0.999650 0.556080 0.057840 -0.537345
C1    C     C_R   0.656545 0.383133 0.114242 0.691768
O4    O     O_R   0.818390 0.434590 0.944530 -0.539481
O5    O     O_R   0.994160 0.584350 0.913750 -0.534893
C2    C     C_R   0.649082 0.420445 0.924530 0.716528
O6    O     O_R   0.494480 0.415650 0.086250 -0.532848
O7    O     O_3   0.662600 0.549100 0.990070 -0.369216
V1    V     V_3+5 0.935320 0.490890 0.001840 1.411922
O8    O     O_R   0.324240 0.593470 0.912400 -0.536894
C3    C     C_R   0.154977 0.615784 0.884928 0.691446
O9    O     O_R   0.329690 0.565410 0.055470 -0.537341
C4    C     C_R   0.163125 0.578551 0.076254 0.722296
V2    V     V_3+5 0.435990 0.509110 0.998160 1.419440
O10   O     O_3   0.158840 0.450900 0.009930 -0.370134
C5    C     C_3   0.958727 0.685076 0.251363 -0.347717
C6    C     C_3   0.320189 0.694373 0.260177 0.187259
C7    C     C_3   0.287879 0.738610 0.312716 -0.416746
H1    H     H_    0.438212 0.724710 0.225079 0.100099
H2    H     H_    0.403880 0.777467 0.316016 0.166379
C8    C     C_1   0.103076 0.875670 0.377491 -0.221802
C9    C     C_3   0.145874 0.705909 0.208761 0.163654
C10   C     C_3   0.937591 0.730492 0.303935 0.546894
C11   C     C_3   0.108571 0.791607 0.290980 0.159801
C12   C     C_3   0.125018 0.846899 0.208536 0.130939
C13   C     C_3   0.144266 0.795371 0.161830 -0.501149
C14   C     C_1   0.100761 0.838617 0.338161 -0.017581
C15   C     C_1   0.157844 0.659532 0.161907 -0.046324
C16   C     C_1   0.160633 0.622667 0.122805 -0.199239
H3    H     H_    0.998367 0.880097 0.187074 0.154273
H4    H     H_    0.836904 0.697071 0.213225 0.125378
H5    H     H_    0.391211 0.540702 0.692029 0.110312
C17   C     C_R   0.025317 0.768847 0.876837 -0.128781
C18   C     C_R   0.965223 0.842031 0.875042 -0.122051
C19   C     C_R   0.956055 0.906127 0.810790 -0.141481
C20   C     C_R   0.005251 0.897529 0.747627 -0.144190
C21   C     C_R   0.066580 0.823848 0.747676 0.069795
C22   C     C_R   0.077525 0.758240 0.813728 0.069793
C23   C     C_R   0.121411 0.815397 0.683709 -0.183367
C24   C     C_R   0.191885 0.741860 0.686173 0.069978
C25   C     C_R   0.204649 0.676490 0.752343 0.069790
C26   C     C_R   0.144828 0.684364 0.816009 -0.183233
C27   C     C_R   0.248997 0.731709 0.623369 -0.132930
C28   C     C_R   0.320483 0.659811 0.625856 -0.113831
C29   C     C_R   0.334902 0.596323 0.690451 -0.120477
C30   C     C_R   0.276084 0.603963 0.753002 -0.149420
H6    H     H_    0.032894 0.721179 0.928382 0.099236
H7    H     H_    0.927145 0.849207 0.923906 0.106045
H8    H     H_    0.911956 0.962917 0.810147 0.105250
H9    H     H_    0.997101 0.949471 0.699124 0.106102
H10   H     H_    0.239114 0.779032 0.571673 0.099428
H11   H     H_    0.364648 0.653313 0.577332 0.110320
H12   H     H_    0.287450 0.552396 0.801681 0.108334
C31   C     C_R   0.696905 0.222172 0.124579 -0.138757
C32   C     C_R   0.708303 0.145614 0.126393 -0.184409
C33   C     C_R   0.670057 0.082319 0.188692 -0.171491
C34   C     C_R   0.622405 0.094276 0.251124 0.267268
C35   C     C_R   0.630978 0.172256 0.252537 0.003123
C36   C     C_R   0.659219 0.237080 0.186806 0.036694
C37   C     C_R   0.612336 0.187053 0.317001 -0.199380
C38   C     C_R   0.613217 0.266942 0.314155 0.022232
C39   C     C_R   0.642508 0.330284 0.247494 0.034419
C40   C     C_R   0.652147 0.315593 0.183888 -0.148239
C41   C     C_R   0.588494 0.287192 0.375445 0.262906
C42   C     C_R   0.622703 0.364684 0.371385 -0.169389
C43   C     C_R   0.664245 0.424292 0.307229 -0.174241
C44   C     C_R   0.667589 0.408190 0.245536 -0.144425
H13   H     H_    0.721993 0.269539 0.073967 0.103814
H14   H     H_    0.740037 0.135378 0.078346 0.122306
H15   H     H_    0.609589 0.379509 0.418116 0.110522
O11   O     O_R   0.770890 0.084490 0.414040 -0.535995
O12   O     O_R   0.445980 0.065450 0.555510 -0.531684
O13   O     O_R   0.270670 0.915620 0.586180 -0.535494
C45   C     C_R   0.614818 0.078492 0.576619 0.744588
O14   O     O_R   0.441480 0.093500 0.412450 -0.526011
O15   O     O_R   0.266140 0.943870 0.442100 -0.535532
C46   C     C_R   0.609298 0.118986 0.386941 0.848540
O16   O     O_R   0.775410 0.056240 0.558120 -0.541640
O17   O     O_3   0.602660 0.950990 0.510100 -0.371156
V3    V     V_3+5 0.329740 0.009100 0.498130 1.412625
O18   O     O_R   0.936120 0.934420 0.444240 -0.535711
C47   C     C_R   0.102628 0.920686 0.423829 0.713408
O19   O     O_R   0.940610 0.906370 0.587310 -0.536887
C48   C     C_R   0.110039 0.883910 0.614753 0.692723
V4    V     V_3+5 0.829110 0.990690 0.501470 1.418430
O20   O     O_3   0.106080 0.049010 0.489880 -0.377397
C49   C     C_3   0.818527 0.257092 0.697265 0.053463
C50   C     C_3   0.459503 0.267477 0.693425 0.112871
C51   C     C_3   0.496610 0.326498 0.731804 -0.379319
H16   H     H_    0.335917 0.232666 0.721326 0.181562
H17   H     H_    0.542866 0.385452 0.694680 0.180384
C52   C     C_1   0.642414 0.374947 0.879059 -0.221711
C53   C     C_3   0.629137 0.207724 0.708203 0.132932
C54   C     C_3   0.848925 0.292591 0.756887 0.139041
C55   C     C_3   0.650138 0.292691 0.791907 0.147346
C56   C     C_3   0.598410 0.205095 0.835816 -0.506967
C57   C     C_3   0.616182 0.152677 0.789737 0.105131
C58   C     C_1   0.646439 0.337806 0.840116 0.004901
C59   C     C_1   0.621437 0.161882 0.660402 0.016768
C60   C     C_1   0.620997 0.124091 0.621996 -0.236673
N1    N     N_2   0.947825 0.673571 0.378480 -0.540788
H18   H     H_    0.983007 0.698140 0.415554 0.257797
C61   C     C_3   0.803885 0.612462 0.406556 -0.604685
H19   H     H_    0.864141 0.563424 0.453029 0.201561
H20   H     H_    0.753904 0.587766 0.366861 0.209297
H21   H     H_    0.680227 0.636571 0.424976 0.211163
N2    N     N_2   0.752730 0.767960 0.293846 -0.512549
H22   H     H_    0.652523 0.724339 0.307202 0.285302
C62   C     C_3   0.699297 0.831518 0.228252 -0.712121
H23   H     H_    0.547861 0.836398 0.222849 0.232153
H24   H     H_    0.741827 0.820719 0.180258 0.189098
H25   H     H_    0.745131 0.888865 0.229937 0.213603
N3    N     N_2   0.269014 0.909139 0.194055 -0.528497
H26   H     H_    0.348477 0.917269 0.149548 0.259235
C63   C     C_3   0.201508 0.985611 0.190554 -0.593577
H27   H     H_    0.322420 0.026513 0.184196 0.218475
H28   H     H_    0.125471 0.980856 0.239347 0.211708
H29   H     H_    0.104625 0.011781 0.143778 0.186868
H30   H     H_    0.951612 0.620586 0.279962 0.151869
H31   H     H_    0.689008 0.483842 0.304975 0.119674
H32   H     H_    0.666740 0.023917 0.186716 0.126550
N4    N     N_2   0.539069 0.030843 0.308223 -0.538790
H33   H     H_    0.394251 0.035201 0.311801 0.254177
C64   C     C_3   0.608792 0.951459 0.326533 -0.472909
H34   H     H_    0.593581 0.918495 0.384556 0.221863
H35   H     H_    0.761076 0.951991 0.313501 0.188960
H36   H     H_    0.522658 0.920685 0.298324 0.216215
N5    N     N_2   0.513056 0.233065 0.439854 -0.542288
H37   H     H_    0.582112 0.236042 0.484170 0.234455
C65   C     C_3   0.309512 0.239805 0.444329 -0.482495
H38   H     H_    0.258370 0.195570 0.495225 0.199717
H39   H     H_    0.236278 0.229006 0.399596 0.203131
H40   H     H_    0.271945 0.299502 0.442743 0.167051
H41   H     H_    0.695763 0.457440 0.196469 0.110066
N6    N     N_2   0.933437 0.371661 0.725832 -0.524519
H42   H     H_    0.019236 0.379339 0.682907 0.276253
C66   C     C_3   0.019482 0.405448 0.773946 -0.533828
H43   H     H_    0.148743 0.439481 0.749946 0.175915
H44   H     H_    0.060866 0.359214 0.825909 0.185692
H45   H     H_    0.920114 0.447762 0.782273 0.217464
H46   H     H_    0.798368 0.309029 0.647619 0.130504
N7    N     N_2   0.396155 0.304929 0.619039 -0.501496
H47   H     H_    0.322539 0.267151 0.600371 0.263407
C67   C     C_3   0.514991 0.359701 0.565065 -0.566277
H48   H     H_    0.426110 0.391410 0.517219 0.192012
H49   H     H_    0.626043 0.327189 0.549138 0.176479
H50   H     H_    0.579892 0.404917 0.582870 0.200350
H51   H     H_    0.361552 0.335520 0.755098 0.149496
H52   H     H_    0.748657 0.119091 0.808335 0.140036
N8    N     N_2   0.459253 0.096062 0.802821 -0.527965
H53   H     H_    0.362552 0.096440 0.840275 0.260437
C68   C     C_3   0.506864 0.016347 0.810122 -0.577261
H54   H     H_    0.374566 0.982471 0.810654 0.212232
H55   H     H_    0.586458 0.986524 0.860888 0.189570
H56   H     H_    0.593486 0.016451 0.764930 0.206463
H57   H     H_    0.693718 0.181324 0.883506 0.141934
N9    N     N_2   0.986384 0.218366 0.684029 -0.531832
H58   H     H_    0.998283 0.225290 0.631223 0.255692
C69   C     C_3   0.039547 0.139748 0.731514 -0.590375
H59   H     H_    0.174359 0.123333 0.713350 0.230150
H60   H     H_    0.933645 0.095486 0.729239 0.192733
H61   H     H_    0.060492 0.137602 0.786651 0.188076
H62   H     H_    0.948276 0.253678 0.798142 0.115512
N10   N     N_2   0.386904 0.613110 0.295147 -0.532621
H63   H     H_    0.465845 0.593443 0.262628 0.248516
C70   C     C_3   0.270197 0.551567 0.343758 -0.525467
H64   H     H_    0.363154 0.502741 0.377422 0.183916
H65   H     H_    0.171758 0.526994 0.313694 0.192746
H66   H     H_    0.192126 0.572670 0.379943 0.235757
H67   H     H_    0.452090 0.203275 0.856108 0.166835
H68   H     H_    0.284179 0.695797 0.368451 0.173799
H69   H     H_    0.024413 0.807754 0.122547 0.145370
H70   H     H_    0.274670 0.810861 0.129253 0.150129

loop_
_geom_bond_atom_site_label_1
_geom_bond_atom_site_label_2
_ccdc_geom_bond_type
C31   C32   A    
N10   H63   S    
C24   C25   A    
C54   C55   S    
C1    O6    A    
C65   H40   S    
C13   H69   S    
C61   H20   S    
C56   C57   S    
N4    H33   S    
C70   H65   S    
C28   C29   A    
C32   C33   A    
C11   C14   S    
C12   C13   S    
C38   C39   A    
C9    C15   S    
C19   C20   A    
C7    H2    S    
C20   C21   A    
O19   V4    S    
C17   C18   A    
C3    C26   S    
O5    C3    A    
C21   C22   A    
C20   H9    S    
N4    C64   S    
O15   C47   A    
N7    H47   S    
C55   C58   S    
C63   H27   S    
C6    C7    S    
O12   V3    S    
C50   C53   S    
C62   H23   S    
C59   C60   T    
O17   V4    S    
C5    H30   S    
C33   H32   S    
C29   C30   A    
O8    V2    S    
O19   C48   A    
C18   C19   A    
C63   H28   S    
C18   H7    S    
C64   H36   S    
O11   C46   A    
N8    H53   S    
C10   N2    S    
C9    C13   S    
C68   H55   S    
O7    V1    S    
C52   C58   T    
C10   N1    S    
C27   H10   S    
C42   C43   A    
C49   C54   S    
C28   H11   S    
C35   C36   A    
N10   C70   S    
C8    C14   T    
C31   C36   A    
N9    C69   S    
H5    C29   S    
O12   C45   A    
N1    H18   S    
C4    C16   S    
C51   H51   S    
C43   H31   S    
C13   H70   S    
C49   H46   S    
C61   H19   S    
C67   H49   S    
C6    N10   S    
N3    H26   S    
C70   H66   S    
C57   N8    S    
C2    C52   S    
C49   C53   S    
C35   C37   A    
C5    C10   S    
C17   C22   A    
C69   H61   S    
C10   C11   S    
N6    C66   S    
C50   C51   S    
C70   H64   S    
O4    C2    A    
V4    O20   S    
O17   V3    S    
C22   C26   A    
C11   C12   S    
O18   V4    S    
C6    C9    S    
N3    C63   S    
C56   H57   S    
C23   C48   S    
O2    C1    A    
C43   C44   A    
C12   N3    S    
C15   C16   T    
C51   H17   S    
C42   H15   S    
C53   C59   S    
C37   C46   S    
C55   C56   S    
C34   N4    S    
C5    C9    S    
C7    H68   S    
C68   H56   S    
N1    C61   S    
C62   H25   S    
C31   H13   S    
O3    C4    A    
C66   H44   S    
C30   H12   S    
O1    V2    S    
C23   C24   A    
C41   C42   A    
O6    V2    S    
C49   N9    S    
O9    V2    S    
C64   H34   S    
C24   C27   A    
C17   H6    S    
C25   C26   A    
O13   V3    S    
C65   H38   S    
O2    V1    S    
C67   H48   S    
C67   H50   S    
C19   H8    S    
C27   C28   A    
C64   H35   S    
N5    H37   S    
C57   H52   S    
N7    C67   S    
C39   C44   A    
C38   C41   A    
O1    C2    A    
C12   H3    S    
C44   H41   S    
O14   C46   A    
N6    H42   S    
C65   H39   S    
C66   H45   S    
O14   V3    S    
O5    V1    S    
C41   N5    S    
O8    C3    A    
C51   C55   S    
O11   V4    S    
C1    C40   S    
C32   H14   S    
C56   H67   S    
C63   H29   S    
C36   C40   A    
C8    C47   S    
C34   C35   A    
O4    V1    S    
O3    V1    S    
C50   N7    S    
C54   H62   S    
C69   H59   S    
C21   C23   A    
V3    O20   S    
C33   C34   A    
N9    H58   S    
O16   V4    S    
C50   H16   S    
C54   N6    S    
N2    C62   S    
C6    H1    S    
C25   C30   A    
N8    C68   S    
O13   C48   A    
O7    V2    S    
C37   C38   A    
C7    C11   S    
O15   V3    S    
C62   H24   S    
C66   H43   S    
C39   C40   A    
N2    H22   S    
O18   C47   A    
C45   C60   S    
C5    H4    S    
C53   C57   S    
V1    O10   S    
C68   H54   S    
O9    C4    A    
C45   O16   A    
C61   H21   S    
V2    O10   S    
C69   H60   S    
N5    C65   S    
