data_mof_unit_38285.cif
_audit_creation_date              2012-12-10T21:00:38-0500
_audit_creation_method            fapswitch 2.2
_symmetry_space_group_name_H-M    P1
_symmetry_Int_Tables_number       1
_space_group_crystal_system       triclinic
_cell_length_a                    18.096953
_cell_length_b                    18.166473
_cell_length_c                    18.343947
_cell_angle_alpha                 119.795866
_cell_angle_beta                  90.10075
_cell_angle_gamma                 119.908361
_cell_volume                      4279.63535959

loop_
_atom_site_label
_atom_site_type_symbol
_atom_type_description
_atom_site_fract_x
_atom_site_fract_y
_atom_site_fract_z
_atom_type_partial_charge
C1    C     C_R   0.109241 0.220113 0.609842 0.497789
C2    C     C_3   0.450647 0.897176 0.947725 0.039558
C3    C     C_3   0.444965 0.031961 0.017232 -0.127661
C4    C     C_3   0.555035 0.968039 0.982768 -0.127661
C5    C     C_3   0.445155 0.522299 0.481427 -0.128105
C6    C     C_3   0.554844 0.477701 0.518571 -0.128120
C7    C     C_3   0.446190 0.427731 0.414504 -0.108049
C8    C     C_3   0.553809 0.572268 0.585495 -0.108059
C9    C     C_3   0.549861 0.499327 0.448530 0.069189
C10   C     C_3   0.450138 0.500672 0.551468 0.069183
C11   C     C_3   0.549620 0.593790 0.514495 -0.128177
C12   C     C_R   0.890758 0.779887 0.390157 0.497805
C13   C     C_3   0.450379 0.406209 0.485503 -0.128190
C14   C     C_R   0.036490 0.130949 0.827229 -0.112354
C15   C     C_R   0.963345 0.868919 0.172731 -0.112336
C16   C     C_R   0.392954 0.781127 0.888316 0.512587
C17   C     C_R   0.607046 0.218873 0.111684 0.512586
C18   C     C_R   0.042931 0.092025 0.741758 -0.080342
C19   C     C_R   0.956938 0.907862 0.258215 -0.080264
C20   C     C_R   0.001335 0.097527 0.681699 0.063309
C21   C     C_R   0.998638 0.902470 0.318292 0.063294
C22   C     C_R   0.952920 0.141940 0.707942 -0.063783
C23   C     C_3   0.983968 0.430853 0.414303 -0.108492
C24   C     C_R   0.047119 0.858148 0.292056 -0.063864
C25   C     C_R   0.945978 0.179965 0.793269 -0.106172
C26   C     C_R   0.054026 0.820104 0.206716 -0.106182
C27   C     C_R   0.987653 0.174327 0.852780 -0.110051
C28   C     C_R   0.012250 0.825633 0.147187 -0.110042
C29   C     C_R   0.953214 0.943257 0.534101 -0.156196
C30   C     C_R   0.046781 0.056743 0.465897 -0.156196
C31   C     C_R   0.948587 0.892237 0.445045 0.018493
C32   C     C_R   0.051408 0.107762 0.554954 0.018489
C33   C     C_R   0.996430 0.949608 0.410419 -0.034938
C34   C     C_3   0.016031 0.569147 0.585697 -0.108493
C35   C     C_R   0.003561 0.050392 0.589579 -0.034921
C36   C     C_R   0.559691 0.466501 0.714428 -0.101146
C37   C     C_R   0.440270 0.533512 0.285559 -0.101164
C38   C     C_R   0.521994 0.455227 0.777726 -0.062136
C39   C     C_R   0.477978 0.544787 0.222267 -0.062173
C40   C     C_R   0.111761 0.501706 0.890609 0.500578
C41   C     C_R   0.888240 0.498296 0.109393 0.500585
C42   C     C_R   0.570380 0.532488 0.869071 0.057327
C43   C     C_R   0.429619 0.467503 0.130920 0.057333
C44   C     C_R   0.656887 0.620889 0.895864 -0.090405
C45   C     C_3   0.448606 0.966485 0.924509 0.104215
C46   C     C_R   0.343130 0.379075 0.104119 -0.090382
C47   C     C_R   0.694331 0.631699 0.832376 -0.116798
C48   C     C_R   0.305675 0.368262 0.167602 -0.116789
C49   C     C_R   0.646025 0.554341 0.741800 -0.107231
C50   C     C_R   0.353951 0.445645 0.258178 -0.107227
C51   C     C_R   0.584399 0.520724 0.995486 -0.149815
C52   C     C_R   0.415601 0.479271 0.004509 -0.149814
C53   C     C_R   0.551208 0.502256 0.057586 0.026932
C54   C     C_R   0.448793 0.497740 0.942410 0.026931
C55   C     C_R   0.466231 0.481790 0.063164 -0.032498
C56   C     C_3   0.551394 0.033515 0.075491 0.104215
C57   C     C_R   0.533769 0.518205 0.936830 -0.032487
C58   C     C_R   0.169837 0.814603 0.984623 -0.093539
C59   C     C_R   0.830165 0.185403 0.015381 -0.093549
C60   C     C_R   0.142356 0.741231 0.003851 -0.069039
C61   C     C_R   0.857649 0.258778 0.996154 -0.069047
C62   C     C_R   0.055235 0.648275 0.956658 0.054353
C63   C     C_R   0.944771 0.351732 0.043349 0.054347
C64   C     C_R   0.392630 0.500150 0.607964 0.502537
C65   C     C_R   0.607370 0.499850 0.392035 0.502544
C66   C     C_R   0.995517 0.630445 0.891326 -0.089788
C67   C     C_3   0.552835 0.038228 0.959032 -0.142074
C68   C     C_R   0.004487 0.369559 0.108682 -0.089778
C69   C     C_R   0.023262 0.704085 0.872363 -0.117419
C70   C     C_R   0.976737 0.295918 0.127643 -0.117413
C71   C     C_R   0.110397 0.795954 0.918820 -0.096985
C72   C     C_R   0.889602 0.204050 0.081184 -0.096990
C73   C     C_R   0.969051 0.562840 0.025516 -0.166067
C74   C     C_R   0.030961 0.437172 0.974496 -0.166081
C75   C     C_R   0.943326 0.495499 0.051501 0.017188
C76   C     C_R   0.056682 0.504509 0.948506 0.017182
C77   C     C_R   0.973368 0.430187 0.024129 -0.035856
C78   C     C_3   0.447165 0.961772 0.040968 -0.142074
C79   C     C_R   0.026642 0.569822 0.975881 -0.035854
C80   C     C_R   0.393756 0.498450 0.887209 0.500974
C81   C     C_R   0.606244 0.501550 0.112791 0.500985
C82   C     C_R   0.108978 0.500325 0.607900 0.505071
C83   C     C_R   0.891022 0.499675 0.392100 0.505072
C84   C     C_3   0.078485 0.526564 0.483598 -0.124549
C85   C     C_3   0.921515 0.473436 0.516402 -0.124550
C86   C     C_3   0.042463 0.594942 0.517124 -0.122532
C87   C     C_3   0.957537 0.405058 0.482876 -0.122532
C88   C     C_3   0.948779 0.499262 0.448687 0.064972
C89   C     C_3   0.549353 0.102824 0.052275 0.039558
C90   C     C_3   0.051221 0.500738 0.551313 0.064972
F1    F     F_    0.394571 0.930469 0.845218 -0.179493
F2    F     F_    0.605429 0.069531 0.154782 -0.179493
H1    H     H_    0.076468 0.672852 0.530238 0.111793
H2    H     H_    0.080435 0.854485 0.338021 0.091629
H3    H     H_    0.907970 0.213366 0.813123 0.102735
H4    H     H_    0.092085 0.786770 0.186866 0.102737
H5    H     H_    0.915429 0.899503 0.560556 0.142178
H6    H     H_    0.084563 0.100495 0.439441 0.142186
H7    H     H_    0.675854 0.562527 0.692995 0.100662
H8    H     H_    0.324111 0.437458 0.306979 0.100661
H9    H     H_    0.522356 0.406602 0.644194 0.098023
H10   H     H_    0.477580 0.593430 0.355795 0.098020
H11   H     H_    0.455864 0.385774 0.755652 0.090190
H12   H     H_    0.923532 0.327148 0.469762 0.111792
H13   H     H_    0.544094 0.614260 0.244344 0.090193
H14   H     H_    0.695510 0.681026 0.965915 0.103190
H15   H     H_    0.304530 0.318921 0.034066 0.103211
H16   H     H_    0.143825 0.548447 0.471049 0.108495
H17   H     H_    0.856174 0.451553 0.528951 0.108495
H18   H     H_    0.761139 0.699674 0.853414 0.100938
H19   H     H_    0.238878 0.300266 0.146559 0.100938
H20   H     H_    0.649057 0.533747 0.990616 0.134766
H21   H     H_    0.350943 0.466245 0.009379 0.134779
H22   H     H_    0.131820 0.852737 0.903903 0.107030
H23   H     H_    0.982121 0.203400 0.918674 0.118936
H24   H     H_    0.868177 0.147266 0.096099 0.107034
H25   H     H_    0.237210 0.885813 0.020604 0.101678
H26   H     H_    0.762792 0.114194 0.979397 0.101682
H27   H     H_    0.188928 0.756222 0.054791 0.091184
H28   H     H_    0.811080 0.243788 0.945213 0.091191
H29   H     H_    0.928027 0.559335 0.854741 0.101775
H30   H     H_    0.071977 0.440669 0.145269 0.101779
H31   H     H_    0.977294 0.689841 0.821522 0.098235
H32   H     H_    0.022703 0.310160 0.178485 0.098238
H33   H     H_    0.945223 0.611809 0.044954 0.145610
H34   H     H_    0.017756 0.796545 0.081281 0.118914
H35   H     H_    0.054791 0.388206 0.955060 0.145614
H36   H     H_    0.970122 0.374079 0.343166 0.125182
H37   H     H_    0.029878 0.625920 0.656834 0.125182
H38   H     H_    0.595551 0.069972 0.925070 0.106236
H39   H     H_    0.404449 0.930028 0.074930 0.106234
H40   H     H_    0.399636 0.058114 0.030463 0.123528
H41   H     H_    0.600364 0.941886 0.969538 0.123531
H42   H     H_    0.402976 0.367816 0.343499 0.129401
H43   H     H_    0.597025 0.632181 0.656500 0.129400
H44   H     H_    0.399458 0.541376 0.468212 0.101707
H45   H     H_    0.068692 0.126675 0.873396 0.100295
H46   H     H_    0.600542 0.458624 0.531785 0.101709
H47   H     H_    0.591183 0.670588 0.525153 0.104818
H48   H     H_    0.408815 0.329411 0.474845 0.104814
H49   H     H_    0.931064 0.873106 0.126549 0.100286
H50   H     H_    0.079858 0.057175 0.722135 0.102847
H51   H     H_    0.919955 0.942639 0.277832 0.102848
H52   H     H_    0.919680 0.145685 0.661991 0.091608
O1    O     O_3   0.251620 0.500000 0.748430 -0.442254
O2    O     O_R   0.570330 0.268390 0.136490 -0.544575
O3    O     O_R   0.134680 0.268390 0.572240 -0.554498
O4    O     O_R   0.865320 0.731610 0.427760 -0.554498
O5    O     O_R   0.306670 0.731630 0.863510 -0.531477
O6    O     O_R   0.693330 0.268370 0.136490 -0.531478
O7    O     O_R   0.135450 0.439270 0.865360 -0.548869
O8    O     O_R   0.864550 0.560730 0.134640 -0.548863
O9    O     O_R   0.429670 0.560710 0.692610 -0.542568
O10   O     O_R   0.570330 0.439290 0.307390 -0.542567
O11   O     O_R   0.308540 0.439240 0.865360 -0.553843
O12   O     O_3   0.748380 0.500000 0.251570 -0.442255
O13   O     O_R   0.691460 0.560760 0.134640 -0.553848
O14   O     O_R   0.133580 0.439310 0.571150 -0.545168
O15   O     O_R   0.866420 0.560690 0.428850 -0.545168
O16   O     O_R   0.430770 0.560690 0.864590 -0.533010
O17   O     O_R   0.569230 0.439310 0.135410 -0.533007
O18   O     O_R   0.133580 0.560760 0.692610 -0.540412
O19   O     O_R   0.866420 0.439240 0.307390 -0.540412
O20   O     O_R   0.134680 0.560740 0.864590 -0.532685
O21   O     O_R   0.865320 0.439260 0.135410 -0.532685
O22   O     O_R   0.306670 0.439270 0.571150 -0.546320
O23   O     O_R   0.693330 0.560730 0.428850 -0.546322
O24   O     O_R   0.135450 0.268370 0.694460 -0.532739
O25   O     O_R   0.864550 0.731630 0.305540 -0.532736
O26   O     O_R   0.429670 0.731610 0.863510 -0.544573
Zn1   Zn    Zn3+2 0.207400 0.586780 0.791530 0.945054
Zn2   Zn    Zn3+2 0.792600 0.413220 0.208470 0.945057
Zn3   Zn    Zn3+2 0.208510 0.413230 0.792630 0.928290
Zn4   Zn    Zn3+2 0.791490 0.586770 0.207370 0.928294
Zn5   Zn    Zn3+2 0.383150 0.586740 0.791530 0.937741
Zn6   Zn    Zn3+2 0.616850 0.413260 0.208470 0.937743
Zn7   Zn    Zn3+2 0.207400 0.413250 0.618010 0.920888
Zn8   Zn    Zn3+2 0.792600 0.586750 0.381990 0.920893

loop_
_geom_bond_atom_site_label_1
_geom_bond_atom_site_label_2
_ccdc_geom_bond_type
C5    H44   S    
O1    Zn1   S    
C51   H20   S    
O7    Zn3   S    
C14   C18   A    
C17   O6    A    
C76   C79   A    
C6    C9    S    
C34   C90   S    
C47   C49   A    
C41   O8    A    
C52   H21   S    
C15   C19   A    
O12   Zn4   S    
C38   H11   S    
C74   C76   A    
C60   C62   A    
C19   C21   A    
O14   Zn7   S    
C84   C86   S    
C5    C11   S    
C85   H17   S    
C37   H10   S    
C82   O14   A    
C86   C88   S    
C58   C71   A    
C80   O16   A    
C66   C69   A    
C21   C33   S    
C69   H31   S    
C58   C60   A    
C67   C89   S    
C56   C78   S    
C60   H27   S    
C69   C71   A    
C34   C86   S    
C61   C63   A    
C11   H47   S    
C64   O22   A    
C15   H49   S    
C20   C35   S    
O12   Zn8   S    
O6    Zn2   S    
O18   Zn1   S    
O1    Zn5   S    
C34   H37   S    
C52   C54   A    
C22   C25   A    
O2    Zn6   S    
C45   C67   S    
C19   H51   S    
O25   Zn4   S    
C31   C33   A    
C16   O5    A    
C51   C57   A    
C14   C27   A    
C2    C16   S    
C44   C47   A    
C39   H13   S    
O13   Zn4   S    
O8    Zn4   S    
O11   Zn3   S    
O21   Zn2   S    
C48   C50   A    
C83   C88   S    
C23   C87   S    
C4    C56   S    
C61   H28   S    
C73   C75   A    
C84   C90   S    
C42   C57   S    
C43   C46   A    
C28   H34   S    
C54   C80   S    
O26   Zn5   S    
C53   C55   A    
C2    C45   S    
C26   H4    S    
O24   Zn3   S    
C37   C39   A    
C46   C48   A    
C59   C61   A    
C81   O13   A    
C23   C84   S    
C62   C66   A    
C85   C87   S    
C3    H40   S    
C32   C35   A    
C62   C79   S    
C18   H50   S    
C17   C89   S    
C7    H42   S    
C68   H30   S    
C49   H7    S    
C5    C7    S    
O17   Zn6   S    
C6    C8    S    
C82   O18   A    
C1    O24   A    
C65   O23   A    
C64   O9    A    
C74   C77   A    
C58   H25   S    
C40   C76   S    
C40   O7    A    
C41   O21   A    
C36   H9    S    
C51   C53   A    
C34   C85   S    
C6    H46   S    
C2    C4    S    
C78   H39   S    
C13   H48   S    
C65   O10   A    
C2    C78   S    
C86   H1    S    
C24   H2    S    
C41   C75   S    
C9    C11   S    
O3    Zn7   S    
C74   H35   S    
C14   H45   S    
C7    C13   S    
C46   H15   S    
C48   H19   S    
C73   C79   A    
C66   H29   S    
O22   Zn7   S    
O19   Zn2   S    
C75   C77   A    
C29   H5    S    
C43   C55   S    
C56   C89   S    
O1    Zn3   S    
C25   H3    S    
C59   H26   S    
C23   C88   S    
C12   C31   S    
O16   Zn5   S    
C1    O3    A    
C67   H38   S    
O9    Zn5   S    
C21   C24   A    
O15   Zn8   S    
O1    Zn7   S    
C80   O11   A    
C30   H6    S    
C63   C77   S    
C85   C88   S    
C7    C9    S    
C83   O19   A    
C63   C68   A    
O12   Zn6   S    
O4    Zn8   S    
C30   C33   A    
C72   H24   S    
O5    Zn1   S    
C81   O17   A    
C8    C10   S    
C10   C64   S    
C24   C26   A    
C20   C22   A    
C10   C13   S    
C4    C67   S    
C39   C43   A    
C52   C55   A    
C40   O20   A    
C12   O25   A    
C44   H14   S    
C25   C27   A    
C47   H18   S    
C29   C35   A    
C59   C72   A    
C26   C28   A    
C82   C90   S    
O10   Zn6   S    
C3    C89   S    
C16   O26   A    
C12   O4    A    
C36   C38   A    
C17   O2    A    
C42   C44   A    
C3    C45   S    
C5    C10   S    
C29   C31   A    
C6    C13   S    
C30   C32   A    
C37   C50   A    
C15   C28   A    
C8    C11   S    
C73   H33   S    
C84   H16   S    
O12   Zn2   S    
C18   C20   A    
C1    C32   S    
C45   F1    S    
C53   C81   S    
C9    C65   S    
C50   H8    S    
C87   H12   S    
C38   C42   A    
C70   H32   S    
C56   F2    S    
O23   Zn8   S    
C83   O15   A    
C71   H22   S    
C68   C70   A    
C87   C90   S    
C22   H52   S    
C23   H36   S    
O20   Zn1   S    
C70   C72   A    
C3    C78   S    
C36   C49   A    
C4    H41   S    
C8    H43   S    
C54   C57   A    
C27   H23   S    
