data_mof_unit_61531.cif
_audit_creation_date              2012-12-10T19:39:55-0500
_audit_creation_method            fapswitch 2.2
_symmetry_space_group_name_H-M    P1
_symmetry_Int_Tables_number       1
_space_group_crystal_system       triclinic
_cell_length_a                    15.883578
_cell_length_b                    17.077754
_cell_length_c                    19.315682
_cell_angle_alpha                 91.458335
_cell_angle_beta                  90.895593
_cell_angle_gamma                 95.213377
_cell_volume                      5215.27949217

loop_
_atom_site_label
_atom_site_type_symbol
_atom_type_description
_atom_site_fract_x
_atom_site_fract_y
_atom_site_fract_z
_atom_type_partial_charge
C1    C     C_R   0.490330 0.348733 0.499042 0.849944
C2    C     C_R   0.517707 0.901775 0.517903 0.185204
C3    C     C_R   0.411679 0.136659 0.460132 -0.141820
C4    C     C_R   0.588321 0.863341 0.539867 -0.141819
C5    C     C_R   0.414190 0.218703 0.468115 -0.224356
C6    C     C_R   0.585810 0.781297 0.531884 -0.224355
C7    C     C_R   0.755131 0.461847 0.465906 0.015657
C8    C     C_R   0.244869 0.538155 0.534092 0.015656
C9    C     C_R   0.843480 0.463159 0.470092 0.499058
C10   C     C_R   0.156520 0.536843 0.529906 0.499061
C11   C     C_R   0.890631 0.514810 0.517365 0.188250
C12   C     C_R   0.509670 0.651267 0.500958 0.849943
C13   C     C_R   0.109369 0.485188 0.482635 0.188249
C14   C     C_R   0.845013 0.563503 0.561135 -0.247592
C15   C     C_R   0.154987 0.436493 0.438867 -0.247591
C16   C     C_R   0.501185 0.500026 0.367435 0.896327
C17   C     C_R   0.498815 0.499974 0.632565 0.896329
C18   C     C_R   0.755693 0.559703 0.554859 0.022290
C19   C     C_R   0.244307 0.440294 0.445142 0.022294
C20   C     C_R   0.437741 0.460498 0.251654 0.561058
C21   C     C_R   0.562259 0.539501 0.748346 0.561058
C22   C     C_R   0.441126 0.458986 0.179796 -0.202148
C23   C     C_R   0.486523 0.262744 0.495119 -0.141757
C24   C     C_R   0.558875 0.541014 0.820204 -0.202149
C25   C     C_R   0.510458 0.496333 0.145905 -0.187407
C26   C     C_R   0.489542 0.503667 0.854095 -0.187407
C27   C     C_R   0.579007 0.534537 0.185232 -0.143923
C28   C     C_R   0.420993 0.465464 0.814768 -0.143923
C29   C     C_R   0.574603 0.536603 0.257930 0.555791
C30   C     C_R   0.425397 0.463398 0.742070 0.555790
C31   C     C_R   0.504270 0.499472 0.291353 -0.297928
C32   C     C_R   0.495730 0.500528 0.708646 -0.297927
C33   C     C_R   0.493436 0.502097 0.930141 0.519938
C34   C     C_R   0.513478 0.737255 0.504880 -0.141758
C35   C     C_R   0.506564 0.497904 0.069859 0.519938
C36   C     C_2   0.888288 0.618209 0.614321 0.963131
C37   C     C_2   0.111712 0.381784 0.385684 0.963127
C38   C     C_2   0.657140 0.568958 0.151988 0.978964
C39   C     C_2   0.342859 0.431044 0.848012 0.978961
C40   C     C_2   0.334798 0.092760 0.428424 0.964153
C41   C     C_2   0.665201 0.907240 0.571575 0.964152
C42   C     C_2   0.288662 0.592406 0.586037 1.007076
C43   C     C_2   0.711337 0.407598 0.413959 1.007080
C44   C     C_R   0.556861 0.224641 0.514960 -0.245632
C45   C     C_R   0.443140 0.775359 0.485038 -0.245636
C46   C     C_R   0.555601 0.143530 0.507915 0.644308
C47   C     C_R   0.444399 0.856470 0.492082 0.644308
C48   C     C_R   0.482293 0.098225 0.482094 0.185204
Cu1   Cu    Cu3+1 0.415220 0.496180 0.496660 1.034755
Cu2   Cu    Cu3+1 0.584780 0.503820 0.503340 1.034754
F1    F     F_    0.369724 0.422754 0.282219 -0.635168
F2    F     F_    0.630276 0.577245 0.717781 -0.635168
F3    F     F_    0.118007 0.586903 0.572134 -0.591194
F4    F     F_    0.881993 0.413101 0.427861 -0.591194
F5    F     F_    0.639296 0.574375 0.296177 -0.579740
F6    F     F_    0.360703 0.425626 0.703823 -0.579741
F7    F     F_    0.372871 0.890099 0.475417 -0.597085
F8    F     F_    0.627130 0.109900 0.524578 -0.597086
H1    H     H_    0.720424 0.596322 0.588083 0.221110
H2    H     H_    0.009644 0.353566 0.323452 0.368726
H3    H     H_    0.742681 0.559882 0.076702 0.354537
H4    H     H_    0.257319 0.440121 0.923299 0.354537
H5    H     H_    0.283243 0.996358 0.375366 0.368427
H6    H     H_    0.716756 0.003644 0.624632 0.368427
H7    H     H_    0.335726 0.703360 0.610616 0.337195
H8    H     H_    0.664269 0.296648 0.389377 0.337193
H9    H     H_    0.279576 0.403674 0.411921 0.221106
H10   H     H_    0.388259 0.429641 0.150321 0.208004
H11   H     H_    0.611742 0.570358 0.849679 0.208004
H12   H     H_    0.386552 0.742265 0.464279 0.228374
H13   H     H_    0.613449 0.257734 0.535717 0.228374
H14   H     H_    0.360527 0.248668 0.451132 0.219090
H15   H     H_    0.639473 0.751332 0.548869 0.219090
H16   H     H_    0.990356 0.646422 0.676554 0.368726
N1    N     N_R   0.531061 0.564767 0.036277 -0.197506
N2    N     N_2   0.018174 0.479810 0.478213 -0.062676
N3    N     N_R   0.468939 0.435234 0.963723 -0.197506
N4    N     N_R   0.525161 0.566671 0.967595 -0.196753
N5    N     N_R   0.474839 0.433330 0.032405 -0.196754
N6    N     N_2   0.477804 0.014837 0.477845 -0.101806
N7    N     N_2   0.522196 0.985163 0.522152 -0.101808
N8    N     N_R   0.712130 0.509560 0.508360 -0.256599
N9    N     N_R   0.287870 0.490440 0.491640 -0.256599
N10   N     N_2   0.981826 0.520188 0.521787 -0.062676
O1    O     O_R   0.420530 0.382500 0.496880 -0.572847
O2    O     O_R   0.968239 0.605237 0.640405 -0.646032
O3    O     O_2   0.146965 0.325815 0.363343 -0.542732
O4    O     O_R   0.031761 0.394754 0.359598 -0.646027
O5    O     O_2   0.694580 0.629757 0.175663 -0.488462
O6    O     O_R   0.689147 0.530864 0.094489 -0.737445
O7    O     O_2   0.305418 0.370246 0.824337 -0.488462
O8    O     O_R   0.310854 0.469138 0.905512 -0.737445
O9    O     O_2   0.266966 0.121406 0.429983 -0.539693
O10   O     O_R   0.339798 0.019755 0.395088 -0.665627
O11   O     O_2   0.733034 0.878594 0.570017 -0.539694
O12   O     O_R   0.579470 0.617500 0.503120 -0.572844
O13   O     O_R   0.660201 0.980246 0.604910 -0.665628
O14   O     O_2   0.299613 0.570402 0.644929 -0.527601
O15   O     O_R   0.308196 0.671180 0.570148 -0.742998
O16   O     O_2   0.700392 0.429605 0.355067 -0.527595
O17   O     O_R   0.691798 0.328825 0.429847 -0.743004
O18   O     O_R   0.563720 0.388950 0.502520 -0.594599
O19   O     O_R   0.436280 0.611050 0.497480 -0.594604
O20   O     O_R   0.428380 0.496760 0.397320 -0.551453
O21   O     O_R   0.571620 0.503240 0.602680 -0.551456
O22   O     O_R   0.571570 0.503220 0.402960 -0.530782
O23   O     O_R   0.428430 0.496780 0.597040 -0.530776
O24   O     O_2   0.853035 0.674176 0.636665 -0.542730

loop_
_geom_bond_atom_site_label_1
_geom_bond_atom_site_label_2
_ccdc_geom_bond_type
C27   C29   A    
C8    N9    A    
C14   C18   A    
C37   O4    S    
C40   O9    D    
Cu2   O12   S    
N2    N10   D    
Cu1   O20   S    
H2    O4    S    
Cu1   O23   S    
C16   C31   S    
C15   C19   A    
H5    O10   S    
C35   N1    A    
C24   C26   A    
C5    H14   S    
C17   O23   A    
C14   C36   S    
C11   C14   A    
C33   N4    A    
C36   O24   D    
C4    C41   S    
C27   C38   S    
C3    C48   A    
C44   H13   S    
C35   N5    A    
C10   F3    S    
C15   C37   S    
C16   O20   A    
C22   C25   A    
H4    O8    S    
Cu2   O21   S    
C19   H9    S    
C7    C43   S    
C16   O22   A    
N3    N5    A    
C46   F8    S    
H8    O17   S    
C19   N9    A    
C39   O7    D    
C44   C46   A    
C24   H11   S    
C45   C47   A    
C1    O1    A    
C21   C32   A    
C46   C48   A    
Cu1   O1    S    
C43   O16   D    
H7    O15   S    
C12   O19   A    
C4    C6    A    
C40   O10   S    
C29   F5    S    
C28   C39   S    
C36   O2    S    
C30   F6    S    
C23   C44   A    
C6    C34   A    
C2    C4    A    
C43   O17   S    
C17   O21   A    
C47   F7    S    
C26   C33   S    
C5    C23   A    
C13   N2    S    
C34   C45   A    
H16   O2    S    
C9    C11   A    
C22   H10   S    
C25   C35   S    
H6    O13   S    
C20   C22   A    
C3    C40   S    
C1    C23   S    
C13   C15   A    
C11   N10   S    
C41   O13   S    
C25   C27   A    
C12   C34   S    
C39   O8    S    
H3    O6    S    
Cu2   N8    S    
C6    H15   S    
C7    C9    A    
C45   H12   S    
C37   O3    D    
C8    C42   S    
N6    N7    D    
C3    C5    A    
C10   C13   A    
Cu1   O19   S    
Cu2   O18   S    
C2    C47   A    
C20   F1    S    
C38   O6    S    
C26   C28   A    
C38   O5    D    
Cu1   N9    S    
C42   O14   D    
C29   C31   A    
C48   N6    S    
C30   C32   A    
C33   N3    A    
C41   O11   D    
C28   C30   A    
C18   N8    A    
N1    N4    A    
C18   H1    S    
C7    N8    A    
C8    C10   A    
Cu1   Cu2   S    
C21   C24   A    
Cu2   O22   S    
C17   C32   S    
C12   O12   A    
C2    N7    S    
C9    F4    S    
C42   O15   S    
C1    O18   A    
C21   F2    S    
C20   C31   A    
