data_mof_unit_34783.cif
_audit_creation_date              2012-12-10T19:00:48-0500
_audit_creation_method            fapswitch 2.2
_symmetry_space_group_name_H-M    P1
_symmetry_Int_Tables_number       1
_space_group_crystal_system       triclinic
_cell_length_a                    15.083112
_cell_length_b                    10.841847
_cell_length_c                    9.539726
_cell_angle_alpha                 90.532541
_cell_angle_beta                  89.958964
_cell_angle_gamma                 90.394852
_cell_volume                      1559.91511573

loop_
_atom_site_label
_atom_site_type_symbol
_atom_type_description
_atom_site_fract_x
_atom_site_fract_y
_atom_site_fract_z
_atom_type_partial_charge
C1    C     C_R   0.498529 0.262442 0.499382 0.838487
C2    C     C_R   0.907175 0.496818 0.371580 0.110845
C3    C     C_R   0.953580 0.490425 0.755309 -0.192261
C4    C     C_R   0.046026 0.491321 0.755376 -0.206452
C5    C     C_R   0.092803 0.494210 0.628394 0.109649
C6    C     C_R   0.046458 0.495799 0.499994 0.064795
C7    C     C_R   0.092955 0.498381 0.371621 0.109612
C8    C     C_R   0.046349 0.499760 0.244538 -0.206555
C9    C     C_R   0.953914 0.498952 0.244523 -0.197961
C10   C     C_R   0.185190 0.495606 0.627542 -0.244144
C11   C     C_R   0.231662 0.498432 0.500078 -0.069506
C12   C     C_R   0.328577 0.499603 0.500044 0.806511
C13   C     C_R   0.185325 0.499662 0.372564 -0.244423
C14   C     C_R   0.489543 0.065126 0.624200 0.046680
C15   C     C_R   0.490819 0.129473 0.498378 -0.058231
C16   C     C_R   0.480360 0.063175 0.372093 -0.201883
C17   C     C_R   0.480436 0.934428 0.372869 -0.201842
C18   C     C_R   0.490416 0.870982 0.500042 -0.062135
C19   C     C_R   0.487977 0.938371 0.625342 0.061921
C20   C     C_3   0.545643 0.933659 0.752323 -0.488688
C21   C     C_3   0.547600 0.073795 0.750993 0.119923
C22   C     C_R   0.575674 0.526831 0.074009 0.265323
C23   C     C_R   0.498656 0.737787 0.500359 0.800230
C24   C     C_R   0.428027 0.460574 0.073975 -0.087510
C25   C     C_R   0.427974 0.460744 0.925259 -0.085109
C26   C     C_R   0.575936 0.525788 0.926572 0.286118
C27   C     C_3   0.628866 0.642078 0.921856 -0.511956
C28   C     C_3   0.627737 0.643984 0.080832 -0.493853
C29   C     C_R   0.671413 0.498834 0.499955 0.844098
C30   C     C_R   0.814821 0.496942 0.372494 -0.235171
C31   C     C_R   0.768312 0.496211 0.499917 -0.066700
C32   C     C_R   0.814629 0.492753 0.627307 -0.206605
C33   C     C_R   0.906996 0.492554 0.628272 0.107322
C34   C     C_R   0.953514 0.495025 0.499954 0.061497
Cu1   Cu    Cu3+1 0.500000 0.499980 0.640670 0.962446
Cu2   Cu    Cu3+1 0.500000 0.500020 0.359330 0.948381
H1    H     H_    0.779355 0.497699 0.273835 0.149319
H2    H     H_    0.476634 0.885335 0.273639 0.159016
H3    H     H_    0.509257 0.896611 0.844298 0.168026
H4    H     H_    0.610801 0.890292 0.730030 0.225879
H5    H     H_    0.513250 0.116525 0.842240 0.127806
H6    H     H_    0.369306 0.429879 0.128781 0.137984
H7    H     H_    0.369205 0.430256 0.869936 0.136527
H8    H     H_    0.696095 0.627909 0.877312 0.193874
H9    H     H_    0.591137 0.718193 0.875150 0.214509
H10   H     H_    0.694450 0.631252 0.127347 0.193290
H11   H     H_    0.778998 0.490207 0.725878 0.155818
H12   H     H_    0.589201 0.721919 0.125903 0.215099
H13   H     H_    0.918534 0.488413 0.854464 0.139303
H14   H     H_    0.080920 0.489903 0.854592 0.135048
H15   H     H_    0.220747 0.494449 0.726253 0.146846
H16   H     H_    0.220980 0.501752 0.273861 0.147534
H17   H     H_    0.081368 0.501649 0.145305 0.135281
H18   H     H_    0.918997 0.500334 0.145293 0.138537
H19   H     H_    0.476288 0.110074 0.272580 0.162738
N1    N     N_R   0.500570 0.500930 0.147930 -0.187727
N2    N     N_R   0.500570 0.500890 0.852020 -0.184999
O1    O     O_R   0.500000 0.319640 0.618810 -0.563897
O2    O     O_R   0.500010 0.319680 0.381230 -0.588050
O3    O     O_R   0.370250 0.499950 0.618800 -0.598043
O4    O     O_R   0.370260 0.499990 0.381220 -0.596498
O5    O     O_R   0.499990 0.680320 0.618770 -0.579454
O6    O     O_R   0.500000 0.680360 0.381190 -0.588252
O7    O     O_R   0.629740 0.500010 0.618780 -0.574141
O8    O     O_R   0.629750 0.500050 0.381200 -0.587367
Br1   Br    Br    0.665629 0.140113 0.713872 -0.516859

loop_
_geom_bond_atom_site_label_1
_geom_bond_atom_site_label_2
_ccdc_geom_bond_type
C8    H17   S    
C11   C12   S    
C6    C7    A    
C1    C15   S    
C21   Br1   S    
C24   N1    A    
Cu2   O6    S    
C24   H6    S    
C19   C20   S    
Cu1   N2    S    
C2    C30   A    
Cu2   O2    S    
C32   C33   A    
C27   H9    S    
C23   O6    A    
C17   C18   A    
C3    H13   S    
C16   H19   S    
C5    C10   A    
C29   C31   S    
C22   C28   S    
C1    O1    A    
C24   C25   A    
C12   O4    A    
C11   C13   A    
C28   H10   S    
C26   C27   S    
Cu1   O7    S    
C25   N2    A    
Cu1   O1    S    
C29   O8    A    
C10   H15   S    
C14   C19   A    
C14   C21   S    
C25   H7    S    
C32   H11   S    
C33   C34   A    
Cu1   O5    S    
C17   H2    S    
C1    O2    A    
Cu2   O4    S    
C30   C31   A    
C20   H4    S    
C26   N2    A    
C21   H5    S    
C29   O7    A    
C7    C8    A    
C10   C11   A    
C3    C33   A    
C18   C23   S    
C13   H16   S    
C6    C34   A    
C7    C13   A    
C20   C21   S    
C30   H1    S    
C18   C19   A    
C22   C26   A    
Cu2   N1    S    
C27   C28   S    
C5    C6    A    
C20   H3    S    
Cu2   O8    S    
Cu1   O3    S    
C22   N1    A    
C9    H18   S    
C23   O5    A    
C2    C34   A    
C14   C15   A    
C2    C9    A    
C4    C5    A    
C27   H8    S    
C31   C32   A    
C28   H12   S    
C3    C4    A    
C15   C16   A    
C16   C17   A    
C4    H14   S    
C8    C9    A    
Cu1   Cu2   S    
C12   O3    A    
