data_mof_unit_29006.cif
_audit_creation_date              2012-12-10T20:25:43-0500
_audit_creation_method            fapswitch 2.2
_symmetry_space_group_name_H-M    P1
_symmetry_Int_Tables_number       1
_space_group_crystal_system       triclinic
_cell_length_a                    8.575605
_cell_length_b                    10.682124
_cell_length_c                    9.89645
_cell_angle_alpha                 89.39045
_cell_angle_beta                  97.570397
_cell_angle_gamma                 90.46288
_cell_volume                      898.597840305

loop_
_atom_site_label
_atom_site_type_symbol
_atom_type_description
_atom_site_fract_x
_atom_site_fract_y
_atom_site_fract_z
_atom_type_partial_charge
Br1   Br    Br    0.963508 0.338380 0.325755 -0.477508
C1    C     C_R   0.505865 0.260008 0.501194 0.914476
C2    C     C_R   0.361783 0.496126 0.913430 0.138178
C3    C     C_3   0.236517 0.397653 0.895862 0.446837
C4    C     C_R   0.201965 0.494772 0.465731 0.956771
C5    C     C_3   0.237986 0.396519 0.049595 -0.468232
C6    C     C_R   0.507225 0.739963 0.500082 0.926242
C7    C     C_R   0.798161 0.499175 0.534447 0.890043
C8    C     C_2   0.040373 0.468320 0.453143 -0.023746
C9    C     C_2   0.961081 0.515053 0.548374 0.337097
C10   C     C_R   0.533576 0.062085 0.626523 0.097408
C11   C     C_R   0.534318 0.128887 0.505237 -0.193080
C12   C     C_R   0.570602 0.937780 0.386930 0.637307
C13   C     C_R   0.569388 0.067401 0.388361 -0.258109
C14   C     C_R   0.536238 0.871409 0.503118 -0.243951
C15   C     C_R   0.534468 0.934396 0.625346 0.065135
C16   C     C_3   0.422488 0.923517 0.728577 -0.440802
C17   C     C_3   0.420924 0.065191 0.729425 -0.323014
C18   C     C_R   0.362069 0.495177 0.055521 0.008352
C19   C     C_R   0.634414 0.522421 0.086097 0.722574
C20   C     C_R   0.634639 0.520535 0.942769 -0.214246
F1    F     F_    0.290162 0.287008 0.848958 -0.670300
F2    F     F_    0.026712 0.595560 0.646423 -0.679757
F3    F     F_    0.592725 0.879239 0.269857 -0.624993
F4    F     F_    0.770453 0.549306 0.166077 -0.616246
H1    H     H_    0.743819 0.535676 0.901291 0.194402
H2    H     H_    0.124212 0.430527 0.838197 0.139574
H3    H     H_    0.127199 0.432535 0.081102 0.226144
H4    H     H_    0.281508 0.307733 0.100364 0.244353
H5    H     H_    0.584759 0.118329 0.295728 0.214574
H6    H     H_    0.307406 0.881286 0.686672 0.227417
H7    H     H_    0.478580 0.881642 0.826215 0.234695
H8    H     H_    0.304917 0.104873 0.687229 0.244379
H9    H     H_    0.475950 0.104787 0.827910 0.255859
N1    N     N_R   0.498950 0.499140 0.142680 -0.145233
N2    N     N_R   0.498950 0.499180 0.857030 -0.121111
O1    O     O_R   0.500020 0.316790 0.614690 -0.584348
O2    O     O_R   0.500000 0.316760 0.385350 -0.623172
O3    O     O_R   0.271760 0.500010 0.587850 -0.577843
O4    O     O_R   0.271740 0.499970 0.358500 -0.604023
O5    O     O_R   0.500000 0.683240 0.614650 -0.617423
O6    O     O_R   0.499980 0.683210 0.385310 -0.545470
O7    O     O_R   0.728260 0.500030 0.641500 -0.623235
O8    O     O_R   0.728240 0.499990 0.412150 -0.544139
Zn1   Zn    Zn3+2 0.500010 0.500020 0.653130 1.026820
Zn2   Zn    Zn3+2 0.499990 0.499980 0.346870 1.071340

loop_
_geom_bond_atom_site_label_1
_geom_bond_atom_site_label_2
_ccdc_geom_bond_type
O4    Zn2   S    
C10   C11   A    
C10   C17   S    
C4    C8    S    
C9    F2    S    
C3    F1    S    
C8    C9    D    
C1    O2    A    
C7    O7    A    
O3    Zn1   S    
C1    C11   S    
C3    H2    S    
C6    O5    A    
C16   C17   S    
N2    Zn1   S    
C20   N2    A    
C18   N1    A    
C12   C13   A    
C2    C18   A    
C5    C18   S    
O7    Zn1   S    
C1    O1    A    
C2    N2    A    
C13   H5    S    
C17   H9    S    
C7    C9    S    
C20   H1    S    
O8    Zn2   S    
C12   C14   A    
C16   H6    S    
C17   H8    S    
O2    Zn2   S    
C10   C15   A    
C19   F4    S    
O1    Zn1   S    
C14   C15   A    
C7    O8    A    
C5    H4    S    
Br1   C8    S    
C19   C20   A    
C3    C5    S    
O6    Zn2   S    
C6    O6    A    
C16   H7    S    
C4    O3    A    
O5    Zn1   S    
C6    C14   S    
C4    O4    A    
N1    Zn2   S    
C19   N1    A    
C5    H3    S    
C2    C3    S    
C12   F3    S    
C11   C13   A    
C15   C16   S    
