data_mof_unit_59309.cif
_audit_creation_date              2012-12-10T16:54:55-0500
_audit_creation_method            fapswitch 2.2
_symmetry_space_group_name_H-M    P1
_symmetry_Int_Tables_number       1
_space_group_crystal_system       triclinic
_cell_length_a                    7.76009
_cell_length_b                    8.603266
_cell_length_c                    15.737048
_cell_angle_alpha                 90.864266
_cell_angle_beta                  85.939403
_cell_angle_gamma                 93.572481
_cell_volume                      1045.90466458

loop_
_atom_site_label
_atom_site_type_symbol
_atom_type_description
_atom_site_fract_x
_atom_site_fract_y
_atom_site_fract_z
_atom_type_partial_charge
C1    C     C_R   0.546079 0.794308 0.502145 0.908214
C2    C     C_3   0.347539 0.589913 0.052311 -0.169341
C3    C     C_3   0.495579 0.493027 0.082728 0.061614
C4    C     C_3   0.473699 0.319401 0.049079 0.290365
C5    C     C_3   0.471996 0.320789 0.948960 0.219763
C6    C     C_1   0.492350 0.496162 0.174658 0.000655
C7    C     C_1   0.507387 0.494013 0.825264 -0.005295
C8    C     C_1   0.506426 0.496878 0.750100 -0.163681
C9    C     C_2   0.571587 0.955785 0.516029 -0.202589
C10   C     C_2   0.434657 0.042044 0.507855 -0.411283
C11   C     C_R   0.502159 0.499849 0.661554 0.891982
C12   C     C_R   0.455226 0.205627 0.505702 0.961908
C13   C     C_R   0.497828 0.499939 0.338452 0.908681
C14   C     C_3   0.354978 0.588281 0.953738 -0.640257
C15   C     C_3   0.678964 0.565925 0.947151 0.311119
C16   C     C_3   0.672253 0.568115 0.045518 -0.454907
C17   C     C_1   0.493044 0.498378 0.249879 -0.151921
C18   C     C_3   0.505257 0.491098 0.916824 0.175348
H1    H     H_    0.229337 0.537531 0.932537 0.219549
H2    H     H_    0.219662 0.537896 0.077201 0.163886
H3    H     H_    0.307494 0.991546 0.494070 0.184758
H4    H     H_    0.013602 0.381914 0.436810 0.202018
H5    H     H_    0.986371 0.618036 0.563215 0.194579
H6    H     H_    0.372066 0.708597 0.927747 0.206526
H7    H     H_    0.696365 0.689189 0.925129 0.084213
H8    H     H_    0.691169 0.690440 0.068687 0.171671
H9    H     H_    0.781872 0.506498 0.068342 0.205858
H10   H     H_    0.341495 0.278211 0.929458 0.099843
N1    N     N_2   0.950340 0.457950 0.477370 -0.163762
N2    N     N_2   0.049660 0.542050 0.522630 -0.167141
O1    O     O_R   0.389240 0.738570 0.505550 -0.617644
O2    O     O_R   0.678400 0.711630 0.491050 -0.628609
O3    O     O_R   0.355360 0.513470 0.630110 -0.611854
O4    O     O_R   0.644510 0.486530 0.615610 -0.620685
O5    O     O_R   0.321600 0.288370 0.508950 -0.619309
O6    O     O_R   0.610760 0.261430 0.494450 -0.603045
O7    O     O_R   0.355490 0.513470 0.384390 -0.616885
O8    O     O_R   0.644640 0.486530 0.369890 -0.610177
Zn1   Zn    Zn3+2 0.306930 0.517990 0.509680 0.967635
Zn2   Zn    Zn3+2 0.693070 0.482010 0.490320 0.972236
C19   C     C_1   0.356135 0.752084 0.085240 0.205109
N3    N     N_1   0.362797 0.878804 0.111060 -0.147557
C20   C     C_1   0.616986 0.228775 0.075788 0.356915
N4    N     N_1   0.728604 0.158090 0.096654 -0.207105
C21   C     C_1   0.739254 0.013065 0.544226 0.249314
N5    N     N_1   0.872476 0.057977 0.566640 -0.195268
O9    O     O_3   0.820775 0.483428 0.914821 -0.712919
H11   H     H_    0.854475 0.523000 0.856696 0.336097
O10   O     O_3   0.594454 0.224504 0.908648 -0.712541
H12   H     H_    0.545103 0.115556 0.914489 0.326868
O11   O     O_3   0.319994 0.244322 0.085957 -0.775735
H13   H     H_    0.218870 0.284021 0.060049 0.332787

loop_
_geom_bond_atom_site_label_1
_geom_bond_atom_site_label_2
_ccdc_geom_bond_type
C15   C18   S    
O5    Zn1   S    
C20   N4    T    
C9    C21   S    
N1    N2    D    
H4    N1    S    
C13   C17   S    
C12   O6    A    
C5    H10   S    
C9    C10   D    
C14   C18   S    
C13   O7    A    
O9    H11   S    
C15   O9    S    
C3    C6    S    
C7    C18   S    
C16   H9    S    
C2    C3    S    
C3    C4    S    
C7    C8    T    
O7    Zn1   S    
C21   N5    T    
C12   O5    A    
O8    Zn2   S    
C5    O10   S    
C13   O8    A    
O3    Zn1   S    
C10   C12   S    
C14   H6    S    
C8    C11   S    
O4    Zn2   S    
N1    Zn2   S    
C4    C20   S    
O1    Zn1   S    
N2    Zn1   S    
O2    Zn2   S    
C10   H3    S    
C16   H8    S    
C2    C14   S    
C15   H7    S    
C1    O2    A    
C4    O11   S    
C2    H2    S    
C15   C16   S    
H5    N2    S    
C1    O1    A    
C1    C9    S    
O10   H12   S    
C19   N3    T    
C11   O3    A    
C6    C17   T    
O6    Zn2   S    
C5    C18   S    
C2    C19   S    
C14   H1    S    
C11   O4    A    
C3    C16   S    
O11   H13   S    
C4    C5    S    
