data_mof_unit_57426.cif
_audit_creation_date              2012-12-10T17:23:08-0500
_audit_creation_method            fapswitch 2.2
_symmetry_space_group_name_H-M    P1
_symmetry_Int_Tables_number       1
_space_group_crystal_system       triclinic
_cell_length_a                    15.871716
_cell_length_b                    10.876426
_cell_length_c                    9.668746
_cell_angle_alpha                 91.551336
_cell_angle_beta                  88.665992
_cell_angle_gamma                 91.509087
_cell_volume                      1667.47601891

loop_
_atom_site_label
_atom_site_type_symbol
_atom_type_description
_atom_site_fract_x
_atom_site_fract_y
_atom_site_fract_z
_atom_type_partial_charge
C1    C     C_R   0.501552 0.262436 0.499016 0.859465
C2    C     C_3   0.084238 0.496988 0.509018 0.090009
C3    C     C_3   0.969907 0.515475 0.635601 -0.084474
C4    C     C_3   0.916259 0.494679 0.505052 0.040154
C5    C     C_3   0.028846 0.605265 0.555847 -0.050817
C6    C     C_3   0.975354 0.584338 0.425458 -0.151956
C7    C     C_1   0.175649 0.497496 0.508131 0.110358
C8    C     C_1   0.824685 0.495061 0.500321 0.113359
C9    C     C_R   0.573312 0.124620 0.731010 -0.001835
C10   C     C_R   0.550600 0.087077 0.866672 -0.126460
C11   C     C_R   0.503027 0.977015 0.882104 0.396889
C12   C     C_R   0.340335 0.499334 0.501459 0.786478
C13   C     C_R   0.490206 0.899443 0.766122 -0.264330
C14   C     C_R   0.506757 0.941943 0.631659 -0.009165
C15   C     C_R   0.531565 0.065687 0.617849 0.002173
C16   C     C_R   0.503375 0.127625 0.499807 -0.180216
C17   C     C_R   0.462401 0.057872 0.394573 0.436414
C18   C     C_R   0.469701 0.931178 0.390372 -0.273824
C19   C     C_R   0.491199 0.871121 0.509518 -0.162690
C20   C     C_R   0.641398 0.600122 0.128180 -0.061924
C21   C     C_R   0.677326 0.710527 0.079373 0.487323
C22   C     C_R   0.664427 0.738271 0.941789 -0.263945
C23   C     C_R   0.496373 0.737186 0.502702 0.809608
C24   C     C_R   0.610568 0.663220 0.862445 -0.209497
C25   C     C_R   0.557371 0.573658 0.925742 0.217535
C26   C     C_R   0.563931 0.560468 0.071749 0.048425
C27   C     C_R   0.438977 0.439508 0.071710 0.108819
C28   C     C_R   0.441541 0.436246 0.924390 0.027834
C29   C     C_R   0.659793 0.499932 0.498905 0.842073
C30   C     C_3   0.972602 0.387130 0.460333 0.436125
C31   C     C_3   0.031007 0.475861 0.378997 -0.071527
C32   C     C_1   0.250992 0.498263 0.505289 -0.118119
C33   C     C_1   0.749324 0.497215 0.497709 -0.078410
C34   C     C_3   0.026861 0.406342 0.590777 -0.335660
Cu1   Cu    Cu3+1 0.499990 0.499990 0.640660 0.958183
Cu2   Cu    Cu3+1 0.500010 0.500010 0.359340 0.953081
H1    H     H_    0.457824 0.813128 0.783588 0.189460
H2    H     H_    0.447740 0.879105 0.300837 0.194109
H3    H     H_    0.700808 0.811830 0.893704 0.168500
H4    H     H_    0.611408 0.680860 0.754734 0.214751
H5    H     H_    0.395230 0.381946 0.867248 0.153285
H6    H     H_    0.048929 0.333685 0.658788 0.153377
N1    N     N_R   0.500800 0.501210 0.147910 -0.226857
N2    N     N_R   0.500830 0.501290 0.852040 -0.203952
O1    O     O_R   0.499990 0.319640 0.618810 -0.578418
O2    O     O_R   0.500000 0.319660 0.381240 -0.583437
O3    O     O_R   0.379070 0.499980 0.618770 -0.582014
O4    O     O_R   0.379080 0.500000 0.381190 -0.593422
O5    O     O_R   0.500000 0.680340 0.618760 -0.617867
O6    O     O_R   0.500010 0.680360 0.381190 -0.582697
O7    O     O_R   0.620920 0.500000 0.618810 -0.568806
O8    O     O_R   0.620930 0.500020 0.381230 -0.605735
C35   C     C_2   0.061323 0.451580 0.233104 0.396957
H7    H     H_    0.015867 0.437392 0.151791 0.092918
O9    O     O_2   0.136525 0.447838 0.204944 -0.507434
O10   O     O_3   0.470864 0.945470 0.011631 -0.630327
C36   C     C_3   0.381584 0.930723 0.010001 0.077693
H8    H     H_    0.360174 0.903248 0.114748 0.172987
H9    H     H_    0.360630 0.854026 0.939801 0.134684
C37   C     C_3   0.337678 0.050335 0.975763 -0.346301
H10   H     H_    0.361507 0.125845 0.044485 0.263198
H11   H     H_    0.352260 0.075215 0.866914 0.202187
C38   C     C_3   0.242164 0.037228 0.994056 -0.838477
H12   H     H_    0.217231 0.962648 0.924402 0.260168
H13   H     H_    0.212703 0.124816 0.967766 0.280708
H14   H     H_    0.224755 0.016115 0.102812 0.253146
C39   C     C_2   0.370699 0.368179 0.138537 0.361306
H15   H     H_    0.380729 0.327395 0.235712 0.148283
O11   O     O_2   0.302412 0.352936 0.084066 -0.551962
C40   C     C_2   0.702737 0.501039 0.148947 0.485773
H16   H     H_    0.680661 0.405996 0.153526 0.103459
O12   O     O_2   0.778080 0.523591 0.160754 -0.485988
O13   O     O_3   0.742297 0.769290 0.149229 -0.529918
C41   C     C_3   0.709339 0.863809 0.236433 0.102797
H17   H     H_    0.742866 0.862814 0.335945 0.195042
H18   H     H_    0.640719 0.851744 0.263243 0.120307
C42   C     C_3   0.726231 0.988498 0.170288 -0.400361
H19   H     H_    0.794651 0.999826 0.145254 0.241352
H20   H     H_    0.691195 0.991966 0.072484 0.209939
C43   C     C_3   0.699162 0.094077 0.266855 -0.836920
H21   H     H_    0.630944 0.085318 0.292324 0.257190
H22   H     H_    0.712038 0.183208 0.216228 0.265400
H23   H     H_    0.734416 0.093374 0.364139 0.275480
O14   O     O_3   0.946989 0.271625 0.403234 -0.611774
C44   C     C_3   0.898466 0.204361 0.501105 0.063920
H24   H     H_    0.831321 0.228250 0.492412 0.193250
H25   H     H_    0.917569 0.223147 0.609977 0.141108
C45   C     C_3   0.908190 0.066770 0.469764 -0.324805
H26   H     H_    0.886305 0.043938 0.363612 0.237067
H27   H     H_    0.975919 0.043844 0.474208 0.223918
C46   C     C_3   0.858100 0.988670 0.573534 -0.923183
H28   H     H_    0.881886 0.006145 0.679586 0.257296
H29   H     H_    0.865278 0.889664 0.546088 0.272627
H30   H     H_    0.790098 0.009990 0.572425 0.265925
C47   C     C_2   0.951861 0.686274 0.333975 0.386214
H31   H     H_    0.000788 0.737893 0.278880 0.066802
O15   O     O_2   0.878301 0.712499 0.322073 -0.493224
C48   C     C_2   0.058014 0.728545 0.612108 0.312652
H32   H     H_    0.012344 0.799014 0.635448 0.081054
O16   O     O_2   0.132579 0.750046 0.632514 -0.554467
C49   C     C_2   0.938137 0.537474 0.781117 0.378329
H33   H     H_    0.982734 0.550583 0.863861 0.088008
O17   O     O_2   0.862654 0.540758 0.807382 -0.520443
O18   O     O_3   0.408425 0.108936 0.303225 -0.630374
C50   C     C_3   0.329128 0.130153 0.370731 0.014072
H34   H     H_    0.289664 0.178384 0.297301 0.202628
H35   H     H_    0.335868 0.192585 0.463186 0.112869
C51   C     C_3   0.280199 0.011561 0.410231 -0.364290
H36   H     H_    0.281006 0.944382 0.321858 0.219029
H37   H     H_    0.309947 0.969496 0.499805 0.226401
C52   C     C_3   0.188762 0.038578 0.450472 -0.861684
H38   H     H_    0.186257 0.103627 0.540992 0.255054
H39   H     H_    0.154851 0.951912 0.478119 0.279957
H40   H     H_    0.156223 0.078931 0.362563 0.258103
C53   C     C_2   0.647904 0.207752 0.705172 0.412721
H41   H     H_    0.683014 0.249891 0.789276 0.139398
O19   O     O_2   0.674556 0.224489 0.587635 -0.631648
C54   C     C_2   0.567876 0.164288 0.992389 0.294265
H42   H     H_    0.554736 0.127872 0.093990 0.166002
O20   O     O_2   0.592846 0.270815 0.985170 -0.615802

loop_
_geom_bond_atom_site_label_1
_geom_bond_atom_site_label_2
_ccdc_geom_bond_type
C38   H13   S    
C49   H33   S    
C29   C33   S    
C11   C13   A    
O13   C41   S    
C47   H31   S    
C34   H6    S    
C12   O4    A    
Cu1   O3    S    
C44   H24   S    
C51   H36   S    
C50   H35   S    
C41   H18   S    
C37   C38   S    
C17   O18   S    
C12   O3    A    
C5    C6    S    
C5    C48   S    
C36   H9    S    
C15   C16   A    
C21   O13   S    
C28   H5    S    
O10   C36   S    
C37   H11   S    
C18   C19   A    
C54   H42   S    
C2    C7    S    
O14   C44   S    
Cu1   Cu2   S    
C16   C17   A    
C53   O19   D    
C41   C42   S    
Cu1   O5    S    
Cu2   O2    S    
C40   H16   S    
C9    C10   A    
C13   H1    S    
Cu2   O8    S    
C4    C8    S    
C45   H26   S    
C2    C34   S    
C42   H20   S    
C6    C31   S    
C38   H14   S    
C49   O17   D    
C21   C22   A    
C12   C32   S    
C30   O14   S    
C20   C40   S    
C43   H23   S    
C25   N2    A    
O18   C50   S    
C26   N1    A    
C35   O9    D    
C50   C51   S    
C41   H17   S    
C30   C34   S    
C44   H25   S    
C39   H15   S    
C9    C53   S    
C24   C25   A    
C4    C6    S    
C46   H28   S    
C36   C37   S    
C3    C34   S    
C3    C5    S    
C25   C26   A    
C42   H19   S    
C28   N2    A    
C37   H10   S    
C39   O11   D    
C19   C23   S    
C10   C54   S    
C46   H29   S    
C45   C46   S    
C17   C18   A    
C52   H39   S    
C1    C16   S    
C31   C35   S    
Cu1   N2    S    
C43   H22   S    
C45   H27   S    
C6    C47   S    
C48   O16   D    
Cu1   O7    S    
C22   C24   A    
C2    C5    S    
C3    C4    S    
Cu1   O1    S    
Cu2   O6    S    
C29   O7    A    
C44   C45   S    
C7    C32   T    
C52   H38   S    
C14   C19   A    
C43   H21   S    
C23   O6    A    
C47   O15   D    
C35   H7    S    
C23   O5    A    
C50   H34   S    
C51   C52   S    
C18   H2    S    
C1    O1    A    
C46   H30   S    
C42   C43   S    
C3    C49   S    
C36   H8    S    
C30   C31   S    
C20   C26   A    
C22   H3    S    
C24   H4    S    
C51   H37   S    
Cu2   O4    S    
C52   H40   S    
C8    C33   T    
C9    C15   A    
C1    O2    A    
C54   O20   D    
C27   C39   S    
C10   C11   A    
C38   H12   S    
C27   N1    A    
C20   C21   A    
C48   H32   S    
C27   C28   A    
C14   C15   A    
C2    C31   S    
Cu2   N1    S    
C40   O12   D    
C13   C14   A    
C4    C30   S    
C11   O10   S    
C53   H41   S    
C29   O8    A    
