data_mof_unit_58157.cif
_audit_creation_date              2013-03-05T16:34:51-0500
_audit_creation_method            fapswitch 2.2
_symmetry_space_group_name_H-M    P1
_symmetry_Int_Tables_number       1
_space_group_crystal_system       triclinic
_cell_length_a                    15.109706
_cell_length_b                    9.093769
_cell_length_c                    7.788302
_cell_angle_alpha                 89.969034
_cell_angle_beta                  90.278179
_cell_angle_gamma                 90.007451
_cell_volume                      1070.13244103

loop_
_atom_site_label
_atom_site_type_symbol
_atom_site_description
_atom_site_fract_x
_atom_site_fract_y
_atom_site_fract_z
_atom_type_partial_charge
O1    O     O_R   0.500000 0.288390 0.642760 -0.583158
O2    O     O_R   0.500000 0.711610 0.357240 -0.583158
O3    O     O_R   0.500000 0.711610 0.642760 -0.573928
O4    O     O_R   0.500000 0.288390 0.357240 -0.573928
H1    H     H_    0.920157 0.253953 0.172676 0.196686
H2    H     H_    0.079843 0.746046 0.827324 0.196686
H3    H     H_    0.921431 0.739482 0.833714 0.163682
H4    H     H_    0.078569 0.260518 0.166286 0.163682
C1    C     C_R   0.499999 0.220036 0.500023 0.831681
C2    C     C_R   0.500001 0.779964 0.499977 0.831681
O5    O     O_R   0.370260 0.500000 0.642800 -0.581246
O6    O     O_R   0.629740 0.500000 0.357200 -0.581246
O7    O     O_R   0.629740 0.500000 0.642800 -0.535343
O8    O     O_R   0.370260 0.500000 0.357200 -0.535343
C3    C     C_R   0.328515 0.502056 0.499496 0.855457
C4    C     C_R   0.671485 0.497944 0.500503 0.855457
Cu1   Cu    Cu3+1 0.500000 0.500000 0.669080 1.057639
Cu2   Cu    Cu3+1 0.500000 0.500000 0.330920 1.057639
N1    N     N_1   0.500000 0.500000 0.076820 -0.024483
N2    N     N_1   0.500000 0.500000 0.923180 -0.024483
C5    C     C_R   0.813321 0.591375 0.612368 0.321779
C6    C     C_R   0.186679 0.408625 0.387632 0.321779
C7    C     C_R   0.814392 0.400435 0.389671 0.279170
C8    C     C_R   0.185608 0.599565 0.610329 0.279170
C9    C     C_R   0.767966 0.494370 0.502373 -0.209533
C10   C     C_R   0.232034 0.505629 0.497627 -0.209533
C11   C     C_R   0.906871 0.408021 0.383980 0.076833
C12   C     C_R   0.093129 0.591979 0.616020 0.076833
C13   C     C_R   0.906580 0.590017 0.616617 0.007966
C14   C     C_R   0.093420 0.409983 0.383383 0.007966
C15   C     C_R   0.953267 0.499734 0.499984 -0.019467
C16   C     C_R   0.046733 0.500266 0.500015 -0.019467
C17   C     C_R   0.954020 0.322751 0.265595 -0.122004
C18   C     C_R   0.045980 0.677248 0.734405 -0.122004
C19   C     C_R   0.954171 0.674924 0.736240 -0.215633
C20   C     C_R   0.045829 0.325076 0.263760 -0.215633
C21   C     C_1   0.500001 0.065375 0.500031 -0.149750
C22   C     C_1   0.499998 0.934625 0.499969 -0.149750
O9    O     O_3   0.764388 0.687641 0.711199 -0.703586
H5    H     H_    0.795195 0.783722 0.713537 0.319698
O10   O     O_3   0.235612 0.312359 0.288801 -0.703586
H6    H     H_    0.204805 0.216278 0.286463 0.319698
O11   O     O_3   0.771638 0.299441 0.285321 -0.717536
H7    H     H_    0.715290 0.269641 0.339508 0.325078
O12   O     O_3   0.228362 0.700558 0.714678 -0.717536
H8    H     H_    0.284710 0.730358 0.660492 0.325078

loop_
_geom_bond_atom_site_label_1
_geom_bond_atom_site_label_2
_geom_bond_distance
_ccdc_geom_bond_type
O11   H7    0.989817 S    
C21   C22   1.189015 T    
O7    Cu1   1.971978 S    
O2    Cu2   1.935330 S    
C8    C12   1.399940 A    
O10   H6    0.990080 S    
C13   C19   1.405486 A    
O1    Cu1   1.935331 S    
N1    N2    1.196595 T    
C5    O9    1.382721 S    
C14   C20   1.405486 A    
C2    C22   1.406446 S    
O4    Cu2   1.935111 S    
Cu1   N2    1.979007 S    
O5    C3    1.279455 A    
C1    C21   1.406446 S    
Cu1   Cu2   2.633693 S    
C12   C18   1.402220 A    
C13   C15   1.415629 A    
O3    C2    1.273679 A    
O12   H8    0.989817 S    
C11   C17   1.402220 A    
C14   C16   1.415629 A    
H3    C19   1.081615 S    
C8    O12   1.384496 S    
C8    C10   1.413923 A    
O3    Cu1   1.935110 S    
C7    C11   1.399940 A    
C7    C9    1.413923 A    
H4    C20   1.081615 S    
C6    O10   1.382721 S    
O9    H5    0.990080 S    
C11   C15   1.413438 A    
O2    C2    1.273956 A    
O6    C4    1.279455 A    
C12   C16   1.413438 A    
C17   C20   1.387511 A    
O1    C1    1.273956 A    
C18   C19   1.387511 A    
C6    C10   1.405937 A    
O7    C4    1.277977 A    
O6    Cu2   1.970001 S    
C4    C9    1.458168 S    
C5    C9    1.405937 A    
O8    C3    1.277977 A    
Cu2   N1    1.979007 S    
C3    C10   1.458168 S    
C6    C14   1.409393 A    
O4    C1    1.273679 A    
C7    O11   1.384496 S    
C5    C13   1.409393 A    
O8    Cu2   1.971979 S    
C15   C16   1.412261 A    
O5    Cu1   1.970002 S    
H2    C18   1.083388 S    
H1    C17   1.083388 S    
