data_mof_unit_9662.cif
_audit_creation_date              2012-12-11T16:29:22-0500
_audit_creation_method            fapswitch 2.2
_symmetry_space_group_name_H-M    P1
_symmetry_Int_Tables_number       1
_space_group_crystal_system       triclinic
_cell_length_a                    6.951409
_cell_length_b                    17.355388
_cell_length_c                    18.736675
_cell_angle_alpha                 106.305984
_cell_angle_beta                  89.728239
_cell_angle_gamma                 90.499609
_cell_volume                      2169.46083448

loop_
_atom_site_label
_atom_site_type_symbol
_atom_type_description
_atom_site_fract_x
_atom_site_fract_y
_atom_site_fract_z
_atom_type_partial_charge
O1    O     O_R   0.494360 0.415680 0.413760 -0.533090
O2    O     O_R   0.818810 0.432910 0.557230 -0.523674
O3    O     O_R   0.994290 0.584320 0.586240 -0.532872
C1    C     C_R   0.649788 0.415917 0.580585 0.711661
O4    O     O_R   0.823740 0.406440 0.412520 -0.535723
O5    O     O_R   0.999250 0.557660 0.440500 -0.527187
C2    C     C_R   0.654802 0.383690 0.384838 0.698049
O6    O     O_R   0.489400 0.442340 0.559500 -0.527167
O7    O     O_3   0.662500 0.549650 0.509350 -0.358566
V1    V     V_3+5 0.935340 0.490790 0.498270 1.410479
O8    O     O_R   0.329270 0.567090 0.442770 -0.522386
C3    C     C_R   0.161129 0.584015 0.419352 0.711936
O9    O     O_R   0.324340 0.593560 0.587480 -0.534696
C4    C     C_R   0.155461 0.616294 0.615194 0.697279
V2    V     V_3+5 0.435970 0.509210 0.501730 1.412109
O10   O     O_3   0.158940 0.450350 0.490650 -0.360412
H1    H     H_    0.832919 0.844735 0.562396 0.116027
C5    C     C_R   0.314647 0.606228 0.755054 -0.197036
C6    C     C_R   0.392386 0.598872 0.821173 -0.115327
C7    C     C_R   0.380404 0.662278 0.886653 0.184986
C8    C     C_R   0.288388 0.732989 0.884306 -0.196791
C9    C     C_R   0.211931 0.742682 0.817474 0.053043
C10   C     C_R   0.225078 0.677858 0.751451 0.070597
C11   C     C_R   0.119827 0.814999 0.816172 -0.176718
C12   C     C_R   0.040805 0.822186 0.748632 0.067458
C13   C     C_R   0.053943 0.757224 0.682521 0.068014
C14   C     C_R   0.145577 0.684884 0.683890 -0.179121
C15   C     C_R   0.952202 0.894178 0.744990 -0.142812
C16   C     C_R   0.876775 0.901608 0.678534 -0.122194
C17   C     C_R   0.890018 0.838367 0.614076 -0.119495
C18   C     C_R   0.978518 0.767162 0.615598 -0.131491
H2    H     H_    0.460170 0.542786 0.820261 0.128280
H3    H     H_    0.276584 0.780141 0.936008 0.107298
H4    H     H_    0.809269 0.957077 0.676937 0.117537
C19   C     C_1   0.111966 0.863778 0.132492 -0.226445
C20   C     C_1   0.119485 0.821157 0.176010 -0.008105
C21   C     C_1   0.128775 0.770920 0.227883 -0.005690
C22   C     C_1   0.136648 0.728638 0.271700 -0.005399
C23   C     C_1   0.145857 0.678460 0.323633 -0.004541
C24   C     C_1   0.153264 0.635940 0.367248 -0.221483
C25   C     C_1   0.641080 0.363915 0.632544 -0.226468
C26   C     C_1   0.636855 0.321281 0.676077 -0.008079
C27   C     C_1   0.633571 0.271021 0.727950 -0.005340
C28   C     C_1   0.631202 0.228703 0.771778 -0.005158
C29   C     C_1   0.627993 0.178498 0.823705 -0.004586
C30   C     C_1   0.623874 0.135955 0.867324 -0.221285
C31   C     C_R   0.816409 0.394887 0.245276 -0.142483
C32   C     C_R   0.894592 0.402495 0.178994 -0.122226
C33   C     C_R   0.882407 0.339096 0.114578 -0.119340
C34   C     C_R   0.792188 0.267562 0.115972 -0.131824
C35   C     C_R   0.713903 0.257465 0.182726 0.067838
C36   C     C_R   0.725996 0.322565 0.248787 0.067466
C37   C     C_R   0.620515 0.184814 0.183986 -0.178982
C38   C     C_R   0.538399 0.177558 0.251377 0.070663
C39   C     C_R   0.550475 0.242524 0.317348 0.052881
C40   C     C_R   0.644264 0.315165 0.316151 -0.176733
C41   C     C_R   0.447216 0.105564 0.254861 -0.196657
C42   C     C_R   0.367064 0.097965 0.320830 -0.115335
C43   C     C_R   0.378014 0.161517 0.386271 0.185060
C44   C     C_R   0.471324 0.232645 0.384021 -0.197157
H5    H     H_    0.437440 0.053761 0.206795 0.120804
H6    H     H_    0.298198 0.041593 0.319831 0.128334
H7    H     H_    0.482043 0.279964 0.435679 0.107078
O11   O     O_R   0.775690 0.057750 0.940570 -0.526696
O12   O     O_R   0.441200 0.093570 0.087490 -0.534212
O13   O     O_R   0.265840 0.942320 0.059480 -0.527662
C45   C     C_R   0.610089 0.116329 0.115238 0.698024
O14   O     O_R   0.446270 0.067110 0.942790 -0.523178
O15   O     O_R   0.270950 0.915660 0.913750 -0.532598
C46   C     C_R   0.615267 0.084069 0.919397 0.712151
O16   O     O_R   0.770580 0.084400 0.086300 -0.533510
O17   O     O_3   0.602640 0.950400 0.990690 -0.360555
V3    V     V_3+5 0.329740 0.009200 0.001730 1.412854
O18   O     O_R   0.940900 0.906360 0.912450 -0.536309
C47   C     C_R   0.109829 0.883628 0.884808 0.697380
O19   O     O_R   0.935830 0.932820 0.057160 -0.522978
C48   C     C_R   0.103997 0.915849 0.080528 0.711453
V4    V     V_3+5 0.829130 0.990680 0.998180 1.409724
O20   O     O_3   0.106100 0.049590 0.009310 -0.358425
H8    H     H_    0.826397 0.446728 0.293290 0.109940
H9    H     H_    0.963448 0.458215 0.177494 0.117671
H10   H     H_    0.941701 0.345587 0.063030 0.116046
H11   H     H_    0.783031 0.220882 0.063884 0.106621
H12   H     H_    0.325108 0.554536 0.706959 0.121081
C49   C     C_3   0.461109 0.658295 0.960672 -0.359977
C50   C     C_3   0.564423 0.580528 0.959544 -0.766248
H13   H     H_    0.463591 0.528593 0.943153 0.225632
H14   H     H_    0.688859 0.570909 0.920703 0.228127
H15   H     H_    0.619293 0.584731 0.016087 0.223781
H16   H     H_    0.564475 0.708912 0.980899 0.183414
H17   H     H_    0.341365 0.666941 0.001639 0.180970
H18   H     H_    0.941505 0.945901 0.793037 0.110104
H19   H     H_    0.988731 0.720629 0.563470 0.106707
C51   C     C_3   0.294805 0.157279 0.460146 -0.359673
C52   C     C_3   0.192119 0.078660 0.459107 -0.765855
H20   H     H_    0.068485 0.067829 0.420083 0.227881
H21   H     H_    0.293737 0.027595 0.443002 0.225722
H22   H     H_    0.136096 0.082560 0.515611 0.223602
H23   H     H_    0.413164 0.167228 0.501536 0.180878
H24   H     H_    0.190488 0.207025 0.479783 0.183311

loop_
_geom_bond_atom_site_label_1
_geom_bond_atom_site_label_2
_ccdc_geom_bond_type
C42   H6    S    
C39   C40   A    
C25   C26   T    
C52   H20   S    
C1    O6    A    
C49   H17   S    
C52   H22   S    
C49   C50   S    
C12   C15   A    
C13   C14   A    
C21   C22   T    
C44   H7    S    
C31   H8    S    
C8    C9    A    
C15   C16   A    
O19   V4    S    
O5    C3    A    
C17   C18   A    
C50   H14   S    
C8    H3    S    
C1    C25   S    
V2    O10   S    
O12   V3    S    
C32   H9    S    
C5    C6    A    
O17   V4    S    
O8    V2    S    
C19   C20   T    
O12   C45   A    
C5    H12   S    
O15   V3    S    
O1    V2    S    
C43   C51   S    
O11   C46   A    
C4    C14   S    
O7    V1    S    
C43   C44   A    
C39   C44   A    
H1    C17   S    
C2    C40   S    
C6    H2    S    
C34   H11   S    
O18   C47   A    
C35   C36   A    
C11   C12   A    
C23   C24   T    
O4    C2    A    
C50   H13   S    
O14   V3    S    
C18   H19   S    
O13   V3    S    
C16   H4    S    
C19   C48   S    
C5    C10   A    
C35   C37   A    
C33   H10   S    
C3    C24   S    
O2    C1    A    
C27   C28   T    
C16   C17   A    
C31   C32   A    
C51   H24   S    
C49   H16   S    
C7    C49   S    
C34   C35   A    
V3    O20   S    
C15   H18   S    
O19   C48   A    
C41   H5    S    
O3    C4    A    
C32   C33   A    
O6    V2    S    
C10   C14   A    
O9    V2    S    
C9    C11   A    
C42   C43   A    
C26   C27   S    
O2    V1    S    
C28   C29   S    
O13   C48   A    
C38   C39   A    
C20   C21   S    
O1    C2    A    
O11   V4    S    
O17   V3    S    
C50   H15   S    
O5    V1    S    
O8    C3    A    
C52   H21   S    
C11   C47   S    
C37   C38   A    
C31   C36   A    
C6    C7    A    
C12   C13   A    
O4    V1    S    
O3    V1    S    
V1    O10   S    
V4    O20   S    
C41   C42   A    
C22   C23   S    
C51   H23   S    
O15   C47   A    
C45   O16   A    
O7    V2    S    
C51   C52   S    
C37   C45   S    
C30   C46   S    
C29   C30   T    
C13   C18   A    
C7    C8    A    
O14   C46   A    
C33   C34   A    
O18   V4    S    
C9    C10   A    
O9    C4    A    
O16   V4    S    
C36   C40   A    
C38   C41   A    
