data_mof_unit_16410.cif
_audit_creation_date              2012-12-11T14:29:59-0500
_audit_creation_method            fapswitch 2.2
_symmetry_space_group_name_H-M    P1
_symmetry_Int_Tables_number       1
_space_group_crystal_system       triclinic
_cell_length_a                    12.692201
_cell_length_b                    12.692332
_cell_length_c                    27.007399
_cell_angle_alpha                 90.00035
_cell_angle_beta                  90.001258
_cell_angle_gamma                 119.999396
_cell_volume                      3767.85689899

loop_
_atom_site_label
_atom_site_type_symbol
_atom_type_description
_atom_site_fract_x
_atom_site_fract_y
_atom_site_fract_z
_atom_type_partial_charge
C1    C     C_R   0.557293 0.455813 0.821920 0.545264
C2    C     C_R   0.894596 0.439612 0.677008 0.541918
C3    C     C_R   0.544190 0.101482 0.821920 0.545267
C4    C     C_R   0.560381 0.454988 0.677009 0.541895
C5    C     C_R   0.898520 0.442707 0.821920 0.545267
C6    C     C_R   0.545010 0.105389 0.677009 0.541886
C7    C     C_R   0.455816 0.557293 0.321919 0.545257
C8    C     C_R   0.439627 0.894621 0.177011 0.541897
C9    C     C_R   0.101476 0.544188 0.321918 0.545256
C10   C     C_R   0.454991 0.560374 0.177011 0.541906
C11   C     C_R   0.442709 0.898520 0.321920 0.545263
C12   C     C_R   0.105373 0.545003 0.177012 0.541892
C13   C     C_R   0.017495 0.520988 0.970777 0.047960
C14   C     C_R   0.525809 0.033173 0.522337 0.048075
C15   C     C_R   0.479032 0.496492 0.970779 0.047958
C16   C     C_R   0.966982 0.492685 0.522352 0.048060
C17   C     C_R   0.503502 0.982497 0.970775 0.047963
C18   C     C_R   0.507357 0.474254 0.522344 0.048051
C19   C     C_R   0.521045 0.017565 0.470767 0.047981
C20   C     C_R   0.033075 0.525737 0.022348 0.048044
C21   C     C_R   0.496513 0.479018 0.470775 0.047967
C22   C     C_R   0.492664 0.966899 0.022345 0.048052
C23   C     C_R   0.982618 0.503540 0.470785 0.047973
C24   C     C_R   0.474272 0.507327 0.022349 0.048045
C25   C     C_R   0.953415 0.673418 0.976377 0.020611
C26   C     C_R   0.670574 0.959173 0.529004 0.013772
C27   C     C_R   0.326661 0.279965 0.976383 0.020594
C28   C     C_R   0.041083 0.711464 0.529032 0.013806
C29   C     C_R   0.720026 0.046629 0.976383 0.020614
C30   C     C_R   0.288587 0.329506 0.529008 0.013786
C31   C     C_R   0.673374 0.953355 0.476383 0.020558
C32   C     C_R   0.959229 0.670628 0.028999 0.013797
C33   C     C_R   0.279956 0.326733 0.476388 0.020577
C34   C     C_R   0.711410 0.040793 0.029005 0.013806
C35   C     C_R   0.047027 0.720135 0.476412 0.020544
C36   C     C_R   0.329422 0.288588 0.029004 0.013805
C37   C     C_R   0.944880 0.572268 0.897017 -0.136782
C38   C     C_R   0.603612 0.024085 0.603600 -0.144969
C39   C     C_R   0.427743 0.372605 0.897017 -0.136780
C40   C     C_R   0.975841 0.579513 0.603604 -0.145015
C41   C     C_R   0.627403 0.055137 0.897019 -0.136782
C42   C     C_R   0.420481 0.396384 0.603599 -0.145012
C43   C     C_R   0.572256 0.944852 0.397019 -0.136776
C44   C     C_R   0.024072 0.603619 0.103603 -0.144969
C45   C     C_R   0.372604 0.427775 0.397020 -0.136788
C46   C     C_R   0.579545 0.975917 0.103604 -0.144960
C47   C     C_R   0.055211 0.627426 0.397023 -0.136778
C48   C     C_R   0.396339 0.420465 0.103601 -0.144974
C49   C     C_R   0.065153 0.530266 0.125224 -0.004338
C50   C     C_R   0.485945 0.959741 0.369904 -0.009676
C51   C     C_R   0.469720 0.534888 0.125224 -0.004333
C52   C     C_R   0.040293 0.526218 0.369908 -0.009650
C53   C     C_R   0.465105 0.934822 0.125222 -0.004322
C54   C     C_R   0.473805 0.514074 0.369906 -0.009671
C55   C     C_R   0.530307 0.065230 0.625214 -0.004309
C56   C     C_R   0.959733 0.485930 0.869907 -0.009680
C57   C     C_R   0.534921 0.469705 0.625218 -0.004325
C58   C     C_R   0.526208 0.040272 0.869907 -0.009672
C59   C     C_R   0.934780 0.465084 0.625220 -0.004312
C60   C     C_R   0.514075 0.473799 0.869907 -0.009673
C61   C     C_R   0.973691 0.591262 0.947801 0.011116
C62   C     C_R   0.600128 0.004264 0.551879 0.010717
C63   C     C_R   0.408777 0.382409 0.947805 0.011100
C64   C     C_R   0.995833 0.595894 0.551894 0.010699
C65   C     C_R   0.617589 0.026331 0.947804 0.011095
C66   C     C_R   0.404134 0.399917 0.551882 0.010691
C67   C     C_R   0.591265 0.973687 0.447800 0.011113
C68   C     C_R   0.004244 0.600124 0.051882 0.010713
C69   C     C_R   0.382412 0.408810 0.447806 0.011081
C70   C     C_R   0.595881 0.995744 0.051883 0.010705
C71   C     C_R   0.026543 0.617650 0.447821 0.011034
C72   C     C_R   0.399876 0.404118 0.051883 0.010723
C73   C     C_R   0.016075 0.427539 0.891928 -0.136903
C74   C     C_R   0.453199 0.087374 0.595401 -0.127812
C75   C     C_R   0.572468 0.588527 0.891931 -0.136887
C76   C     C_R   0.912759 0.365864 0.595413 -0.127835
C77   C     C_R   0.411474 0.983917 0.891924 -0.136920
C78   C     C_R   0.634162 0.546856 0.595411 -0.127828
C79   C     C_R   0.427602 0.016141 0.391915 -0.137009
C80   C     C_R   0.087177 0.453064 0.095420 -0.127834
C81   C     C_R   0.588546 0.572425 0.391922 -0.136905
C82   C     C_R   0.365873 0.912766 0.095413 -0.127823
C83   C     C_R   0.983939 0.411490 0.391928 -0.136938
C84   C     C_R   0.546946 0.634103 0.095422 -0.127833
C85   C     C_R   0.043924 0.443401 0.942154 0.016669
C86   C     C_R   0.452526 0.074660 0.544513 0.012734
C87   C     C_R   0.556606 0.600509 0.942157 0.016674
C88   C     C_R   0.925499 0.377914 0.544527 0.012777
C89   C     C_R   0.399487 0.956059 0.942149 0.016666
C90   C     C_R   0.622125 0.547542 0.544523 0.012778
C91   C     C_R   0.443487 0.044024 0.442138 0.016651
C92   C     C_R   0.074462 0.452380 0.044532 0.012787
C93   C     C_R   0.600539 0.556547 0.442147 0.016665
C94   C     C_R   0.377912 0.925485 0.044525 0.012776
C95   C     C_R   0.956102 0.399510 0.442154 0.016664
C96   C     C_R   0.547629 0.622071 0.044534 0.012792
C97   C     C_R   0.104380 0.379772 0.015614 -0.132411
C98   C     C_R   0.376683 0.091002 0.464643 -0.132377
C99   C     C_R   0.620237 0.724593 0.015616 -0.132413
C100  C     C_R   0.909109 0.285728 0.464657 -0.132426
C101  C     C_R   0.275389 0.895561 0.015603 -0.132484
C102  C     C_R   0.714326 0.623322 0.464653 -0.132418
C103  C     C_R   0.379975 0.104639 0.515586 -0.132618
C104  C     C_R   0.090838 0.376549 0.964667 -0.132387
C105  C     C_R   0.724661 0.620087 0.515600 -0.132448
C106  C     C_R   0.285717 0.909127 0.964657 -0.132410
C107  C     C_R   0.895535 0.275390 0.515602 -0.132509
C108  C     C_R   0.623449 0.714274 0.964669 -0.132404
Cr1   Cr    Cr6+3 0.487630 0.241180 0.750000 1.007272
Cr2   Cr    Cr6+3 0.753550 0.512370 0.750000 1.007272
Cr3   Cr    Cr6+3 0.758820 0.246450 0.750000 1.007276
Cr4   Cr    Cr6+3 0.241180 0.487630 0.250000 1.007269
Cr5   Cr    Cr6+3 0.512370 0.753550 0.250000 1.007277
Cr6   Cr    Cr6+3 0.246450 0.758820 0.250000 1.007265
H1    H     H_    0.011170 0.664930 0.127318 0.117786
H2    H     H_    0.616405 0.900726 0.379323 0.139594
H3    H     H_    0.334975 0.346274 0.127310 0.117791
H4    H     H_    0.099192 0.715664 0.379301 0.139506
H5    H     H_    0.653763 0.988839 0.127322 0.117777
H6    H     H_    0.284343 0.383589 0.379314 0.139567
H7    H     H_    0.664872 0.011118 0.627322 0.117781
H8    H     H_    0.900804 0.616458 0.879313 0.139576
H9    H     H_    0.346274 0.335071 0.627313 0.117780
H10   H     H_    0.715667 0.099209 0.879316 0.139558
H11   H     H_    0.988599 0.653682 0.627312 0.117781
H12   H     H_    0.383528 0.284350 0.879306 0.139555
H13   H     H_    0.121565 0.397769 0.111476 0.134065
H14   H     H_    0.362878 0.030197 0.370850 0.121741
H15   H     H_    0.602256 0.723780 0.111479 0.134062
H16   H     H_    0.969860 0.332703 0.370863 0.121766
H17   H     H_    0.276185 0.878359 0.111466 0.134061
H18   H     H_    0.667329 0.637140 0.370858 0.121778
H19   H     H_    0.397958 0.121829 0.611453 0.134073
H20   H     H_    0.030104 0.362791 0.870869 0.121780
H21   H     H_    0.723854 0.602109 0.611466 0.134081
H22   H     H_    0.332696 0.969880 0.870863 0.121775
H23   H     H_    0.878346 0.276176 0.611466 0.134066
H24   H     H_    0.637211 0.667304 0.870872 0.121785
H25   H     H_    0.135695 0.323340 0.032636 0.116485
H26   H     H_    0.318059 0.112472 0.443017 0.110528
H27   H     H_    0.676671 0.812339 0.032639 0.116509
H28   H     H_    0.887584 0.205624 0.443027 0.110514
H29   H     H_    0.187641 0.864243 0.032623 0.116525
H30   H     H_    0.794437 0.681886 0.443026 0.110374
H31   H     H_    0.323587 0.136014 0.532603 0.116522
H32   H     H_    0.112322 0.317934 0.943043 0.110438
H33   H     H_    0.812432 0.676460 0.532617 0.116504
H34   H     H_    0.205621 0.887648 0.943032 0.110492
H35   H     H_    0.864164 0.187629 0.532617 0.116533
H36   H     H_    0.682053 0.794374 0.943045 0.110442
O1    O     O_R   0.460870 0.120930 0.805240 -0.519498
O2    O     O_R   0.660060 0.539130 0.694760 -0.521930
O3    O     O_R   0.879070 0.339940 0.805240 -0.519498
O4    O     O_R   0.460870 0.120930 0.694760 -0.521922
O5    O     O_R   0.660060 0.539130 0.805240 -0.519492
O6    O     O_R   0.879070 0.339940 0.694760 -0.521931
O7    O     O_R   0.120930 0.460870 0.305240 -0.519503
O8    O     O_R   0.539130 0.660060 0.194760 -0.521937
O9    O     O_R   0.339940 0.879070 0.305240 -0.519513
O10   O     O_R   0.120930 0.460870 0.194760 -0.521934
O11   O     O_R   0.539130 0.660060 0.305240 -0.519496
O12   O     O_R   0.339940 0.879070 0.194760 -0.521928
O13   O     O_R   0.498910 0.350470 0.801870 -0.503286
O14   O     O_R   0.851560 0.501090 0.698130 -0.502382
O15   O     O_R   0.649530 0.148440 0.801870 -0.503284
O16   O     O_R   0.498910 0.350470 0.698130 -0.502366
O17   O     O_R   0.851560 0.501090 0.801870 -0.503279
O18   O     O_R   0.649530 0.148440 0.698130 -0.502356
O19   O     O_R   0.350470 0.498910 0.301870 -0.503288
O20   O     O_R   0.501090 0.851560 0.198130 -0.502343
O21   O     O_R   0.148440 0.649530 0.301870 -0.503295
O22   O     O_R   0.350470 0.498910 0.198130 -0.502352
O23   O     O_R   0.501090 0.851560 0.301870 -0.503287
O24   O     O_R   0.148440 0.649530 0.198130 -0.502347
O25   O     O_3   0.666667 0.333333 0.750000 -0.232570
O26   O     O_3   0.333333 0.666667 0.250000 -0.232551
C109  C     C_3   0.913767 0.738069 0.060961 -0.407596
H37   H     H_    0.991870 0.818831 0.078121 0.108251
H38   H     H_    0.857324 0.767284 0.040502 0.137909
H39   H     H_    0.852916 0.676846 0.090410 0.136778
C110  C     C_3   0.767044 0.932176 0.450315 -0.414657
H40   H     H_    0.848517 0.957364 0.473343 0.120570
H41   H     H_    0.724629 0.836022 0.438506 0.141172
H42   H     H_    0.803176 0.991477 0.417193 0.111252
C111  C     C_3   0.262049 0.175681 0.060966 -0.407589
H43   H     H_    0.233334 0.090079 0.040531 0.138043
H44   H     H_    0.323157 0.176284 0.090527 0.136670
H45   H     H_    0.180990 0.172718 0.077978 0.108276
C112  C     C_3   0.068593 0.835101 0.450320 -0.414397
H46   H     H_    0.044963 0.892402 0.473470 0.120725
H47   H     H_    0.164465 0.887902 0.438020 0.140996
H48   H     H_    0.008368 0.811940 0.417488 0.111214
C113  C     C_3   0.824303 0.086300 0.060978 -0.407528
H49   H     H_    0.826984 0.008200 0.078150 0.108241
H50   H     H_    0.909984 0.142785 0.040524 0.137889
H51   H     H_    0.823876 0.147149 0.090423 0.136782
C114  C     C_3   0.165083 0.233142 0.450305 -0.414533
H52   H     H_    0.108447 0.151829 0.473371 0.120526
H53   H     H_    0.111654 0.275781 0.438320 0.141107
H54   H     H_    0.188283 0.196711 0.417279 0.111237
C115  C     C_3   0.737945 0.913634 0.560968 -0.407623
H55   H     H_    0.818793 0.991698 0.578094 0.108274
H56   H     H_    0.676732 0.852879 0.590438 0.136769
H57   H     H_    0.767001 0.857064 0.540513 0.137986
C116  C     C_3   0.932315 0.767126 0.950296 -0.414621
H58   H     H_    0.957510 0.848613 0.973318 0.120474
H59   H     H_    0.991662 0.803241 0.917184 0.111244
H60   H     H_    0.836175 0.724741 0.938461 0.141118
C117  C     C_3   0.175681 0.262167 0.560974 -0.407565
H61   H     H_    0.090074 0.233479 0.540543 0.138066
H62   H     H_    0.172694 0.181090 0.577983 0.108306
H63   H     H_    0.176317 0.323288 0.590537 0.136675
C118  C     C_3   0.834850 0.067785 0.950298 -0.414540
H64   H     H_    0.891296 0.042800 0.973335 0.120492
H65   H     H_    0.811605 0.008301 0.917224 0.111237
H66   H     H_    0.888469 0.163894 0.938393 0.141091
C119  C     C_3   0.086775 0.824375 0.561003 -0.407565
H67   H     H_    0.008708 0.827955 0.577713 0.108363
H68   H     H_    0.146541 0.823294 0.590787 0.136453
H69   H     H_    0.144555 0.909867 0.540634 0.138312
C120  C     C_3   0.233048 0.165109 0.950298 -0.414571
H70   H     H_    0.151714 0.108535 0.973357 0.120533
H71   H     H_    0.196670 0.188312 0.917260 0.111244
H72   H     H_    0.275635 0.111623 0.938340 0.141087

loop_
_geom_bond_atom_site_label_1
_geom_bond_atom_site_label_2
_ccdc_geom_bond_type
C44   C49   A    
C79   H14   S    
C74   H19   S    
C28   C119  S    
C82   C94   A    
C85   C104  A    
C112  H48   S    
C18   C21   A    
C22   C94   A    
C115  H55   S    
C5    C56   S    
C6    C55   S    
C50   C79   A    
C30   C117  S    
C12   C49   S    
C11   O9    A    
Cr2   O25   S    
C78   C90   A    
C119  H69   S    
C31   C67   A    
C99   C108  A    
C7    O11   A    
C103  H31   S    
Cr3   O25   S    
C41   H10   S    
C12   O24   A    
Cr1   O1    S    
C41   C58   A    
C120  H72   S    
Cr2   O2    S    
C24   C96   A    
C44   C68   A    
C5    O3    A    
Cr6   O12   S    
C10   C51   S    
C10   O22   A    
C98   C103  A    
C105  H33   S    
C96   C99   A    
C110  H40   S    
C84   H15   S    
C117  H63   S    
C106  H34   S    
C46   C53   A    
C102  C105  A    
C112  H47   S    
C36   C111  S    
C84   C96   A    
C114  H53   S    
Cr2   O5    S    
C58   C77   A    
C55   C74   A    
C48   C51   A    
C98   H26   S    
C38   C55   A    
C94   C101  A    
C23   C95   A    
C109  H38   S    
C89   C106  A    
C42   H9    S    
C3    O15   A    
C19   C67   A    
Cr3   O15   S    
C77   H22   S    
C9    O7    A    
Cr5   O8    S    
Cr4   O10   S    
C78   H21   S    
C34   C70   A    
C79   C91   A    
C13   C20   A    
C33   C69   A    
C32   C68   A    
C109  H39   S    
C25   C32   A    
Cr6   O26   S    
C35   C71   A    
C26   C31   A    
C35   C112  S    
C40   C59   A    
C31   C110  S    
C115  H56   S    
C114  H52   S    
C9    C52   S    
C102  H30   S    
C48   C72   A    
C25   C116  S    
C86   C103  A    
C14   C19   A    
C42   C57   A    
C34   C113  S    
C8    O20   A    
C92   C97   A    
Cr6   O24   S    
C118  H65   S    
Cr6   O21   S    
C4    O2    A    
C6    O18   A    
C11   O23   A    
C27   C120  S    
Cr4   O7    S    
C87   C108  A    
C45   C69   A    
C18   C90   A    
C104  H32   S    
C26   C115  S    
C17   C89   A    
C14   C86   A    
C83   H16   S    
Cr1   O13   S    
C1    C60   S    
C2    O14   A    
C88   C107  A    
Cr2   O14   S    
C2    C59   S    
C81   H18   S    
C41   C65   A    
C113  H50   S    
C119  H67   S    
C76   H23   S    
C29   C34   A    
C44   H1    S    
C74   C86   A    
C76   C88   A    
C21   C69   A    
C53   C82   A    
C47   H4    S    
C80   C92   A    
C114  H54   S    
C120  H70   S    
C116  H58   S    
C23   C71   A    
C43   H2    S    
C81   C93   A    
Cr2   O17   S    
C29   C118  S    
Cr4   O19   S    
C33   C114  S    
C113  H51   S    
C83   C95   A    
C101  H29   S    
C117  H61   S    
C25   C61   A    
C12   O10   A    
Cr1   O4    S    
Cr3   O3    S    
C47   C71   A    
C30   C66   A    
C52   C83   A    
C27   C63   A    
C37   C56   A    
Cr5   O26   S    
C29   C65   A    
C39   C60   A    
C28   C64   A    
C45   H6    S    
C75   C87   A    
C15   C24   A    
Cr4   O26   S    
C38   H7    S    
C45   C54   A    
C113  H49   S    
C16   C23   A    
C7    O19   A    
C115  H57   S    
C108  H36   S    
C32   C109  S    
C20   C92   A    
C119  H68   S    
C13   C85   A    
C22   C70   A    
C24   C72   A    
Cr5   O23   S    
Cr3   O6    S    
C116  H60   S    
C101  C106  A    
C28   C35   A    
C10   O8    A    
C100  C107  A    
C2    O6    A    
C56   C73   A    
C110  H42   S    
C30   C33   A    
C95   C100  A    
C93   C102  A    
C3    O1    A    
C57   C78   A    
C20   C68   A    
C19   C91   A    
C42   C66   A    
C90   C105  A    
C111  H45   S    
C75   H24   S    
C8    C53   S    
Cr5   O20   S    
C37   C61   A    
Cr1   O25   S    
C43   C50   A    
C99   H27   S    
C48   H3    S    
C77   C89   A    
C80   H13   S    
C27   C36   A    
C18   C66   A    
C39   C63   A    
C60   C75   A    
C17   C65   A    
C17   C22   A    
C40   C64   A    
C49   C80   A    
C26   C62   A    
C73   C85   A    
C120  H71   S    
C11   C50   S    
C100  H28   S    
C111  H44   S    
C6    O4    A    
C111  H43   S    
Cr4   O22   S    
C21   C93   A    
C118  H64   S    
C40   H11   S    
C59   C76   A    
C118  H66   S    
C117  H62   S    
C4    O16   A    
C46   H5    S    
C5    O17   A    
C91   C98   A    
C112  H46   S    
Cr6   O9    S    
C46   C70   A    
C97   C104  A    
C9    O21   A    
Cr1   O16   S    
Cr5   O11   S    
C37   H8    S    
C107  H35   S    
C3    C58   S    
C110  H41   S    
C13   C61   A    
C73   H20   S    
C1    O13   A    
C43   C67   A    
C109  H37   S    
C15   C87   A    
C47   C52   A    
C1    O5    A    
C39   H12   S    
C15   C63   A    
C8    O12   A    
Cr3   O18   S    
C16   C64   A    
C7    C54   S    
C82   H17   S    
C116  H59   S    
C51   C84   A    
C97   H25   S    
C54   C81   A    
C16   C88   A    
C36   C72   A    
C4    C57   S    
C38   C62   A    
C14   C62   A    
