data_mof_unit_29550.cif
_audit_creation_date              2012-12-10T17:48:47-0500
_audit_creation_method            fapswitch 2.2
_symmetry_space_group_name_H-M    P1
_symmetry_Int_Tables_number       1
_space_group_crystal_system       triclinic
_cell_length_a                    15.733947
_cell_length_b                    10.728074
_cell_length_c                    9.891328
_cell_angle_alpha                 89.347556
_cell_angle_beta                  89.930655
_cell_angle_gamma                 91.667813
_cell_volume                      1668.78870655

loop_
_atom_site_label
_atom_site_type_symbol
_atom_type_description
_atom_site_fract_x
_atom_site_fract_y
_atom_site_fract_z
_atom_type_partial_charge
C1    C     C_R   0.504993 0.259806 0.501838 0.865730
C2    C     C_R   0.489254 0.044915 0.878370 -0.147731
C3    C     C_R   0.444405 0.932001 0.868618 -0.155001
C4    C     C_R   0.338321 0.499436 0.500132 0.891260
C5    C     C_R   0.434695 0.876196 0.742898 -0.154477
C6    C     C_R   0.469606 0.933998 0.624870 0.099549
C7    C     C_R   0.498530 0.058111 0.631380 0.094937
C8    C     C_R   0.507717 0.125747 0.507226 -0.122469
C9    C     C_R   0.505767 0.064094 0.383435 -0.217559
C10   C     C_R   0.495072 0.937199 0.380827 -0.212032
C11   C     C_R   0.479838 0.871246 0.501136 -0.128275
C12   C     C_3   0.949605 0.440795 0.633880 -0.395807
C13   C     C_R   0.388819 0.335693 0.142212 -0.216568
C14   C     C_R   0.334277 0.254155 0.072843 0.016368
C15   C     C_R   0.334152 0.255017 0.932669 -0.233856
C16   C     C_R   0.491178 0.738845 0.499846 0.878933
C17   C     C_R   0.388694 0.336398 0.861669 -0.177194
C18   C     C_R   0.445210 0.419137 0.928637 0.152264
C19   C     C_R   0.445246 0.419015 0.073309 0.150276
C20   C     C_R   0.552060 0.577882 0.070497 -0.122835
C21   C     C_R   0.552043 0.577838 0.927242 -0.118753
C22   C     C_R   0.661699 0.500191 0.499870 0.916728
C23   C     C_3   0.917496 0.498378 0.499762 0.363667
C24   C     C_3   0.047729 0.440542 0.634057 -0.395864
C25   C     C_3   0.047683 0.420253 0.380313 -0.390577
C26   C     C_3   0.949547 0.420503 0.380133 -0.397707
C27   C     C_1   0.750666 0.499457 0.499705 -0.191256
C28   C     C_3   0.082602 0.497969 0.500065 0.357056
C29   C     C_1   0.278235 0.169075 0.146346 0.140285
C30   C     C_3   0.953858 0.633546 0.485447 -0.397398
C31   C     C_3   0.051951 0.633304 0.485628 -0.393743
C32   C     C_1   0.826025 0.498814 0.499656 -0.126070
C33   C     C_1   0.174039 0.498023 0.500233 -0.121207
C34   C     C_1   0.249390 0.498572 0.500271 -0.177278
C35   C     C_R   0.516556 0.107694 0.761186 -0.166873
H1    H     H_    0.923871 0.343562 0.646320 0.167331
H2    H     H_    0.500420 0.890812 0.284550 0.168742
H3    H     H_    0.594531 0.641496 0.123556 0.144184
H4    H     H_    0.069355 0.343192 0.646565 0.168292
H5    H     H_    0.385037 0.331301 0.249490 0.212436
H6    H     H_    0.292076 0.191976 0.877650 0.157613
H7    H     H_    0.385151 0.330765 0.754557 0.217017
H8    H     H_    0.594474 0.641469 0.872392 0.152557
H9    H     H_    0.072343 0.459817 0.282880 0.170952
H10   H     H_    0.069320 0.322568 0.388577 0.174307
H11   H     H_    0.923814 0.322930 0.388324 0.168330
H12   H     H_    0.072425 0.494887 0.721592 0.169471
H13   H     H_    0.926855 0.460192 0.282611 0.168282
H14   H     H_    0.076701 0.690922 0.570655 0.168209
H15   H     H_    0.076665 0.676469 0.389963 0.171578
H16   H     H_    0.931280 0.691277 0.570390 0.167137
H17   H     H_    0.926956 0.495270 0.721329 0.167598
H18   H     H_    0.931241 0.676821 0.389694 0.167736
H19   H     H_    0.513796 0.113533 0.287882 0.170259
H20   H     H_    0.554087 0.192304 0.775283 0.170674
H21   H     H_    0.501418 0.085302 0.976553 0.141243
H22   H     H_    0.419693 0.885617 0.958790 0.142553
H23   H     H_    0.399502 0.788169 0.739020 0.160812
N1    N     N_R   0.499210 0.498800 0.142780 -0.115061
N2    N     N_R   0.499180 0.498720 0.857170 -0.123063
N3    N     N_1   0.233286 0.100749 0.205525 -0.224015
O1    O     O_R   0.500000 0.316780 0.614690 -0.653824
O2    O     O_R   0.499990 0.316750 0.385360 -0.639339
O3    O     O_R   0.377150 0.500020 0.614720 -0.639217
O4    O     O_R   0.377140 0.499990 0.385380 -0.628924
O5    O     O_R   0.500010 0.683250 0.614640 -0.624514
O6    O     O_R   0.500000 0.683220 0.385310 -0.619602
O7    O     O_R   0.622860 0.500010 0.614620 -0.613541
O8    O     O_R   0.622850 0.499980 0.385280 -0.610635
Zn1   Zn    Zn3+2 0.500010 0.500020 0.653130 0.923172
Zn2   Zn    Zn3+2 0.499990 0.499980 0.346870 0.934725

loop_
_geom_bond_atom_site_label_1
_geom_bond_atom_site_label_2
_ccdc_geom_bond_type
C2    C35   A    
C30   H16   S    
O1    Zn1   S    
C6    C7    A    
O3    Zn1   S    
C12   H1    S    
C1    C8    S    
C20   H3    S    
C9    C10   A    
C4    O3    A    
C22   O8    A    
C14   C15   A    
C26   H13   S    
N2    Zn1   S    
C3    C5    A    
C23   C32   S    
C17   C18   A    
C27   C32   T    
O8    Zn2   S    
C7    C8    A    
C16   O6    A    
C2    H21   S    
C13   C14   A    
C1    O1    A    
C20   N1    A    
C12   C23   S    
C22   O7    A    
O5    Zn1   S    
C5    H23   S    
C31   H14   S    
C10   H2    S    
C5    C6    A    
C3    H22   S    
C25   H9    S    
C18   N2    A    
C12   H17   S    
O2    Zn2   S    
C28   C33   S    
C2    C3    A    
O6    Zn2   S    
C22   C27   S    
C4    C34   S    
C30   C31   S    
C30   H18   S    
C29   N3    T    
C16   O5    A    
C10   C11   A    
C26   H11   S    
C31   H15   S    
C35   H20   S    
C13   H5    S    
C23   C30   S    
C25   H10   S    
C24   H4    S    
C33   C34   T    
C20   C21   A    
C15   H6    S    
C21   N2    A    
O7    Zn1   S    
C18   C19   A    
C11   C16   S    
C23   C26   S    
N1    Zn2   S    
C6    C11   A    
C15   C17   A    
C12   C24   S    
C4    O4    A    
C1    O2    A    
C13   C19   A    
C9    H19   S    
C14   C29   S    
C19   N1    A    
C25   C26   S    
C17   H7    S    
C24   H12   S    
C7    C35   A    
C28   C31   S    
C21   H8    S    
C24   C28   S    
O4    Zn2   S    
C8    C9    A    
C25   C28   S    
