data_mof_unit_46560.cif
_audit_creation_date              2012-12-10T19:05:51-0500
_audit_creation_method            fapswitch 2.2
_symmetry_space_group_name_H-M    P1
_symmetry_Int_Tables_number       1
_space_group_crystal_system       triclinic
_cell_length_a                    19.350712
_cell_length_b                    10.843149
_cell_length_c                    9.60995
_cell_angle_alpha                 89.765591
_cell_angle_beta                  90.031448
_cell_angle_gamma                 91.562003
_cell_volume                      2015.61888264

loop_
_atom_site_label
_atom_site_type_symbol
_atom_type_description
_atom_site_fract_x
_atom_site_fract_y
_atom_site_fract_z
_atom_type_partial_charge
C1    C     C_R   0.497722 0.262589 0.500439 0.848366
C2    C     C_R   0.291492 0.496412 0.500356 -0.035645
C3    C     C_R   0.929818 0.493731 0.501186 0.411328
C4    C     C_R   0.069969 0.492865 0.500980 0.413453
C5    C     C_R   0.816034 0.453434 0.617917 -0.145044
C6    C     C_R   0.744001 0.454530 0.617293 -0.181854
C7    C     C_R   0.708405 0.498199 0.500604 -0.020942
C8    C     C_R   0.746084 0.540040 0.384320 -0.180472
C9    C     C_R   0.818021 0.538110 0.384252 -0.147740
C10   C     C_R   0.853722 0.495024 0.501189 0.053824
C11   C     C_R   0.511206 0.062412 0.616581 -0.026663
C12   C     C_R   0.367545 0.498629 0.500080 0.770078
C13   C     C_R   0.489009 0.129280 0.502281 -0.129432
C14   C     C_R   0.452496 0.066473 0.395994 0.354667
C15   C     C_R   0.454822 0.935790 0.387463 -0.021852
C16   C     C_R   0.487790 0.870305 0.497893 -0.173810
C17   C     C_R   0.509826 0.935918 0.615095 0.002468
C18   C     C_3   0.575577 0.931153 0.698036 0.264037
C19   C     C_3   0.576590 0.071923 0.698895 -0.491732
C20   C     C_R   0.545733 0.573649 0.072980 0.157686
C21   C     C_R   0.448585 0.441220 0.073249 0.430736
C22   C     C_R   0.448771 0.440710 0.926423 0.445096
C23   C     C_R   0.496698 0.737285 0.499017 0.858071
C24   C     C_R   0.545797 0.573445 0.926181 0.167926
C25   C     C_3   0.622563 0.569786 0.920633 -0.438678
C26   C     C_3   0.622560 0.570858 0.078271 -0.477973
C27   C     C_R   0.632421 0.499712 0.500082 0.799266
C28   C     C_R   0.254997 0.501399 0.626384 -0.165450
C29   C     C_R   0.182964 0.499440 0.626658 -0.154969
C30   C     C_R   0.146097 0.493288 0.500869 0.055041
C31   C     C_R   0.182627 0.488007 0.374889 -0.159627
C32   C     C_R   0.254636 0.488770 0.374737 -0.178161
Cu1   Cu    Cu3+1 0.500000 0.499980 0.640670 0.952958
Cu2   Cu    Cu3+1 0.500000 0.500020 0.359330 0.952923
H1    H     H_    0.281993 0.507140 0.724984 0.189251
H2    H     H_    0.568047 0.888451 0.802493 0.135424
H3    H     H_    0.567938 0.110883 0.804060 0.184340
H4    H     H_    0.619912 0.116365 0.639447 0.195150
H5    H     H_    0.640968 0.481636 0.877960 0.201979
H6    H     H_    0.646068 0.654822 0.873543 0.218814
H7    H     H_    0.641710 0.483840 0.123939 0.214874
H8    H     H_    0.156244 0.503957 0.725407 0.159091
H9    H     H_    0.645410 0.657436 0.122127 0.192153
H10   H     H_    0.155641 0.482373 0.276283 0.159762
H11   H     H_    0.281346 0.483267 0.276122 0.195564
H12   H     H_    0.842082 0.418727 0.709212 0.154422
H13   H     H_    0.716264 0.419229 0.707204 0.135590
H14   H     H_    0.720168 0.576019 0.294107 0.141147
H15   H     H_    0.845607 0.571665 0.293060 0.155403
N1    N     N_R   0.034492 0.510854 0.381090 -0.235434
N2    N     N_R   0.965783 0.511497 0.381239 -0.235651
N3    N     N_R   0.965274 0.475337 0.621046 -0.234171
N4    N     N_R   0.034015 0.475152 0.620981 -0.233723
N5    N     N_R   0.500440 0.500930 0.147930 -0.273624
N6    N     N_R   0.500440 0.500890 0.852020 -0.274023
O1    O     O_R   0.500000 0.319640 0.618810 -0.613796
O2    O     O_R   0.500010 0.319680 0.381230 -0.560911
O3    O     O_R   0.400140 0.499970 0.618830 -0.578778
O4    O     O_R   0.400150 0.500010 0.381250 -0.587015
O5    O     O_R   0.499990 0.680320 0.618770 -0.563439
O6    O     O_R   0.500000 0.680360 0.381190 -0.586378
O7    O     O_R   0.599850 0.499990 0.618750 -0.573944
O8    O     O_R   0.599860 0.500030 0.381170 -0.584010
C33   C     C_3   0.425830 0.872448 0.257588 -0.380346
C34   C     C_3   0.356414 0.806285 0.287582 -0.337957
C35   C     C_3   0.328944 0.739465 0.158631 -0.797630
H16   H     H_    0.324130 0.805110 0.070337 0.248362
H17   H     H_    0.364220 0.664977 0.128689 0.262343
H18   H     H_    0.277037 0.698071 0.180925 0.242246
H19   H     H_    0.361998 0.738632 0.373377 0.223464
H20   H     H_    0.318140 0.874893 0.320692 0.212235
H21   H     H_    0.418247 0.939666 0.171906 0.210163
H22   H     H_    0.463534 0.809899 0.210982 0.221655
O9    O     O_3   0.631123 0.881062 0.624459 -0.715661
H23   H     H_    0.633711 0.920211 0.530878 0.330643
O10   O     O_3   0.395094 0.376849 0.136208 -0.686443
H24   H     H_    0.412197 0.345237 0.224623 0.403470
O11   O     O_3   0.395873 0.375081 0.862900 -0.693413
H25   H     H_    0.414468 0.336578 0.779253 0.362109
O12   O     O_3   0.415632 0.134385 0.301646 -0.741706
H26   H     H_    0.371137 0.089871 0.283819 0.330518

loop_
_geom_bond_atom_site_label_1
_geom_bond_atom_site_label_2
_ccdc_geom_bond_type
Cu1   N6    S    
C35   H17   S    
Cu1   O3    S    
C29   H8    S    
C32   H11   S    
C2    C12   S    
C7    C8    A    
C24   N6    A    
C21   O10   S    
C11   C19   S    
C28   C29   A    
C19   H4    S    
C1    O1    A    
C25   H6    S    
C21   N5    A    
C4    N4    A    
C35   H18   S    
C16   C17   A    
C15   C16   A    
C7    C27   S    
C2    C32   A    
C18   C19   S    
C19   H3    S    
C12   O4    A    
C20   C24   A    
C28   H1    S    
C8    C9    A    
Cu2   O2    S    
C15   C33   S    
C14   O12   S    
C9    C10   A    
C12   O3    A    
Cu1   O1    S    
C35   H16   S    
C18   O9    S    
C21   C22   A    
C26   H9    S    
Cu1   Cu2   S    
C23   O5    A    
C31   H10   S    
C9    H15   S    
O10   H24   S    
C22   O11   S    
C20   N5    A    
C6    H13   S    
C3    N2    A    
O11   H25   S    
Cu1   O7    S    
N1    N2    A    
C25   C26   S    
C34   H20   S    
Cu2   O6    S    
C4    N1    A    
C8    H14   S    
C29   C30   A    
C27   O7    A    
C1    O2    A    
C31   C32   A    
C30   C31   A    
C33   H22   S    
C17   C18   S    
C24   C25   S    
C6    C7    A    
C27   O8    A    
Cu2   N5    S    
Cu1   O5    S    
Cu2   O4    S    
C1    C13   S    
N3    N4    A    
C11   C17   A    
O12   H26   S    
C3    N3    A    
C22   N6    A    
C16   C23   S    
C5    H12   S    
C33   C34   S    
C5    C10   A    
C3    C10   S    
C25   H5    S    
C11   C13   A    
C5    C6    A    
C20   C26   S    
Cu2   O8    S    
C33   H21   S    
C23   O6    A    
O9    H23   S    
C34   C35   S    
C14   C15   A    
C2    C28   A    
C13   C14   A    
C18   H2    S    
C4    C30   S    
C34   H19   S    
C26   H7    S    
