data_mof_unit_60734.cif
_audit_creation_date              2012-10-26T18:11:47-0400
_audit_creation_method            fapswitch 2.2
_symmetry_space_group_name_H-M    P1
_symmetry_Int_Tables_number       1
_space_group_crystal_system       triclinic
_cell_length_a                    18.834719
_cell_length_b                    18.781238
_cell_length_c                    18.803916
_cell_angle_alpha                 109.482609
_cell_angle_beta                  109.569725
_cell_angle_gamma                 109.388457
_cell_volume                      5118.74466738

loop_
_atom_site_label
_atom_site_type_symbol
_atom_type_description
_atom_site_fract_x
_atom_site_fract_y
_atom_site_fract_z
_atom_type_partial_charge
C1    C     C_R   0.381033 0.500117 0.380864 0.551847
C2    C     C_R   0.314100 0.500300 0.313481 -0.040040
C3    C     C_R   0.306019 0.230482 0.472910 -0.130932
C4    C     C_R   0.618315 0.618508 0.499925 0.557263
C5    C     C_R   0.242467 0.165809 0.472940 -0.023459
C6    C     C_R   0.185433 0.184002 0.498484 0.023690
C7    C     C_R   0.192566 0.266181 0.523918 -0.134291
C8    C     C_R   0.257172 0.330939 0.525438 -0.129312
C9    C     C_R   0.313927 0.313289 0.499621 0.009103
C10   C     C_R   0.729804 0.455809 0.663462 -0.103104
C11   C     C_R   0.795792 0.457076 0.727720 0.252880
C12   C     C_R   0.731422 0.799019 0.469684 0.000618
C13   C     C_R   0.815046 0.499600 0.814294 0.050624
C14   C     C_R   0.771914 0.542946 0.837268 -0.167870
C15   C     C_R   0.708687 0.544083 0.773722 -0.139051
C16   C     C_R   0.619249 0.500061 0.619165 0.563456
C17   C     C_R   0.686941 0.500216 0.686375 -0.013362
C18   C     C_R   0.000114 0.881246 0.380966 0.556655
C19   C     C_R   0.881367 0.881092 0.500018 0.550824
C20   C     C_R   0.000967 0.119811 0.618962 0.549243
C21   C     C_R   0.118686 0.118519 0.499703 0.554059
C22   C     C_R   0.999698 0.618958 0.118403 0.555809
C23   C     C_3   0.670897 0.826274 0.428337 -0.253512
C24   C     C_R   0.118570 0.500141 0.118763 0.593190
C25   C     C_R   0.999365 0.381202 0.880698 0.603048
C26   C     C_R   0.881394 0.500171 0.881510 0.601530
C27   C     C_R   0.982825 0.813120 0.234551 -0.121804
C28   C     C_R   0.380979 0.380830 0.499931 0.550223
C29   C     C_R   0.983121 0.749730 0.169865 -0.028930
C30   C     C_R   0.999094 0.686229 0.184203 0.009133
C31   C     C_R   0.015771 0.687492 0.263050 -0.141676
C32   C     C_R   0.017621 0.752247 0.328142 -0.135706
C33   C     C_R   0.000379 0.814696 0.313746 0.020600
C34   C     C_3   0.600506 0.755274 0.429112 -0.137603
C35   C     C_R   0.922392 0.179985 0.676858 -0.142517
C36   C     C_R   0.920278 0.241879 0.741573 0.247929
C37   C     C_R   0.999127 0.314367 0.813509 0.026960
C38   C     C_R   0.078719 0.323698 0.821589 -0.173655
C39   C     C_R   0.080814 0.260380 0.758839 -0.035293
C40   C     C_R   0.670229 0.738100 0.471665 -0.001860
C41   C     C_R   0.001976 0.187793 0.686119 -0.031738
C42   C     C_R   0.686681 0.684485 0.502268 0.008968
C43   C     C_R   0.771836 0.696626 0.534368 -0.038955
C44   C     C_R   0.836207 0.761889 0.534111 -0.152903
C45   C     C_R   0.267466 0.431634 0.227197 -0.149150
C46   C     C_R   0.815919 0.814080 0.500654 0.001467
C47   C     C_1   0.794736 0.644247 0.568610 0.212078
C48   C     C_1   0.235369 0.080886 0.444522 0.204013
C49   C     C_3   0.884212 0.445282 0.670879 0.003514
C50   C     C_3   0.944159 0.407969 0.667426 -0.346923
C51   C     C_1   0.964782 0.749714 0.088833 0.197397
C52   C     C_3   0.792999 0.165486 0.734955 0.006246
C53   C     C_3   0.716923 0.172112 0.741622 -0.339080
C54   C     C_1   0.164291 0.273266 0.768622 0.224864
C55   C     C_1   0.569780 0.790179 0.487348 0.203486
C56   C     C_R   0.202518 0.430517 0.162884 -0.072428
C57   C     C_1   0.154931 0.358378 0.074650 0.198003
C58   C     C_3   0.281061 0.714510 0.316505 -0.015084
C59   C     C_3   0.251565 0.781681 0.325398 -0.343464
C60   C     C_R   0.185259 0.499691 0.184942 0.031642
C61   C     C_R   0.233138 0.569980 0.270643 0.235666
C62   C     C_R   0.296144 0.568758 0.335147 -0.125242
Cu1   Cu    Cu3+1 0.499970 0.561780 0.561770 0.972592
Cu2   Cu    Cu3+1 0.500030 0.438220 0.438230 0.957490
Cu3   Cu    Cu3+1 0.061810 1.000000 0.561760 0.991743
Cu4   Cu    Cu3+1 0.938190 0.000070 0.438240 0.938622
Cu5   Cu    Cu3+1 0.938200 0.438300 0.000110 0.977306
Cu6   Cu    Cu3+1 0.061800 0.561880 0.000070 0.966029
H1    H     H_    0.330740 0.621134 0.401977 0.149130
H2    H     H_    0.028723 0.639135 0.274595 0.150955
H3    H     H_    0.031029 0.752727 0.389055 0.133890
H4    H     H_    0.861949 0.125543 0.619484 0.126313
H5    H     H_    0.139201 0.380080 0.877413 0.140214
H6    H     H_    0.690333 0.894487 0.472321 0.138872
H7    H     H_    0.658928 0.811163 0.361635 0.137655
H8    H     H_    0.547618 0.699425 0.363451 0.109341
H9    H     H_    0.280733 0.378259 0.210061 0.153612
H10   H     H_    0.925273 0.517721 0.711657 0.145992
H11   H     H_    0.839983 0.426981 0.603293 0.137362
H12   H     H_    0.349862 0.216567 0.452966 0.135573
H13   H     H_    0.905609 0.335661 0.628110 0.178042
H14   H     H_    0.980443 0.432820 0.637210 0.094921
H15   H     H_    0.991530 0.427906 0.734352 0.171868
H16   H     H_    0.832631 0.164288 0.793446 0.141582
H17   H     H_    0.766471 0.103360 0.675130 0.123772
H18   H     H_    0.675166 0.172142 0.683631 0.170505
H19   H     H_    0.677393 0.115673 0.744944 0.100523
H20   H     H_    0.741351 0.233279 0.801310 0.174936
H21   H     H_    0.301498 0.707086 0.266443 0.137947
H22   H     H_    0.337782 0.739646 0.380530 0.142334
H23   H     H_    0.148814 0.280428 0.543715 0.120690
H24   H     H_    0.230097 0.790361 0.374449 0.172974
H25   H     H_    0.306156 0.845222 0.346645 0.113950
H26   H     H_    0.196708 0.759948 0.261755 0.178242
H27   H     H_    0.262069 0.394363 0.545680 0.136125
H28   H     H_    0.711898 0.419937 0.595933 0.141863
H29   H     H_    0.787562 0.576148 0.904441 0.133369
H30   H     H_    0.676109 0.578266 0.792810 0.151200
H31   H     H_    0.969960 0.861840 0.223675 0.135744
H32   H     H_    0.901343 0.771034 0.558986 0.141417
N1    N     N_1   0.813064 0.602280 0.596058 -0.322344
N2    N     N_1   0.229548 0.012826 0.421701 -0.300219
N3    N     N_1   0.950155 0.749727 0.023954 -0.291884
N4    N     N_1   0.231127 0.283613 0.776378 -0.281023
N5    N     N_1   0.545456 0.817519 0.533094 -0.307545
N6    N     N_1   0.116804 0.300611 0.004021 -0.298845
O1    O     O_R   0.409790 0.552170 0.461990 -0.510086
O2    O     O_R   0.052170 0.642450 0.090210 -0.506142
O3    O     O_R   0.038000 0.447920 0.090280 -0.505518
O4    O     O_R   0.409840 0.447810 0.357660 -0.512653
O5    O     O_R   0.142370 0.552280 0.090250 -0.515018
O6    O     O_R   0.947830 0.357730 0.909970 -0.480158
O7    O     O_R   0.052200 0.462090 0.909940 -0.533494
O8    O     O_R   0.857630 0.447900 0.909930 -0.510363
O9    O     O_R   0.962000 0.552260 0.909900 -0.496529
O10   O     O_R   0.590140 0.642360 0.552170 -0.494627
O11   O     O_R   0.590190 0.538010 0.447840 -0.506046
O12   O     O_R   0.947790 0.909920 0.357650 -0.515144
O13   O     O_R   0.590160 0.552190 0.642340 -0.510668
O14   O     O_R   0.590210 0.447830 0.538010 -0.511718
O15   O     O_R   0.409810 0.461990 0.552160 -0.512849
O16   O     O_R   0.409860 0.357640 0.447830 -0.513650
O17   O     O_R   0.052180 0.909860 0.461960 -0.505400
O18   O     O_3   0.836112 0.410326 0.706272 -0.534118
O19   O     O_3   0.842208 0.237604 0.730530 -0.520835
O20   O     O_3   0.211668 0.634886 0.291903 -0.562454
O21   O     O_R   0.962030 0.909820 0.552150 -0.517847
O22   O     O_R   0.857630 0.909880 0.447840 -0.511791
O23   O     O_R   0.052210 0.090150 0.642360 -0.489716
O24   O     O_R   0.947820 0.090210 0.538040 -0.519063
O25   O     O_R   0.142360 0.090190 0.552160 -0.488019
O26   O     O_R   0.037970 0.090250 0.447850 -0.512900
O27   O     O_R   0.947800 0.538090 0.090240 -0.513114

loop_
_geom_bond_atom_site_label_1
_geom_bond_atom_site_label_2
_ccdc_geom_bond_type
C47   N1    T    
C27   C29   A    
C11   C13   A    
C36   O19   S    
C20   O23   A    
C20   C41   S    
C19   C46   S    
C7    C8    A    
C39   C41   A    
C27   C33   A    
C24   O5    A    
C12   C23   S    
C27   H31   S    
C29   C30   A    
C55   N5    T    
C34   C40   S    
Cu3   O21   S    
C54   N4    T    
C36   C37   A    
Cu5   O27   S    
Cu5   O8    S    
C16   O14   A    
C30   C31   A    
Cu2   O16   S    
C39   C54   S    
C10   C17   A    
C51   N3    T    
C19   O22   A    
C49   H10   S    
C1    C2    S    
C52   H16   S    
C26   O9    A    
C21   O25   A    
C25   O6    A    
C25   C37   S    
Cu5   O3    S    
C31   H2    S    
C35   C36   A    
C45   C56   A    
C16   C17   S    
C61   O20   S    
C59   H26   S    
C18   O12   A    
Cu6   O7    S    
C40   C42   A    
C57   N6    T    
C7    H23   S    
C34   C55   S    
C13   C14   A    
C8    H27   S    
C35   C41   A    
C3    H12   S    
Cu3   O25   S    
C44   C46   A    
C50   H15   S    
C32   H3    S    
Cu4   O26   S    
C2    C45   A    
C38   C39   A    
C5    C48   S    
C22   O27   A    
Cu5   Cu6   S    
C12   C46   A    
C16   O13   A    
C20   O24   A    
C28   O15   A    
C8    C9    A    
C58   C59   S    
C49   O18   S    
Cu2   O11   S    
C49   H11   S    
C62   H1    S    
C60   C61   A    
Cu6   O5    S    
C12   C40   A    
C43   C44   A    
C26   O8    A    
C21   O26   A    
C37   C38   A    
C3    C9    A    
C25   O7    A    
C1    O4    A    
Cu1   O13   S    
Cu2   O4    S    
C31   C32   A    
C10   H28   S    
C24   C60   S    
C23   C34   S    
C48   N2    T    
Cu1   O15   S    
C53   H19   S    
C6    C21   S    
C58   H22   S    
C53   H18   S    
C1    O1    A    
Cu1   O10   S    
C35   H4    S    
C58   O20   S    
Cu4   O12   S    
C49   C50   S    
C4    O11   A    
C56   C57   S    
C15   H30   S    
Cu1   O1    S    
C52   C53   S    
C50   H14   S    
C14   H29   S    
C29   C51   S    
C15   C17   A    
C52   H17   S    
C22   C30   S    
C4    O10   A    
C24   O3    A    
C23   H7    S    
C3    C5    A    
Cu3   O23   S    
C52   O19   S    
C6    C7    A    
C59   H25   S    
C18   O17   A    
Cu2   O14   S    
C23   H6    S    
C32   C33   A    
C44   H32   S    
C5    C6    A    
C4    C42   S    
C22   O2    A    
C19   O21   A    
Cu4   O22   S    
C58   H21   S    
C53   H20   S    
C28   O16   A    
C59   H24   S    
Cu3   O17   S    
C61   C62   A    
C13   C26   S    
C18   C33   S    
C10   C11   A    
Cu6   O9    S    
Cu1   Cu2   S    
C56   C60   A    
Cu5   O6    S    
C50   H13   S    
Cu3   Cu4   S    
C42   C43   A    
C14   C15   A    
C45   H9    S    
Cu6   O2    S    
C11   O18   S    
C43   C47   S    
C2    C62   A    
C9    C28   S    
C34   H8    S    
Cu4   O24   S    
C38   H5    S    
