data_mof_unit_26258.cif
_audit_creation_date              2012-12-11T14:17:39-0500
_audit_creation_method            fapswitch 2.2
_symmetry_space_group_name_H-M    P1
_symmetry_Int_Tables_number       1
_space_group_crystal_system       triclinic
_cell_length_a                    6.943252
_cell_length_b                    13.63324
_cell_length_c                    20.414035
_cell_angle_alpha                 102.12173
_cell_angle_beta                  90.329936
_cell_angle_gamma                 90.647613
_cell_volume                      1889.10170456

loop_
_atom_site_label
_atom_site_type_symbol
_atom_type_description
_atom_site_fract_x
_atom_site_fract_y
_atom_site_fract_z
_atom_type_partial_charge
O1    O     O_R   0.506860 0.599390 0.449240 -0.542483
O2    O     O_R   0.180220 0.594600 0.586780 -0.545495
O3    O     O_R   0.004500 0.400610 0.550760 -0.534489
C1    C     C_R   0.349670 0.614930 0.613754 0.752556
O4    O     O_R   0.177490 0.611290 0.451970 -0.543469
O5    O     O_R   0.001750 0.417420 0.414990 -0.538272
C2    C     C_R   0.346582 0.637941 0.435211 0.688905
O6    O     O_R   0.509610 0.582580 0.585010 -0.544293
O7    O     O_3   0.337420 0.436370 0.488020 -0.365666
V1    V     V_3+5 0.064680 0.511800 0.502220 1.448490
O8    O     O_R   0.671710 0.405400 0.413220 -0.543757
C3    C     C_R   0.839407 0.383969 0.386541 0.767144
O9    O     O_R   0.674440 0.388710 0.548030 -0.535478
C4    C     C_R   0.842932 0.362138 0.564860 0.752965
V2    V     V_3+5 0.564010 0.488200 0.497780 1.455586
O10   O     O_3   0.841140 0.563630 0.511980 -0.378708
C5    C     C_R   0.866973 0.110347 0.612401 -0.172121
H1    H     H_    0.881185 0.985603 0.695705 0.130428
H2    H     H_    0.873701 0.031860 0.587821 0.138860
C6    C     C_R   0.850897 0.284274 0.604320 -0.076248
C7    C     C_R   0.851767 0.315061 0.928547 -0.202270
C8    C     C_R   0.843295 0.391223 0.892880 0.228645
C9    C     C_R   0.844982 0.368420 0.822964 -0.175825
C10   C     C_R   0.855061 0.267728 0.786759 0.047224
C11   C     C_R   0.863302 0.190128 0.823906 0.061708
C12   C     C_R   0.856807 0.241349 0.715102 0.094171
C13   C     C_R   0.865942 0.138499 0.682603 0.104089
C14   C     C_R   0.873968 0.064134 0.720211 -0.187124
C15   C     C_R   0.872871 0.089317 0.789653 -0.180497
C16   C     C_R   0.849790 0.313269 0.674305 -0.246618
C17   C     C_R   0.859276 0.182510 0.573210 0.135787
C18   C     C_R   0.861676 0.214973 0.894859 -0.112261
H3    H     H_    0.843375 0.392614 0.695103 0.111962
H4    H     H_    0.850317 0.333978 0.982825 0.126603
H5    H     H_    0.837856 0.431291 0.798834 0.146042
H6    H     H_    0.879417 0.028635 0.816317 0.134014
C19   C     C_2   0.005057 0.287967 0.285732 -0.116996
C20   C     C_2   0.841473 0.315449 0.319798 -0.279364
H7    H     H_    0.142300 0.316081 0.308287 0.134406
H8    H     H_    0.702651 0.287709 0.299022 0.125764
C21   C     C_2   0.014107 0.219953 0.218126 -0.127963
C22   C     C_2   0.859238 0.183148 0.180388 -0.297011
H9    H     H_    0.157107 0.200356 0.198755 0.130128
H10   H     H_    0.715051 0.201909 0.198286 0.126121
C23   C     C_2   0.200945 0.769274 0.787576 0.181858
C24   C     C_2   0.357234 0.819758 0.818233 -0.312470
H11   H     H_    0.491792 0.816532 0.791371 0.135373
C25   C     C_2   0.203338 0.710111 0.717406 -0.153369
C26   C     C_2   0.362516 0.678937 0.681830 -0.336762
H12   H     H_    0.063246 0.687606 0.694949 0.160242
H13   H     H_    0.505135 0.695996 0.703320 0.148997
C27   C     C_R   0.383941 0.888575 0.387401 -0.115247
H14   H     H_    0.379993 0.838428 0.480221 0.112185
H15   H     H_    0.400363 0.013683 0.304248 0.140398
H16   H     H_    0.397480 0.966779 0.412442 0.148565
C28   C     C_R   0.356594 0.714749 0.395047 -0.035841
C29   C     C_R   0.339044 0.684698 0.071166 -0.108449
C30   C     C_R   0.328266 0.608693 0.106900 -0.086211
C31   C     C_R   0.334572 0.631333 0.176713 -0.165092
C32   C     C_R   0.352036 0.731899 0.212929 0.080598
C33   C     C_R   0.362999 0.809537 0.175847 0.062305
C34   C     C_R   0.358949 0.758029 0.284529 0.073541
C35   C     C_R   0.376618 0.860801 0.317165 0.130243
C36   C     C_R   0.386940 0.935262 0.279652 -0.173521
C37   C     C_R   0.380258 0.910256 0.210189 -0.192031
C38   C     C_R   0.349071 0.685877 0.325155 -0.211334
C39   C     C_R   0.374023 0.815886 0.426089 -0.164749
C40   C     C_R   0.356365 0.784761 0.104876 -0.086543
H17   H     H_    0.335652 0.606632 0.304369 0.092814
H18   H     H_    0.333729 0.665458 0.016894 0.146157
H19   H     H_    0.325350 0.568188 0.200603 0.108273
H20   H     H_    0.314793 0.531359 0.080256 0.136554
H21   H     H_    0.388845 0.970983 0.183575 0.113994
O11   O     O_R   0.203230 0.917310 0.915020 -0.523042
O12   O     O_R   0.535500 0.888690 0.048040 -0.535177
O13   O     O_R   0.711080 0.082610 0.085000 -0.549537
C41   C     C_R   0.366450 0.862103 0.064841 0.699457
O14   O     O_R   0.532630 0.905370 0.913230 -0.531014
O15   O     O_R   0.708190 0.099410 0.949230 -0.541858
C42   C     C_R   0.362827 0.883343 0.886722 0.788158
O16   O     O_R   0.206120 0.900510 0.050790 -0.535347
O17   O     O_3   0.375360 0.063570 0.011990 -0.385000
V3    V     V_3+5 0.648170 0.988200 0.997780 1.491670
O18   O     O_R   0.038240 0.111390 0.951940 -0.542828
C43   C     C_R   0.869732 0.137680 0.934973 0.698021
O19   O     O_R   0.041120 0.094710 0.086750 -0.547153
C44   C     C_R   0.872898 0.115653 0.113563 0.730293
V4    V     V_3+5 0.148810 0.011930 0.002180 1.469613
O20   O     O_3   0.871750 0.936430 0.988010 -0.345660
I1    I     I_    0.861004 0.133692 0.467379 -0.458597
I2    I     I_    0.928671 0.764822 0.834378 -0.395309
I3    I     I_    0.827079 0.541861 0.945387 -0.412359

loop_
_geom_bond_atom_site_label_1
_geom_bond_atom_site_label_2
_ccdc_geom_bond_type
C24   C42   S    
C21   C22   D    
C1    O6    A    
C30   H20   S    
C6    C16   A    
C23   C24   D    
C15   H6    S    
C12   C13   A    
C19   C20   D    
C14   C15   A    
C20   H8    S    
C10   C12   A    
O5    C3    A    
O19   V4    S    
C38   H17   S    
V2    O10   S    
C37   H21   S    
C32   C34   A    
O8    V2    S    
O14   V3    S    
C26   H13   S    
C9    C10   A    
O1    V2    S    
C29   H18   S    
O7    V1    S    
O17   V4    S    
C27   H16   S    
C11   C18   A    
C25   H12   S    
C31   C32   A    
O11   C42   A    
O9    C4    A    
C3    C20   S    
C21   H9    S    
C22   H10   S    
C2    C28   S    
C23   I2    S    
O13   V3    S    
C11   C15   A    
V3    O20   S    
C7    C18   A    
C34   C38   A    
C5    C13   A    
C4    C6    S    
H1    C14   S    
O18   C43   A    
O4    C2    A    
O19   C44   A    
C7    H4    S    
C30   C31   A    
C32   C33   A    
O2    C1    A    
C34   C35   A    
C41   O16   A    
C17   I1    S    
C10   C11   A    
O12   C41   A    
O13   C44   A    
O3    C4    A    
C25   C26   D    
C12   C16   A    
O6    V2    S    
C9    H5    S    
O9    V2    S    
C5    C17   A    
C29   C40   A    
O2    V1    S    
O15   C43   A    
C23   C25   S    
C40   C41   S    
C24   H11   S    
C16   H3    S    
O1    C2    A    
O18   V4    S    
C27   C39   A    
C27   C35   A    
O5    V1    S    
O8    C3    A    
C28   C39   A    
C1    C26   S    
C36   C37   A    
O7    V2    S    
O4    V1    S    
C19   H7    S    
O3    V1    S    
V1    O10   S    
O15   V3    S    
C33   C40   A    
O12   V3    S    
C29   C30   A    
H15   C36   S    
C28   C38   A    
C18   C43   S    
C5    H2    S    
O14   C42   A    
C19   C21   S    
H14   C39   S    
O16   V4    S    
C35   C36   A    
C33   C37   A    
V4    O20   S    
O17   V3    S    
C13   C14   A    
C8    I3    S    
C8    C9    A    
C22   C44   S    
O11   V4    S    
C7    C8    A    
C31   H19   S    
C6    C17   A    
