data_mof_unit_56533.cif
_audit_creation_date              2012-12-11T17:41:44-0500
_audit_creation_method            fapswitch 2.2
_symmetry_space_group_name_H-M    P1
_symmetry_Int_Tables_number       1
_space_group_crystal_system       triclinic
_cell_length_a                    15.610067
_cell_length_b                    15.0531
_cell_length_c                    15.118623
_cell_angle_alpha                 109.234714
_cell_angle_beta                  120.960258
_cell_angle_gamma                 58.661252
_cell_volume                      2592.66462525

loop_
_atom_site_label
_atom_site_type_symbol
_atom_type_description
_atom_site_fract_x
_atom_site_fract_y
_atom_site_fract_z
_atom_type_partial_charge
C1    C     C_R   0.782499 0.967790 0.785489 0.185793
C2    C     C_R   0.301049 0.320014 0.145379 -0.102757
C3    C     C_R   0.576454 0.708304 0.814020 -0.141961
C4    C     C_R   0.377722 0.218267 0.132608 -0.121322
C5    C     C_R   0.627636 0.760346 0.905607 0.081218
C6    C     C_R   0.342701 0.148621 0.051415 0.083569
C7    C     C_R   0.744382 0.720190 0.953961 0.246413
C8    C     C_R   0.228373 0.180619 0.985986 0.222395
C9    C     C_R   0.807549 0.629032 0.910096 -0.112899
C10   C     C_R   0.152184 0.282467 0.000031 -0.102663
C11   C     C_R   0.755676 0.577978 0.818703 -0.133860
C12   C     C_R   0.193831 0.075191 0.236719 0.154378
C13   C     C_R   0.188589 0.352326 0.078915 -0.073198
C14   C     C_R   0.550101 0.861283 0.035739 0.209159
C15   C     C_R   0.441886 0.048617 0.942797 0.196158
C16   C     C_R   0.244112 0.289839 0.490950 -0.065036
C17   C     C_R   0.800181 0.724897 0.558301 -0.099814
C18   C     C_R   0.486759 0.956833 0.075042 -0.051932
C19   C     C_R   0.501214 0.953075 0.901233 -0.041906
C20   C     C_R   0.425837 0.049515 0.024426 -0.050539
C21   C     C_R   0.557913 0.859086 0.947398 -0.055168
C22   C     C_2   0.150116 0.396697 0.612220 -0.166168
C23   C     C_R   0.211890 0.299247 0.565197 0.128498
C24   C     C_2   0.976744 0.651442 0.536035 -0.195781
C25   C     C_2   0.133021 0.488314 0.597215 -0.095238
C26   C     C_2   0.037783 0.581785 0.606215 -0.091209
C27   C     C_2   0.890235 0.074663 0.886080 -0.169213
C28   C     C_2   0.017866 0.055134 0.158508 -0.161387
C29   C     C_R   0.231964 0.787875 0.566068 -0.095981
C30   C     C_R   0.772416 0.138263 0.315480 -0.104472
C31   C     C_R   0.319919 0.706098 0.544007 -0.137548
C32   C     C_R   0.677556 0.226862 0.319163 -0.130115
C33   C     C_R   0.301637 0.661442 0.442143 0.088038
C34   C     C_R   0.862078 0.724965 0.517711 0.145729
C35   C     C_R   0.684764 0.296984 0.408086 0.109084
C36   C     C_R   0.193299 0.697338 0.363057 -0.153272
C37   C     C_R   0.788926 0.278956 0.492327 -0.177288
C38   C     C_R   0.105403 0.779069 0.385428 -0.115005
C39   C     C_R   0.883735 0.190331 0.488412 -0.091210
C40   C     C_R   0.591669 0.216245 0.486890 -0.125370
C41   C     C_R   0.406532 0.772010 0.444271 -0.107661
C42   C     C_R   0.124758 0.824444 0.486775 -0.122828
C43   C     C_R   0.875426 0.119868 0.400157 -0.103039
C44   C     C_R   0.396261 0.477911 0.398850 -0.245960
C45   C     C_R   0.499366 0.296790 0.428778 0.049173
C46   C     C_R   0.580348 0.488325 0.424137 -0.221589
C47   C     C_R   0.492883 0.386640 0.405394 0.045783
C48   C     C_R   0.489471 0.578933 0.433357 0.063840
C49   C     C_R   0.584301 0.390815 0.411837 0.027931
C50   C     C_R   0.395182 0.573708 0.419185 0.032272
C51   C     C_2   0.892532 0.077671 0.976307 -0.079616
C52   C     C_2   0.987455 0.082733 0.067930 -0.046555
C53   C     C_R   0.408310 0.995631 0.720145 -0.099657
C54   C     C_R   0.590556 0.953030 0.267249 -0.113747
C55   C     C_R   0.408353 0.285852 0.408026 -0.135966
C56   C     C_R   0.496732 0.676844 0.463182 0.046836
C57   C     C_R   0.591358 0.693474 0.528269 -0.119791
C58   C     C_R   0.592730 0.927023 0.796652 -0.084896
C59   C     C_R   0.405358 0.019076 0.196864 -0.095498
C60   C     C_R   0.241982 0.199458 0.581646 -0.112500
C61   C     C_R   0.800785 0.814837 0.467135 -0.103891
C62   C     C_R   0.771882 0.069652 0.695936 -0.158023
C63   C     C_R   0.194218 0.976420 0.318826 -0.176761
C64   C     C_R   0.817001 0.039416 0.792838 0.096312
C65   C     C_R   0.130630 0.035974 0.235573 0.101050
C66   C     C_R   0.501136 0.955006 0.808486 0.092074
C67   C     C_R   0.495326 0.963630 0.175211 0.116262
C68   C     C_R   0.640304 0.617512 0.770719 -0.104674
H1    H     H_    0.967397 0.034082 0.169664 0.147001
H2    H     H_    0.064688 0.307712 0.949458 0.142654
H3    H     H_    0.007783 0.583729 0.657871 0.140132
H4    H     H_    0.174684 0.492228 0.560102 0.130005
H5    H     H_    0.007753 0.648189 0.484466 0.147784
H6    H     H_    0.107110 0.393832 0.648678 0.140824
H7    H     H_    0.056632 0.887576 0.503940 0.118127
H8    H     H_    0.948873 0.051553 0.397010 0.105405
H9    H     H_    0.231870 0.351306 0.457862 0.103140
H10   H     H_    0.827565 0.673645 0.612645 0.098808
H11   H     H_    0.246889 0.822660 0.644640 0.134515
H12   H     H_    0.945987 0.093586 0.881084 0.166618
H13   H     H_    0.766218 0.084413 0.246623 0.137657
H14   H     H_    0.402336 0.677575 0.605683 0.106322
H15   H     H_    0.599179 0.242388 0.252034 0.118181
H16   H     H_    0.177371 0.662725 0.284273 0.141476
H17   H     H_    0.796329 0.332810 0.561259 0.115862
H18   H     H_    0.022269 0.807279 0.324284 0.155852
H19   H     H_    0.963640 0.176325 0.553745 0.127875
H20   H     H_    0.325128 0.476636 0.393616 0.132182
H21   H     H_    0.650317 0.493364 0.430847 0.137871
H22   H     H_    0.677531 0.194720 0.510541 0.112940
H23   H     H_    0.804949 0.507822 0.784912 0.119913
H24   H     H_    0.321204 0.789349 0.392589 0.123880
H25   H     H_    0.323765 0.325552 0.353091 0.122735
H26   H     H_    0.676427 0.635769 0.560021 0.097688
H27   H     H_    0.677130 0.884104 0.847788 0.153113
H28   H     H_    0.319055 0.043341 0.143110 0.142785
H29   H     H_    0.227430 0.179205 0.633304 0.127758
H30   H     H_    0.830860 0.845660 0.439336 0.098501
H31   H     H_    0.788050 0.118859 0.673829 0.122713
H32   H     H_    0.164016 0.948359 0.349256 0.116927
H33   H     H_    0.044261 0.092459 0.055181 0.162377
H34   H     H_    0.129511 0.431300 0.088991 0.132187
H35   H     H_    0.834214 0.062438 0.981143 0.161772
H36   H     H_    0.323584 0.015943 0.701027 0.122865
H37   H     H_    0.675100 0.917875 0.276935 0.133439
H38   H     H_    0.600578 0.577740 0.699844 0.118139
H39   H     H_    0.328807 0.374564 0.205585 0.126066
H40   H     H_    0.487062 0.738817 0.776386 0.121799
H41   H     H_    0.464583 0.194116 0.183670 0.117073
H42   H     H_    0.897012 0.598119 0.946435 0.148944
I1    I     I_    0.885600 0.837681 0.875548 -0.452328
I2    I     I_    0.131625 0.227927 0.198734 -0.493349
I3    I     I_    0.829188 0.796077 0.090142 -0.475058
I4    I     I_    0.166707 0.079470 0.863545 -0.509732
I5    I     I_    0.625101 0.719730 0.104556 -0.361425
I6    I     I_    0.386979 0.195480 0.891483 -0.429770
N1    N     N_R   0.705410 0.966550 0.689210 -0.066172
N2    N     N_R   0.556610 0.796750 0.548620 -0.040712
N3    N     N_R   0.556610 0.951620 0.703500 -0.045998
N4    N     N_R   0.443390 0.048380 0.296500 -0.043858
N5    N     N_R   0.294590 0.131500 0.522480 -0.049723
N6    N     N_R   0.705410 0.868500 0.477520 -0.045670
N7    N     N_R   0.705410 0.023370 0.632390 -0.057683
N8    N     N_R   0.294590 0.976630 0.367610 -0.052752
N9    N     N_R   0.294590 0.033450 0.310790 -0.058347
N10   N     N_R   0.294590 0.188320 0.465660 -0.039199
N11   N     N_R   0.705410 0.811680 0.534340 -0.044371
N12   N     N_R   0.556610 0.157790 0.497330 -0.042226
N13   N     N_R   0.443390 0.842210 0.502670 -0.048602
N14   N     N_R   0.443390 0.997080 0.657540 -0.045161
N15   N     N_R   0.556610 0.002920 0.342460 -0.052204
N16   N     N_R   0.443390 0.203250 0.451380 -0.036234
Ni1   Ni    Ni4+2 0.629830 0.882720 0.617850 0.241931
Ni2   Ni    Ni4+2 0.370170 0.117280 0.382150 0.250488
Ni3   Ni    Ni4+2 0.629830 0.013030 0.487540 0.219941
Ni4   Ni    Ni4+2 0.370170 0.986970 0.512460 0.219306

loop_
_geom_bond_atom_site_label_1
_geom_bond_atom_site_label_2
_ccdc_geom_bond_type
N9    Ni2   S    
C41   N13   A    
C4    H41   S    
C63   C65   A    
C59   N4    A    
C29   C42   A    
N4    N15   A    
C14   C18   A    
C3    C68   A    
C39   H19   S    
C55   H25   S    
N1    Ni1   S    
C33   C36   A    
C63   N8    A    
C47   C49   A    
C46   H21   S    
C15   C19   A    
C54   N15   A    
C46   C49   A    
C42   H7    S    
N3    Ni1   S    
C31   H14   S    
C38   H18   S    
C14   C21   A    
C37   H17   S    
C19   C21   A    
C24   C26   D    
C38   C42   A    
N15   Ni3   S    
C24   H5    S    
C53   H36   S    
C51   H35   S    
C14   I5    S    
C40   N12   A    
C2    H39   S    
C43   H8    S    
N3    N14   A    
C56   C57   A    
C19   C66   S    
C48   C56   S    
C16   H9    S    
N6    N11   A    
C2    C13   A    
C58   N3    A    
C62   C64   A    
C59   C67   A    
C58   C66   A    
C28   H1    S    
C22   C25   D    
C35   C49   S    
C31   C33   A    
N4    Ni2   S    
C44   C47   A    
C8    I4    S    
C48   C50   A    
C26   H3    S    
C23   C60   A    
C68   H38   S    
N12   N16   A    
C62   N7    A    
C25   C26   S    
C27   C51   D    
C45   C47   S    
C40   C45   A    
C37   C39   A    
C46   C48   A    
C52   H33   S    
N8    Ni4   S    
C51   C52   S    
C32   C35   A    
C4    C6    A    
C27   H12   S    
N12   Ni3   S    
C5    C7    A    
C17   N11   A    
C39   C43   A    
C12   N9    A    
C33   C50   S    
C34   C61   A    
C24   C34   S    
N7    Ni3   S    
C61   N6    A    
C2    C4    A    
C58   H27   S    
C41   C56   A    
C63   H32   S    
N13   Ni4   S    
C29   H11   S    
C15   C20   A    
C25   H4    S    
C1    N1    A    
C53   C66   A    
C9    C11   A    
C45   C55   A    
N2    Ni1   S    
C10   H2    S    
N16   Ni2   S    
C60   H29   S    
C16   C23   A    
C57   H26   S    
C30   C43   A    
C59   H28   S    
C22   H6    S    
C1    C64   A    
C12   I2    S    
C11   C68   A    
C44   C50   A    
C9    H42   S    
C7    C9    A    
C32   H15   S    
C54   H37   S    
C35   C37   A    
C15   I6    S    
N14   Ni4   S    
N11   Ni1   S    
C3    C5    A    
C10   C13   A    
C6    C8    A    
C54   C67   A    
C3    H40   S    
C6    C20   S    
C12   C65   A    
C7    I3    S    
C30   H13   S    
C36   C38   A    
C28   C65   S    
C18   C67   S    
N5    N10   A    
C29   C31   A    
N2    N13   A    
C1    I1    S    
C30   C32   A    
C28   C52   D    
C61   H30   S    
C36   H16   S    
C17   H10   S    
C18   C20   A    
N5    Ni4   S    
N1    N7    A    
C60   N5    A    
N6    Ni3   S    
C27   C64   S    
C62   H31   S    
C11   H23   S    
C41   H24   S    
C5    C21   S    
N10   Ni2   S    
C8    C10   A    
C55   N16   A    
C17   C34   A    
C22   C23   S    
N8    N9    A    
C53   N14   A    
C40   H22   S    
C13   H34   S    
C44   H20   S    
C16   N10   A    
C57   N2    A    
