data_mof_unit_66927.cif
_audit_creation_date              2013-03-05T15:57:29-0500
_audit_creation_method            fapswitch 2.2
_symmetry_space_group_name_H-M    P1
_symmetry_Int_Tables_number       1
_space_group_crystal_system       triclinic
_cell_length_a                    17.164974
_cell_length_b                    18.843307
_cell_length_c                    8.301622
_cell_angle_alpha                 90.000037
_cell_angle_beta                  102.355578
_cell_angle_gamma                 90.000253
_cell_volume                      2622.9256712

loop_
_atom_site_label
_atom_site_type_symbol
_atom_site_description
_atom_site_fract_x
_atom_site_fract_y
_atom_site_fract_z
_atom_type_partial_charge
P1    P     P_3+3 0.834140 0.419320 0.003900 0.967264
P2    P     P_3+3 0.834140 0.580680 0.503900 0.967360
P3    P     P_3+3 0.334140 0.919320 0.003900 0.967306
P4    P     P_3+3 0.334140 0.080680 0.503900 0.967266
O1    O     O_2   0.841960 0.394640 0.833410 -0.476430
O2    O     O_2   0.841960 0.605360 0.333410 -0.476332
O3    O     O_2   0.341960 0.894640 0.833410 -0.476235
O4    O     O_2   0.341960 0.105360 0.333410 -0.476419
O5    O     O_3   0.907950 0.463080 0.102990 -0.501406
O6    O     O_3   0.907950 0.536920 0.602990 -0.501456
O7    O     O_3   0.407950 0.963080 0.102990 -0.501426
O8    O     O_3   0.407950 0.036920 0.602990 -0.501344
O9    O     O_3   0.972780 0.329600 0.629720 -0.491025
O10   O     O_3   0.972780 0.670400 0.129720 -0.490839
O11   O     O_3   0.472780 0.829600 0.629720 -0.491013
O12   O     O_3   0.472780 0.170400 0.129720 -0.491126
O13   O     O_2   0.842223 0.275275 0.702310 -0.441659
O14   O     O_2   0.842323 0.724794 0.202537 -0.441188
O15   O     O_2   0.342212 0.775280 0.702320 -0.441632
O16   O     O_2   0.342170 0.224691 0.202205 -0.441861
O17   O     O_3   0.750403 0.473746 0.954290 -0.633409
O18   O     O_3   0.750411 0.526243 0.454289 -0.633402
O19   O     O_3   0.250403 0.973742 0.954283 -0.633361
O20   O     O_3   0.250374 0.026293 0.454309 -0.633406
O21   O     O_3   0.945321 0.182690 0.644512 -0.586851
O22   O     O_3   0.945439 0.817319 0.144588 -0.586655
O23   O     O_3   0.445282 0.682691 0.644445 -0.586884
O24   O     O_3   0.445237 0.317307 0.144414 -0.586992
H1    H     H_    0.067563 0.192248 0.692311 0.075211
H2    H     H_    0.067743 0.808326 0.193946 0.075926
H3    H     H_    0.567522 0.692260 0.692404 0.075279
H4    H     H_    0.567451 0.307455 0.191732 0.074966
C1    C     C_3   0.028015 0.101962 0.536331 -0.408219
C2    C     C_3   0.028008 0.897645 0.034850 -0.409536
C3    C     C_3   0.528033 0.601994 0.536344 -0.408120
C4    C     C_3   0.528081 0.398185 0.037093 -0.407415
H5    H     H_    0.586039 0.596549 0.498559 0.106876
H6    H     H_    0.586095 0.403689 0.999370 0.106797
H7    H     H_    0.085998 0.096502 0.498457 0.106963
H8    H     H_    0.086073 0.903010 0.997283 0.107083
H9    H     H_    0.026441 0.065036 0.639790 0.141031
H10   H     H_    0.026070 0.935134 0.137103 0.141336
H11   H     H_    0.526428 0.565060 0.639768 0.141256
H12   H     H_    0.526555 0.434868 0.141017 0.141097
P5    P     P_3+3 0.165830 0.418670 0.685610 0.944631
P6    P     P_3+3 0.165830 0.581330 0.185610 0.944620
P7    P     P_3+3 0.665830 0.918670 0.685610 0.944605
P8    P     P_3+3 0.665830 0.081330 0.185610 0.944623
P9    P     P_3+3 0.095771 0.261342 0.105002 0.994899
P10   P     P_3+3 0.095728 0.738685 0.604962 0.995120
P11   P     P_3+3 0.595763 0.761333 0.105037 0.994965
P12   P     P_3+3 0.595784 0.238652 0.605052 0.994771
O25   O     O_2   0.157990 0.394030 0.856030 -0.457528
O26   O     O_2   0.157990 0.605970 0.356030 -0.457458
O27   O     O_2   0.657990 0.894030 0.856030 -0.457434
O28   O     O_2   0.657990 0.105970 0.356030 -0.457555
O29   O     O_3   0.027110 0.329490 0.059550 -0.494509
O30   O     O_3   0.027110 0.670510 0.559550 -0.494200
O31   O     O_3   0.527110 0.829490 0.059550 -0.494460
O32   O     O_3   0.527110 0.170510 0.559550 -0.494627
O33   O     O_2   0.152306 0.268367 0.983796 -0.449375
O34   O     O_2   0.152267 0.731635 0.483772 -0.449384
O35   O     O_2   0.652289 0.768339 0.983808 -0.449323
O36   O     O_2   0.652329 0.231637 0.483865 -0.449365
O37   O     O_3   0.254542 0.466796 0.748538 -0.686694
O38   O     O_3   0.254532 0.533194 0.248589 -0.686700
O39   O     O_3   0.754539 0.966800 0.748566 -0.686697
O40   O     O_3   0.754546 0.033209 0.248531 -0.686684
O41   O     O_3   0.041567 0.184491 0.043712 -0.605964
O42   O     O_3   0.041435 0.815464 0.543407 -0.605368
O43   O     O_3   0.541548 0.684487 0.043767 -0.605981
O44   O     O_3   0.541625 0.315532 0.543848 -0.606268
C5    C     C_3   0.965558 0.193605 0.077412 0.379167
C6    C     C_3   0.965734 0.806609 0.578906 0.379351
C7    C     C_3   0.465550 0.693609 0.077509 0.379124
C8    C     C_3   0.465476 0.306307 0.576763 0.378965
H13   H     H_    0.930358 0.232711 0.991335 0.098504
H14   H     H_    0.930242 0.767016 0.494579 0.096660
H15   H     H_    0.430352 0.732730 0.991473 0.098414
H16   H     H_    0.430410 0.267374 0.489984 0.099211
H17   H     H_    0.968955 0.210269 0.206968 -0.086008
H18   H     H_    0.969787 0.790754 0.709261 -0.086897
H19   H     H_    0.468965 0.710257 0.207081 -0.086014
H20   H     H_    0.468586 0.289347 0.706031 -0.085634
C9    C     C_3   0.922292 0.124061 0.051496 -0.358037
C10   C     C_3   0.922274 0.876038 0.551427 -0.358721
C11   C     C_3   0.422268 0.624075 0.051553 -0.358213
C12   C     C_3   0.422282 0.375892 0.551352 -0.357376
H21   H     H_    0.414865 0.607832 0.920862 0.145131
H22   H     H_    0.362532 0.369925 0.580620 0.064904
H23   H     H_    0.914972 0.107759 0.920857 0.145186
H24   H     H_    0.913846 0.891282 0.419804 0.145912
H25   H     H_    0.957345 0.083155 0.131897 0.119145
H26   H     H_    0.957792 0.917567 0.629122 0.119956
H27   H     H_    0.457355 0.583139 0.131785 0.119263
H28   H     H_    0.415608 0.392679 0.421139 0.144917
C13   C     C_3   0.258632 0.474243 0.149265 0.244194
C14   C     C_3   0.258632 0.525741 0.649193 0.244179
C15   C     C_3   0.758641 0.974264 0.149185 0.244265
C16   C     C_3   0.758622 0.025761 0.649267 0.244277
H29   H     H_    0.213933 0.476967 0.033956 0.084595
H30   H     H_    0.213985 0.522968 0.533808 0.084568
H31   H     H_    0.714015 0.977050 0.033768 0.084618
H32   H     H_    0.713942 0.023023 0.533932 0.084587
C17   C     C_3   0.340585 0.471630 0.106163 -0.348052
C18   C     C_3   0.340627 0.528417 0.606277 -0.347980
C19   C     C_3   0.840658 0.971565 0.106355 -0.348420
C20   C     C_3   0.840589 0.028423 0.606224 -0.348466
H33   H     H_    0.388607 0.482126 0.216308 0.102308
H34   H     H_    0.388620 0.517994 0.716522 0.102398
H35   H     H_    0.888633 0.982019 0.216626 0.102608
H36   H     H_    0.888601 0.017884 0.716372 0.102579
H37   H     H_    0.351202 0.419788 0.052124 0.154449
H38   H     H_    0.351207 0.580257 0.552188 0.154423
H39   H     H_    0.851268 0.919708 0.052374 0.154430
H40   H     H_    0.851215 0.080295 0.552337 0.154503
H41   H     H_    0.342886 0.510954 0.009922 0.100419
H42   H     H_    0.343028 0.489082 0.510119 0.100411
H43   H     H_    0.843070 0.010864 0.010118 0.100531
H44   H     H_    0.842903 0.989159 0.509855 0.100513
Ba1   Ba    Ba6+2 0.000000 0.447380 0.844850 1.652052
Ba2   Ba    Ba6+2 0.000000 0.552620 0.344850 1.652175
Ba3   Ba    Ba6+2 0.500000 0.947380 0.844850 1.652072
Ba4   Ba    Ba6+2 0.500000 0.052620 0.344850 1.651994
C21   C     C_3   0.773099 0.544191 0.937010 0.276296
C22   C     C_3   0.773127 0.455795 0.437118 0.276184
C23   C     C_3   0.273093 0.044185 0.936978 0.276276
C24   C     C_3   0.273003 0.955854 0.436749 0.276496
H45   H     H_    0.796592 0.549164 0.823466 -0.013067
H46   H     H_    0.796622 0.450798 0.323582 -0.013095
H47   H     H_    0.296607 0.049147 0.823459 -0.012968
H48   H     H_    0.296504 0.950945 0.323201 -0.012987
H49   H     H_    0.818679 0.562533 0.044412 0.069676
H50   H     H_    0.818713 0.437486 0.544540 0.069824
H51   H     H_    0.318654 0.062539 0.044399 0.069665
H52   H     H_    0.318555 0.937424 0.544116 0.069400
C25   C     C_3   0.699971 0.591306 0.923846 -0.279899
C26   C     C_3   0.700023 0.408658 0.424033 -0.279809
C27   C     C_3   0.199952 0.091290 0.923723 -0.279881
C28   C     C_3   0.199802 0.908806 0.423326 -0.280060
H53   H     H_    0.660020 0.583879 0.801459 0.076355
H54   H     H_    0.660111 0.415993 0.301580 0.076181
H55   H     H_    0.160027 0.083844 0.801314 0.076348
H56   H     H_    0.159794 0.916456 0.301061 0.076684
H57   H     H_    0.718287 0.647717 0.937471 0.062004
H58   H     H_    0.718373 0.352260 0.437884 0.062214
H59   H     H_    0.218251 0.147705 0.937334 0.062038
H60   H     H_    0.218015 0.852358 0.436440 0.061660
O45   O     O_3   0.092100 0.536880 0.086720 -0.506010
O46   O     O_3   0.092100 0.463120 0.586720 -0.506005
O47   O     O_3   0.592100 0.036880 0.086720 -0.505982
O48   O     O_3   0.592100 0.963120 0.586720 -0.506006
P13   P     P_3+3 0.899760 0.735781 0.084850 0.993358
P14   P     P_3+3 0.899721 0.264253 0.584771 0.992672
P15   P     P_3+3 0.399691 0.235722 0.084722 0.992412
P16   P     P_3+3 0.399701 0.764267 0.584758 0.992768
C29   C     C_3   0.017244 0.177904 0.589343 0.324589
C30   C     C_3   0.017549 0.821969 0.090077 0.324406
C31   C     C_3   0.517231 0.677924 0.589378 0.324454
C32   C     C_3   0.517113 0.322126 0.089089 0.324504
H61   H     H_    0.019829 0.212882 0.482934 -0.055454
H62   H     H_    0.020689 0.786378 0.984996 -0.054503
H63   H     H_    0.519844 0.712915 0.483015 -0.055385
H64   H     H_    0.519473 0.287417 0.982098 -0.055801
H65   H     H_    0.479201 0.587669 0.430608 0.112556
H66   H     H_    0.479281 0.412798 0.931555 0.112393
H67   H     H_    0.979151 0.087638 0.430655 0.112567
H68   H     H_    0.979204 0.911286 0.928441 0.112872
H69   H     H_    0.362851 0.629831 0.082437 0.064854
H70   H     H_    0.457053 0.416534 0.633154 0.118607
H71   H     H_    0.862838 0.129831 0.082204 0.064886
H72   H     H_    0.863293 0.870608 0.584611 0.064722
C33   C     C_R   0.133334 0.680809 0.923908 -0.242609
C34   C     C_R   0.133339 0.319197 0.423929 -0.243021
C35   C     C_R   0.633321 0.180818 0.923987 -0.243112
C36   C     C_R   0.633333 0.819183 0.423980 -0.242947
C37   C     C_R   0.860266 0.323600 0.269969 -0.292212
C38   C     C_R   0.860281 0.676415 0.770007 -0.292724
C39   C     C_R   0.360230 0.823622 0.269975 -0.292336
C40   C     C_R   0.360250 0.176388 0.769942 -0.292112
C41   C     C_R   0.789036 0.215466 0.305074 -0.091370
C42   C     C_R   0.789041 0.784543 0.805106 -0.091566
C43   C     C_R   0.289014 0.715479 0.305051 -0.091457
C44   C     C_R   0.289029 0.284527 0.805038 -0.091288
C45   C     C_R   0.845739 0.267166 0.368200 -0.008598
C46   C     C_R   0.845752 0.732852 0.868253 -0.009028
C47   C     C_R   0.345705 0.767186 0.368196 -0.008473
C48   C     C_R   0.345720 0.232818 0.868165 -0.008312
C49   C     C_R   0.814450 0.333977 0.111293 0.042414
C50   C     C_R   0.814455 0.666026 0.611326 0.042433
C51   C     C_R   0.314433 0.833985 0.111278 0.042336
C52   C     C_R   0.314450 0.166024 0.611257 0.042452
C53   C     C_R   0.753113 0.282504 0.047539 -0.056501
C54   C     C_R   0.753122 0.717500 0.547561 -0.056298
C55   C     C_R   0.253100 0.782510 0.047502 -0.056373
C56   C     C_R   0.253112 0.217497 0.547497 -0.056536
C57   C     C_R   0.240986 0.721613 0.145537 -0.060910
C58   C     C_R   0.240994 0.278392 0.645538 -0.060938
C59   C     C_R   0.740998 0.221606 0.145574 -0.060816
C60   C     C_R   0.741010 0.778400 0.645590 -0.060727
C61   C     C_R   0.180596 0.669445 0.081536 0.062210
C62   C     C_R   0.180596 0.330555 0.581553 0.062233
C63   C     C_R   0.680593 0.169449 0.081587 0.062267
C64   C     C_R   0.680604 0.830555 0.581585 0.062226
C65   C     C_R   0.147880 0.737321 0.824636 0.039881
C66   C     C_R   0.147907 0.262702 0.324649 0.040271
C67   C     C_R   0.647904 0.237301 0.824699 0.040483
C68   C     C_R   0.647906 0.762693 0.324697 0.040310
C69   C     C_R   0.205231 0.788679 0.887691 -0.069170
C70   C     C_R   0.205244 0.211333 0.387693 -0.069064
C71   C     C_R   0.705245 0.288668 0.887736 -0.069016
C72   C     C_R   0.705255 0.711333 0.387748 -0.069111
H73   H     H_    0.282202 0.671541 0.383582 0.140070
H74   H     H_    0.282214 0.328461 0.883581 0.140078
H75   H     H_    0.782216 0.171533 0.383613 0.140020
H76   H     H_    0.782220 0.828481 0.883632 0.140074
H77   H     H_    0.713416 0.331999 0.808553 0.099309
H78   H     H_    0.713431 0.668003 0.308569 0.099253
H79   H     H_    0.213407 0.832012 0.808520 0.099399
H80   H     H_    0.213410 0.167997 0.308515 0.099401
H81   H     H_    0.088700 0.641770 0.872338 0.053957
H82   H     H_    0.088705 0.358235 0.372359 0.054067
H83   H     H_    0.588677 0.141786 0.872422 0.054104
H84   H     H_    0.588688 0.858213 0.372415 0.054059
H85   H     H_    0.905583 0.362114 0.321228 0.061432
H86   H     H_    0.905600 0.637904 0.821261 0.061512
H87   H     H_    0.405536 0.862143 0.321249 0.061416
H88   H     H_    0.405560 0.137870 0.821211 0.061386
C73   C     C_1   0.656668 0.572464 0.052484 0.398709
N1    N     N_1   0.622914 0.556715 0.153734 -0.302450
C74   C     C_1   0.656655 0.427567 0.552522 0.398850
N2    N     N_1   0.622844 0.443361 0.653649 -0.302356
C75   C     C_1   0.156621 0.072449 0.052317 0.398745
N3    N     N_1   0.122847 0.056699 0.153534 -0.302568
C76   C     C_1   0.156617 0.927507 0.552246 0.398489
N4    N     N_1   0.122964 0.943159 0.653727 -0.302763
C77   C     C_2   0.247964 0.409792 0.245732 0.524407
H89   H     H_    0.230812 0.415712 0.362623 -0.117406
O49   O     O_2   0.260501 0.350942 0.196464 -0.591169
C78   C     C_2   0.247845 0.590187 0.745567 0.524485
H90   H     H_    0.230615 0.584253 0.862375 -0.117433
O50   O     O_2   0.260384 0.649043 0.696336 -0.591243
C79   C     C_2   0.747811 0.909819 0.245523 0.523937
H91   H     H_    0.730612 0.915750 0.362367 -0.117118
O51   O     O_2   0.760311 0.850962 0.196245 -0.591380
C80   C     C_2   0.747892 0.090194 0.745737 0.524317
H92   H     H_    0.730672 0.084250 0.862543 -0.117372
O52   O     O_2   0.760457 0.149053 0.696571 -0.591292

loop_
_geom_bond_atom_site_label_1
_geom_bond_atom_site_label_2
_geom_bond_distance
_ccdc_geom_bond_type
C43   H73   1.075548 S    
C15   H31   1.092459 S    
C12   H28   1.108470 S    
P1    O17   1.741840 S    
O10   Ba2   2.824242 S    
O16   P15   1.543170 D    
P12   O36   1.545809 D    
P12   C67   1.851431 S    
C20   H44   1.096638 S    
P3    O19   1.741808 S    
O7    Ba4   2.831420 S    
C34   H82   1.082137 S    
C35   C67   1.401121 A    
O44   C8    1.402231 S    
O6    Ba1   2.831430 S    
C33   H81   1.082136 S    
C28   H60   1.107437 S    
C9    H23   1.108156 S    
C37   C45   1.394643 A    
Ba3   Ba4   4.600196 S    
C16   C80   1.487449 S    
P2    O2    1.522760 D    
P8    C63   1.913292 S    
C27   H59   1.107389 S    
C43   C57   1.406903 A    
O11   Ba3   2.824237 S    
C18   H38   1.106223 S    
C10   H72   1.109373 S    
C38   H86   1.082203 S    
C32   H64   1.110718 S    
O38   C13   1.394125 S    
C25   H57   1.107396 S    
C26   C74   1.469254 S    
C3    H5    1.110817 S    
C23   H51   1.108158 S    
O37   C14   1.394123 S    
C55   C69   1.407926 A    
P3    O3    1.522759 D    
P15   C48   1.838605 S    
C24   H52   1.108232 S    
P4    O20   1.741789 S    
C54   C72   1.407924 A    
O18   C22   1.399401 S    
C14   C78   1.487448 S    
P13   C46   1.839093 S    
C22   H46   1.105688 S    
O23   C31   1.408521 S    
C79   H91   1.078470 S    
C11   H69   1.108875 S    
O1    Ba1   2.871481 S    
O24   C32   1.408484 S    
P9    O29   1.729194 S    
Ba1   O46   2.937512 S    
P4    Ba4   3.425930 S    
C33   C61   1.400721 A    
P5    O46   1.591403 S    
C42   C46   1.397420 A    
P7    O39   1.753187 S    
O32   Ba4   2.823679 S    
P4    C52   1.903590 S    
C25   H53   1.106327 S    
C40   C48   1.394561 A    
C80   H92   1.078353 S    
P5    O37   1.753155 S    
C9    H25   1.108948 S    
P6    C61   1.913447 S    
C54   C60   1.447341 A    
P1    O5    1.586111 S    
P3    Ba3   3.425926 S    
P5    C62   1.913373 S    
C79   O51   1.216952 D    
C11   H27   1.108923 S    
P2    O18   1.741849 S    
C28   C76   1.469222 S    
C76   N4    1.157009 T    
O41   C5    1.402220 S    
P4    O8    1.586118 S    
C10   H26   1.109850 S    
C75   N3    1.157011 T    
C8    C12   1.498846 S    
O28   Ba4   2.875038 S    
C49   C53   1.445988 A    
P4    O4    1.522760 D    
C56   C70   1.407867 A    
C28   H56   1.106486 S    
O26   Ba2   2.875038 S    
C16   C20   1.524756 S    
P5    O25   1.522075 D    
C36   C64   1.400653 A    
C2    H10   1.110304 S    
P9    O41   1.737527 S    
C77   H89   1.078437 S    
C18   H42   1.096544 S    
C39   C47   1.394603 A    
C42   H76   1.075547 S    
O15   P16   1.543196 D    
C17   H41   1.096558 S    
C1    H67   1.109539 S    
C23   C27   1.522179 S    
C15   C19   1.524854 S    
C6    H18   1.110379 S    
C2    H68   1.109721 S    
O13   P14   1.543194 D    
C24   H48   1.105692 S    
C19   H43   1.096589 S    
P11   O43   1.737509 S    
C1    C29   1.520021 S    
C50   C54   1.445987 A    
C51   C55   1.446008 A    
P2    Ba2   3.425930 S    
O31   Ba3   2.823684 S    
C71   H77   1.076071 S    
P14   C45   1.838767 S    
C80   O52   1.216915 D    
C8    H20   1.109992 S    
O30   Ba2   2.823679 S    
C37   C49   1.395912 A    
P10   O30   1.729073 S    
Ba2   O45   2.937514 S    
P2    C50   1.903879 S    
P7    O48   1.591403 S    
P11   O35   1.545823 D    
C1    H9    1.110172 S    
C25   C73   1.469241 S    
C26   H54   1.106261 S    
C70   H80   1.076076 S    
C41   C45   1.397396 A    
P11   C68   1.851634 S    
O4    Ba4   2.871489 S    
H1    C29   1.110765 S    
C12   H70   1.109246 S    
P5    Ba1   3.428260 S    
C53   C59   1.447341 A    
C67   C71   1.399658 A    
O29   Ba1   2.823684 S    
C40   H88   1.082212 S    
C39   H87   1.082210 S    
C6    C10   1.499098 S    
C20   H36   1.110076 S    
C69   H79   1.076047 S    
O42   C6    1.402495 S    
C73   N1    1.157012 T    
P12   O44   1.737506 S    
C38   C46   1.394762 A    
C14   H30   1.092441 S    
C60   C64   1.444805 A    
O24   P15   1.747677 S    
O9    Ba1   2.824237 S    
C66   C70   1.399666 A    
C44   H74   1.075560 S    
C52   C56   1.446012 A    
C34   C62   1.400645 A    
C65   C69   1.399691 A    
C68   C72   1.399684 A    
C21   H45   1.105692 S    
C5    C9    1.498901 S    
P6    O26   1.522076 D    
O12   P15   1.740119 S    
C78   O50   1.216961 D    
O5    Ba2   2.831420 S    
C16   H32   1.092400 S    
C42   C60   1.406952 A    
C27   H55   1.106321 S    
C41   H75   1.075555 S    
C36   C68   1.401146 A    
C1    H7    1.110817 S    
P8    O40   1.753167 S    
C57   C61   1.444785 A    
C19   H39   1.106248 S    
O11   P16   1.740131 S    
O14   P13   1.543237 D    
O39   C16   1.394120 S    
C5    H17   1.109917 S    
C58   C62   1.444802 A    
C2    C30   1.520215 S    
C56   C58   1.447345 A    
Ba4   O47   2.937514 S    
C12   H22   1.109141 S    
C4    C32   1.520075 S    
C44   C58   1.406850 A    
C77   O49   1.216958 D    
O10   P13   1.740045 S    
C40   C52   1.395835 A    
P10   O34   1.545812 D    
C27   C75   1.469237 S    
P1    O1    1.522759 D    
C4    H12   1.110161 S    
P11   O31   1.729244 S    
O2    Ba2   2.871489 S    
O17   C21   1.399389 S    
P2    O6    1.586118 S    
O27   Ba3   2.875048 S    
C29   H61   1.110631 S    
C74   N2    1.157020 T    
C3    H11   1.110134 S    
P7    O27   1.522075 D    
C18   H34   1.110034 S    
P16   C47   1.838770 S    
C17   H37   1.106223 S    
O23   P16   1.747739 S    
H2    C30   1.110862 S    
C17   H33   1.110012 S    
Ba3   O48   2.937512 S    
C22   C26   1.522173 S    
C5    H13   1.110811 S    
C36   H84   1.082139 S    
O21   P14   1.747745 S    
H3    C31   1.110720 S    
C19   H35   1.110106 S    
C13   C17   1.524715 S    
Ba3   O47   2.831368 S    
P6    Ba2   3.428257 S    
C8    H16   1.110809 S    
O3    Ba3   2.871481 S    
C59   C63   1.444805 A    
P8    Ba4   3.428257 S    
C33   C65   1.401250 A    
Ba1   Ba2   4.600196 S    
P6    O38   1.753181 S    
P7    Ba3   3.428260 S    
P8    O28   1.522076 D    
C13   C77   1.487474 S    
O19   C23   1.399367 S    
C21   H49   1.108158 S    
C14   C18   1.524770 S    
Ba4   O48   2.831378 S    
C21   C25   1.522189 S    
C20   H40   1.106208 S    
C23   H47   1.105685 S    
C4    H6    1.110822 S    
O12   Ba4   2.824242 S    
O40   C15   1.394140 S    
C35   C63   1.400617 A    
O25   Ba1   2.875048 S    
O43   C7    1.402187 S    
P9    O33   1.545815 D    
C7    H19   1.109904 S    
P10   O42   1.737521 S    
O8    Ba3   2.831430 S    
C72   H78   1.076053 S    
C26   H58   1.107391 S    
C38   C50   1.396035 A    
C34   C66   1.401171 A    
C78   H90   1.078432 S    
C3    H65   1.109533 S    
Ba1   O45   2.831368 S    
P7    C64   1.913280 S    
O22   C30   1.408642 S    
C31   H63   1.110568 S    
C15   C79   1.487438 S    
P3    C51   1.903608 S    
P1    Ba1   3.425926 S    
O9    P14   1.740067 S    
Ba2   O46   2.831378 S    
C3    C31   1.519963 S    
P3    O7    1.586111 S    
C30   H62   1.110764 S    
O21   C29   1.408541 S    
C37   H85   1.082210 S    
C9    H71   1.108885 S    
P10   C65   1.851776 S    
C44   C48   1.397396 A    
P6    O45   1.591397 S    
C39   C51   1.395892 A    
P9    C66   1.851505 S    
C22   H50   1.108126 S    
P12   O32   1.729267 S    
C4    H66   1.109514 S    
C6    H14   1.111454 S    
P8    O47   1.591397 S    
C43   C47   1.397410 A    
O20   C24   1.399329 S    
C11   H21   1.108124 S    
C35   H83   1.082141 S    
C2    H8    1.110814 S    
O22   P13   1.747846 S    
C10   H24   1.108946 S    
H4    C32   1.110863 S    
C53   C71   1.407856 A    
C7    H15   1.110806 S    
C13   H29   1.092386 S    
C7    C11   1.498874 S    
P1    C49   1.903720 S    
C24   C28   1.522232 S    
C55   C57   1.447335 A    
C41   C59   1.406874 A    
