data_mof_unit_58238.cif
_audit_creation_date              2012-12-11T15:35:57-0500
_audit_creation_method            fapswitch 2.2
_symmetry_space_group_name_H-M    P1
_symmetry_Int_Tables_number       1
_space_group_crystal_system       triclinic
_cell_length_a                    7.063418
_cell_length_b                    11.845211
_cell_length_c                    36.0811
_cell_angle_alpha                 89.999548
_cell_angle_beta                  91.092071
_cell_angle_gamma                 90.000307
_cell_volume                      3018.27346459

loop_
_atom_site_label
_atom_site_type_symbol
_atom_type_description
_atom_site_fract_x
_atom_site_fract_y
_atom_site_fract_z
_atom_type_partial_charge
O1    O     O_R   0.379730 0.148600 0.662710 -0.539558
O2    O     O_R   0.620270 0.851400 0.337290 -0.539476
O3    O     O_R   0.120270 0.648600 0.337290 -0.539564
O4    O     O_R   0.879730 0.351400 0.662710 -0.539481
O5    O     O_R   0.722480 0.134490 0.741330 -0.536187
O6    O     O_R   0.277520 0.865510 0.258670 -0.537157
O7    O     O_R   0.777520 0.634490 0.258670 -0.536186
O8    O     O_R   0.222480 0.365510 0.741330 -0.537161
O9    O     O_R   0.892880 0.345890 0.741600 -0.532799
O10   O     O_R   0.107120 0.654110 0.258400 -0.537168
O11   O     O_R   0.607120 0.845890 0.258400 -0.532797
O12   O     O_R   0.392880 0.154110 0.741600 -0.537171
C1    C     C_R   0.552493 0.105431 0.752200 0.690607
C2    C     C_R   0.446744 0.893687 0.247461 0.695434
C3    C     C_R   0.947506 0.605431 0.247799 0.690601
C4    C     C_R   0.053258 0.393683 0.752540 0.695426
O13   O     O_R   0.709490 0.135560 0.662990 -0.540228
O14   O     O_R   0.290510 0.864440 0.337010 -0.540135
O15   O     O_R   0.790510 0.635560 0.337010 -0.540227
O16   O     O_R   0.209490 0.364440 0.662990 -0.540133
C5    C     C_R   0.540042 0.108682 0.650736 0.690088
C6    C     C_R   0.459959 0.891326 0.349261 0.690329
C7    C     C_R   0.959956 0.608681 0.349264 0.690092
C8    C     C_R   0.040043 0.391327 0.650738 0.690342
O17   O     O_3   0.552800 0.316610 0.702160 -0.367474
O18   O     O_3   0.447200 0.683390 0.297840 -0.368737
O19   O     O_3   0.947200 0.816610 0.297840 -0.367470
O20   O     O_3   0.052800 0.183390 0.702160 -0.368733
V1    V     V_3+5 0.827630 0.234380 0.702160 1.420213
V2    V     V_3+5 0.172370 0.765620 0.297840 1.418980
V3    V     V_3+5 0.672370 0.734380 0.297840 1.420220
V4    V     V_3+5 0.327630 0.265620 0.702160 1.418969
C9    C     C_R   0.011098 0.677134 0.906848 0.526700
C10   C     C_R   0.003949 0.336093 0.090598 0.524383
C11   C     C_R   0.488912 0.177136 0.093152 0.526699
C12   C     C_R   0.496054 0.836094 0.909399 0.524382
O21   O     O_2   0.994481 0.564673 0.911419 -0.576919
O22   O     O_2   0.028384 0.448343 0.086627 -0.566148
O23   O     O_2   0.505527 0.064676 0.088581 -0.576922
O24   O     O_2   0.471606 0.948343 0.913369 -0.566147
N1    N     N_R   0.028415 0.721942 0.871872 -0.535127
N2    N     N_R   0.983802 0.290236 0.125388 -0.542876
N3    N     N_R   0.471596 0.221942 0.128128 -0.535127
N4    N     N_R   0.516205 0.790235 0.874611 -0.542878
C13   C     C_R   0.036605 0.837376 0.867656 0.572926
C14   C     C_R   0.961394 0.175746 0.129105 0.577352
C15   C     C_R   0.463403 0.337375 0.132344 0.572925
C16   C     C_R   0.538619 0.675747 0.870895 0.577342
C17   C     C_R   0.930657 0.660657 0.807129 -0.053886
C18   C     C_R   0.082605 0.345705 0.190689 -0.038599
C19   C     C_R   0.569343 0.160663 0.192873 -0.053889
C20   C     C_R   0.417398 0.845704 0.809310 -0.038600
C21   C     C_R   0.929682 0.577984 0.778834 -0.197495
C22   C     C_R   0.081243 0.425536 0.219847 -0.200931
C23   C     C_R   0.570309 0.077995 0.221169 -0.197524
C24   C     C_R   0.418756 0.925537 0.780152 -0.200934
C25   C     C_R   0.170128 0.473538 0.812407 -0.177823
C26   C     C_R   0.832594 0.526592 0.188002 -0.170206
C27   C     C_R   0.329887 0.973535 0.187593 -0.177829
C28   C     C_R   0.667414 0.026590 0.811996 -0.170212
C29   C     C_R   0.161277 0.551174 0.841444 -0.082550
C30   C     C_R   0.852547 0.456735 0.157285 -0.077974
C31   C     C_R   0.338744 0.051169 0.158555 -0.082561
C32   C     C_R   0.647463 0.956733 0.842713 -0.077966
C33   C     C_R   0.042068 0.646234 0.839800 0.274544
C34   C     C_R   0.973862 0.363740 0.157914 0.280451
C35   C     C_R   0.457946 0.146233 0.160200 0.274558
C36   C     C_R   0.526145 0.863739 0.842085 0.280459
C37   C     C_R   0.016921 0.864838 0.934659 -0.089481
C38   C     C_R   0.982318 0.149617 0.062083 -0.091926
C39   C     C_R   0.483088 0.364840 0.065341 -0.089482
C40   C     C_R   0.517695 0.649619 0.937916 -0.091925
C41   C     C_R   0.006365 0.746901 0.938425 -0.003927
C42   C     C_R   0.002412 0.267218 0.058655 -0.001336
C43   C     C_R   0.493646 0.246904 0.061575 -0.003923
C44   C     C_R   0.497598 0.767220 0.941344 -0.001337
C45   C     C_R   0.990272 0.700018 0.973766 -0.118742
C46   C     C_R   0.023781 0.314014 0.023390 -0.115522
C47   C     C_R   0.509742 0.200021 0.026234 -0.118743
C48   C     C_R   0.476235 0.814018 0.976608 -0.115526
C49   C     C_R   0.034177 0.911183 0.898911 -0.113546
C50   C     C_R   0.959882 0.103231 0.097646 -0.107085
C51   C     C_R   0.465830 0.411184 0.101089 -0.113550
C52   C     C_R   0.540132 0.603233 0.902353 -0.107079
C53   C     C_R   0.048251 0.482592 0.781617 -0.084228
C54   C     C_R   0.955777 0.517900 0.218363 -0.103726
C55   C     C_R   0.451750 0.982597 0.218385 -0.084213
C56   C     C_R   0.544224 0.017900 0.781636 -0.103721
H1    H     H_    0.265591 0.402571 0.814828 0.163697
H2    H     H_    0.724277 0.590140 0.187840 0.187616
H3    H     H_    0.234430 0.902565 0.185172 0.163698
H4    H     H_    0.775734 0.090137 0.812157 0.187610
H5    H     H_    0.241556 0.533617 0.866155 0.175082
H6    H     H_    0.776023 0.476172 0.132414 0.168690
H7    H     H_    0.258468 0.033610 0.133845 0.175086
H8    H     H_    0.723988 0.976168 0.867584 0.168686
H9    H     H_    0.984066 0.609368 0.977633 0.158506
H10   H     H_    0.040800 0.404257 0.019817 0.157225
H11   H     H_    0.515951 0.109372 0.022368 0.158508
H12   H     H_    0.459217 0.904261 0.980181 0.157225
C57   C     C_R   0.973445 0.959478 0.033931 -0.022427
C58   C     C_R   0.012069 0.055212 0.962533 -0.027269
C59   C     C_R   0.526562 0.459482 0.966069 -0.022424
C60   C     C_R   0.487943 0.555215 0.037467 -0.027264
C61   C     C_R   0.007795 0.126867 0.994372 0.058354
C62   C     C_R   0.986981 0.887664 0.002295 0.059935
C63   C     C_R   0.492220 0.626870 0.005628 0.058354
C64   C     C_R   0.513029 0.387668 0.997706 0.059936
C65   C     C_R   0.987281 0.078448 0.030010 0.068982
C66   C     C_R   0.006649 0.936146 0.966617 0.069570
C67   C     C_R   0.512732 0.578451 0.969990 0.068980
C68   C     C_R   0.493361 0.436149 0.033383 0.069571
C69   C     C_R   0.947419 0.916017 0.069706 -0.236819
C70   C     C_R   0.017990 0.099041 0.926400 -0.219828
C71   C     C_R   0.552577 0.416019 0.930295 -0.236818
C72   C     C_R   0.482019 0.599043 0.073600 -0.219829
C73   C     C_R   0.939090 0.985277 0.100826 0.453397
C74   C     C_R   0.039071 0.030301 0.895341 0.474647
C75   C     C_R   0.560919 0.485279 0.899174 0.453386
C76   C     C_R   0.460937 0.530301 0.104658 0.474628
O25   O     O_2   0.941179 0.131643 0.163172 -0.529385
O26   O     O_2   0.045077 0.881425 0.833369 -0.538152
O27   O     O_2   0.558834 0.631643 0.836827 -0.529386
O28   O     O_2   0.454927 0.381424 0.166631 -0.538153
C77   C     C_R   0.981620 0.768325 0.004965 -0.171903
C78   C     C_R   0.027403 0.245760 0.992003 -0.175412
C79   C     C_R   0.518395 0.268329 0.995035 -0.171904
C80   C     C_R   0.472618 0.745764 0.007996 -0.175409
H13   H     H_    0.174346 0.413842 0.243723 0.129390
H14   H     H_    0.837170 0.588705 0.754819 0.127330
H15   H     H_    0.325648 0.913844 0.756277 0.129389
H16   H     H_    0.662809 0.088722 0.245185 0.127323
H17   H     H_    0.174920 0.273327 0.193110 0.167632
H18   H     H_    0.836619 0.732282 0.804258 0.176085
H19   H     H_    0.325082 0.773326 0.806889 0.167627
H20   H     H_    0.663377 0.232291 0.195743 0.176084
H21   H     H_    0.931883 0.827332 0.075065 0.130926
H22   H     H_    0.000138 0.187697 0.920926 0.136672
H23   H     H_    0.568099 0.327334 0.924936 0.130919
H24   H     H_    0.499867 0.687700 0.079075 0.136678
H25   H     H_    0.971662 0.723580 0.030785 0.130023
H26   H     H_    0.051447 0.289373 0.966337 0.130548
H27   H     H_    0.528361 0.223583 0.969216 0.130018
H28   H     H_    0.448581 0.789379 0.033661 0.130548
C81   C     C_R   0.968339 0.529697 0.380383 -0.033290
C82   C     C_R   0.031658 0.470312 0.619620 -0.033301
C83   C     C_R   0.531641 0.029702 0.619616 -0.033255
C84   C     C_R   0.468364 0.970306 0.380380 -0.033261
C85   C     C_R   0.923474 0.342127 0.404759 -0.167369
C86   C     C_R   0.076502 0.657885 0.595245 -0.167398
C87   C     C_R   0.576179 0.842104 0.595246 -0.167387
C88   C     C_R   0.423887 0.157912 0.404749 -0.167414
C89   C     C_R   0.930653 0.415347 0.374657 -0.182494
C90   C     C_R   0.069324 0.584664 0.625347 -0.182389
C91   C     C_R   0.569089 0.915331 0.625347 -0.182511
C92   C     C_R   0.430966 0.084683 0.374648 -0.182410
C93   C     C_R   0.998080 0.571207 0.416310 -0.218955
C94   C     C_R   0.001930 0.428802 0.583693 -0.218986
C95   C     C_R   0.502042 0.071225 0.583688 -0.218947
C96   C     C_R   0.497936 0.928781 0.416309 -0.218975
C97   C     C_R   0.986917 0.499263 0.447571 0.080270
C98   C     C_R   0.013085 0.500747 0.552432 0.080288
C99   C     C_R   0.513086 0.999268 0.552428 0.080290
C100  C     C_R   0.486924 0.000742 0.447568 0.080308
C101  C     C_R   0.949591 0.383033 0.441022 0.128056
C102  C     C_R   0.050399 0.616979 0.558981 0.128059
C103  C     C_R   0.550185 0.883019 0.558981 0.128034
C104  C     C_R   0.449857 0.116995 0.441015 0.128036
C105  C     C_R   0.008155 0.538926 0.484928 0.051630
C106  C     C_R   0.991848 0.461085 0.515076 0.051637
C107  C     C_R   0.491930 0.038935 0.515071 0.051644
C108  C     C_R   0.508085 0.961077 0.484925 0.051651
C109  C     C_R   0.955775 0.346219 0.506856 -0.195347
C110  C     C_R   0.044222 0.653792 0.493148 -0.195354
C111  C     C_R   0.543953 0.846194 0.493148 -0.195379
C112  C     C_R   0.456084 0.153820 0.506848 -0.195382
C113  C     C_R   0.935581 0.308430 0.470629 -0.196351
C114  C     C_R   0.064410 0.691582 0.529375 -0.196351
C115  C     C_R   0.564077 0.808403 0.529376 -0.196391
C116  C     C_R   0.435977 0.191613 0.470619 -0.196388
H29   H     H_    0.907058 0.219621 0.465766 0.140126
H30   H     H_    0.092924 0.780391 0.534237 0.140124
H31   H     H_    0.592434 0.719581 0.534241 0.140115
H32   H     H_    0.407646 0.280439 0.465754 0.140111
H33   H     H_    0.976125 0.339492 0.581299 0.098063
H34   H     H_    0.023901 0.660515 0.418703 0.098078
H35   H     H_    0.523539 0.839454 0.418706 0.098039
H36   H     H_    0.476389 0.160547 0.581292 0.098059
H37   H     H_    0.094667 0.616921 0.653100 0.105254
H38   H     H_    0.905294 0.383091 0.346905 0.105267
H39   H     H_    0.405760 0.116953 0.346893 0.105240
H40   H     H_    0.594324 0.883064 0.653101 0.105255
H41   H     H_    0.893946 0.253559 0.399739 0.127303
H42   H     H_    0.106017 0.746455 0.600266 0.127277
H43   H     H_    0.605521 0.753519 0.600269 0.127297
H44   H     H_    0.394578 0.246501 0.399726 0.127270
H45   H     H_    0.941298 0.282340 0.527799 0.130112
H46   H     H_    0.058694 0.717672 0.472205 0.130114
H47   H     H_    0.558319 0.782304 0.472207 0.130121
H48   H     H_    0.441742 0.217714 0.527789 0.130123
O29   O     O_3   0.931093 0.933671 0.134918 -0.558890
C117  C     C_3   0.743121 0.901567 0.141534 0.131437
H49   H     H_    0.655792 0.883343 0.116105 0.137643
H50   H     H_    0.678160 0.969816 0.157056 0.200744
C118  C     C_3   0.742717 0.797008 0.165261 -0.761489
H51   H     H_    0.840737 0.806874 0.189495 0.232374
H52   H     H_    0.598182 0.780603 0.175438 0.202086
H53   H     H_    0.787708 0.725309 0.147760 0.226757
O30   O     O_3   0.028625 0.081815 0.861015 -0.570635
C119  C     C_3   0.210464 0.114512 0.849870 0.131779
H54   H     H_    0.203583 0.129242 0.819474 0.152072
H55   H     H_    0.316075 0.047289 0.854883 0.177351
C120  C     C_3   0.275267 0.223239 0.868625 -0.808181
H56   H     H_    0.329097 0.205757 0.897131 0.230512
H57   H     H_    0.391068 0.258990 0.852449 0.236527
H58   H     H_    0.158548 0.285650 0.869592 0.229808
O31   O     O_3   0.568916 0.433671 0.865083 -0.558898
C121  C     C_3   0.756884 0.401555 0.858470 0.131486
H59   H     H_    0.844190 0.383303 0.883902 0.137600
H60   H     H_    0.821877 0.469815 0.842956 0.200727
C122  C     C_3   0.757269 0.297009 0.834734 -0.761393
H61   H     H_    0.659254 0.306901 0.810498 0.232365
H62   H     H_    0.901806 0.280598 0.824558 0.202074
H63   H     H_    0.712249 0.225296 0.852229 0.226721
O32   O     O_3   0.471379 0.581814 0.138984 -0.570629
C123  C     C_3   0.289533 0.614503 0.150129 0.131787
H64   H     H_    0.296390 0.629213 0.180526 0.152080
H65   H     H_    0.183925 0.547285 0.145110 0.177345
C124  C     C_3   0.224749 0.723239 0.131378 -0.808198
H66   H     H_    0.170954 0.705779 0.102869 0.230509
H67   H     H_    0.108935 0.758977 0.147551 0.236530
H68   H     H_    0.341465 0.785648 0.130419 0.229812

loop_
_geom_bond_atom_site_label_1
_geom_bond_atom_site_label_2
_ccdc_geom_bond_type
C26   C30   A    
C103  C115  A    
C107  C108  A    
C94   H33   S    
O1    C5    A    
C50   C73   A    
C96   C100  A    
O13   V1    S    
C105  C106  A    
C69   C73   A    
O3    C7    A    
C10   N2    A    
C17   H18   S    
C83   C95   A    
C11   N3    A    
C16   O27   S    
C28   C56   A    
C122  H63   S    
C23   H16   S    
C120  H56   S    
C7    C81   S    
C62   C77   A    
C11   C43   A    
C18   C22   A    
C17   C33   A    
C61   C78   A    
C74   O30   S    
C25   H1    S    
C32   C36   A    
C47   H11   S    
O20   V1    S    
O9    C4    A    
C2    C55   S    
C124  H68   S    
O10   C3    A    
N2    C14   A    
O4    C8    A    
O11   C2    A    
C87   C103  A    
C24   C56   A    
C57   C65   A    
C113  H29   S    
C86   C102  A    
C31   H7    S    
C101  C113  A    
C58   C61   A    
C59   C67   A    
C84   C96   A    
C87   H43   S    
C5    C83   S    
C85   C89   A    
C86   H42   S    
C61   C65   A    
C12   C44   A    
C85   H41   S    
C14   C50   A    
C88   C92   A    
C77   H25   S    
C117  C118  S    
C98   C106  A    
C46   H10   S    
C105  C110  A    
C14   O25   S    
C45   H9    S    
C59   C64   A    
O14   V2    S    
C15   C51   A    
C83   C91   A    
C110  C114  A    
C115  H31   S    
O4    V1    S    
C20   C36   A    
C108  C111  A    
O9    V1    S    
C123  H65   S    
C97   C105  A    
O17   V4    S    
C118  H52   S    
C40   C67   A    
O15   V3    S    
O18   V3    S    
O8    C4    A    
C60   C72   A    
O12   V4    S    
O19   V2    S    
C21   C53   A    
C112  H48   S    
C73   O29   S    
C26   C54   A    
C12   N4    A    
C88   C104  A    
C95   H36   S    
O16   V4    S    
O32   C123  S    
C39   C51   A    
C89   H38   S    
C28   H4    S    
O17   V1    S    
C48   H12   S    
C31   C35   A    
C40   C52   A    
O7    V3    S    
C117  H49   S    
C30   C34   A    
C107  C112  A    
C109  H45   S    
O8    V4    S    
O16   C8    A    
C12   O24   S    
C88   H44   S    
C85   C101  A    
C93   H34   S    
C32   H8    S    
C27   C55   A    
C60   C68   A    
C98   C102  A    
O15   C7    A    
C19   C35   A    
C99   C107  A    
C48   C80   A    
C19   C23   A    
O31   C121  S    
C118  H51   S    
O19   V3    S    
C49   C74   A    
C78   H26   S    
O1    V4    S    
O13   C5    A    
C16   C52   A    
O2    V3    S    
C51   C76   A    
O3    V2    S    
C11   O23   S    
N3    C35   S    
C38   C42   A    
C59   C71   A    
C58   C70   A    
C38   C65   A    
C29   C33   A    
O6    C2    A    
C122  H61   S    
C18   C34   A    
C19   H20   S    
O10   V2    S    
C121  H60   S    
C15   O28   S    
C82   C90   A    
O20   V4    S    
C99   C103  A    
C75   O31   S    
C39   C68   A    
O30   C119  S    
C40   C44   A    
C123  H64   S    
C79   H27   S    
C37   C41   A    
C80   H28   S    
C111  H47   S    
C70   C74   A    
C117  H50   S    
C26   H2    S    
C3    C54   S    
C102  C114  A    
C100  C104  A    
C9    C41   A    
O6    V2    S    
C37   C66   A    
C10   C42   A    
O18   V2    S    
C110  H46   S    
C119  H55   S    
C30   H6    S    
C111  C115  A    
C4    C53   S    
C95   C99   A    
C27   H3    S    
N4    C36   S    
C123  C124  S    
O5    V1    S    
C93   C97   A    
C45   C77   A    
C121  C122  S    
C22   C54   A    
C62   C66   A    
C118  H53   S    
C64   C68   A    
C57   C62   A    
C100  C108  A    
C47   C79   A    
N1    C13   A    
C10   O22   S    
C63   C67   A    
C22   H13   S    
C13   C49   A    
C44   C48   A    
C6    C84   S    
N3    C15   A    
C18   H17   S    
C63   C80   A    
N1    C33   S    
C25   C29   A    
C120  H58   S    
C82   C94   A    
C13   O26   S    
C114  H30   S    
C119  C120  S    
C81   C93   A    
C42   C46   A    
C71   C75   A    
C87   C91   A    
C124  H66   S    
O29   C117  S    
C28   C32   A    
C9    N1    A    
O14   C6    A    
C120  H57   S    
C81   C89   A    
C124  H67   S    
N4    C16   A    
C104  C116  A    
O2    C6    A    
C58   C66   A    
C39   C43   A    
C121  H59   S    
C20   C24   A    
C52   C75   A    
C17   C21   A    
O5    C1    A    
C1    C56   S    
O7    C3    A    
C25   C53   A    
C27   C31   A    
C69   H21   S    
C70   H22   S    
C64   C79   A    
C23   C55   A    
C57   C69   A    
C38   C50   A    
C9    O21   S    
C24   H15   S    
C37   C49   A    
C91   H40   S    
C94   C98   A    
O11   V3    S    
C92   H39   S    
C72   C76   A    
C112  C116  A    
C90   H37   S    
O12   C1    A    
C122  H62   S    
C119  H54   S    
C86   C90   A    
N2    C34   S    
C20   H19   S    
C41   C45   A    
C8    C82   S    
C21   H14   S    
C84   C92   A    
C96   H35   S    
C109  C113  A    
C71   H23   S    
C29   H5    S    
C43   C47   A    
C76   O32   S    
C60   C63   A    
C97   C101  A    
C116  H32   S    
C72   H24   S    
C106  C109  A    
C46   C78   A    
