data_mof_unit_38921.cif
_audit_creation_date              2012-12-11T14:45:57-0500
_audit_creation_method            fapswitch 2.2
_symmetry_space_group_name_H-M    P1
_symmetry_Int_Tables_number       1
_space_group_crystal_system       triclinic
_cell_length_a                    10.975476
_cell_length_b                    10.982924
_cell_length_c                    18.791091
_cell_angle_alpha                 90.052759
_cell_angle_beta                  90.054152
_cell_angle_gamma                 120.147247
_cell_volume                      1958.74052425

loop_
_atom_site_label
_atom_site_type_symbol
_atom_type_description
_atom_site_fract_x
_atom_site_fract_y
_atom_site_fract_z
_atom_type_partial_charge
C1    C     C_R   0.871695 0.635585 0.606222 0.599459
C2    C     C_R   0.226033 0.592453 0.799247 -0.109475
C3    C     C_R   0.198899 0.574711 0.726873 0.364078
C4    C     C_R   0.306650 0.655152 0.677825 0.096688
C5    C     C_R   0.863962 0.187168 0.828879 -0.042228
C6    C     C_R   0.081135 0.175154 0.819998 -0.078168
C7    C     C_R   0.177929 0.159637 0.778940 -0.106962
C8    C     C_R   0.157905 0.139144 0.705797 -0.086474
C9    C     C_R   0.042153 0.134102 0.673419 -0.049278
C10   C     C_R   0.948919 0.160744 0.712699 0.056064
C11   C     C_R   0.963795 0.172821 0.787929 0.028756
C12   C     C_R   0.271017 0.631897 0.603432 0.649697
C13   C     C_R   0.741710 0.187618 0.721914 0.047897
C14   C     C_R   0.772623 0.222511 0.794101 0.040008
C15   C     C_R   0.612448 0.169268 0.695858 -0.045568
C16   C     C_R   0.533769 0.211584 0.735918 -0.109792
C17   C     C_R   0.578020 0.267553 0.803470 -0.112141
C18   C     C_R   0.698642 0.276095 0.832060 -0.057214
C19   C     C_R   0.841274 0.174624 0.678683 0.049284
C20   C     C_R   0.712696 0.578396 0.708834 -0.136078
C21   C     C_R   0.693427 0.584200 0.781497 -0.138751
C22   C     C_R   0.810898 0.649368 0.826880 -0.010627
C23   C     C_R   0.860743 0.226938 0.603881 0.602235
C24   C     C_R   0.946248 0.710664 0.799532 -0.087383
C25   C     C_R   0.966700 0.720465 0.727360 0.188123
C26   C     C_R   0.849094 0.649005 0.681009 0.074208
C27   C     C_R   0.243562 0.536647 0.275084 -0.129009
C28   C     C_R   0.260374 0.553039 0.202465 -0.137779
C29   C     C_R   0.333879 0.688199 0.173513 0.023632
C30   C     C_R   0.377899 0.806992 0.217383 -0.139858
C31   C     C_R   0.358317 0.790161 0.290610 -0.148350
C32   C     C_R   0.296598 0.654992 0.319697 0.032822
C33   C     C_R   0.787486 0.253649 0.274852 -0.129585
C34   C     C_R   0.870050 0.636382 0.395481 0.545404
C35   C     C_R   0.786972 0.237541 0.202144 -0.138638
C36   C     C_R   0.852088 0.168006 0.172587 0.023539
C37   C     C_R   0.929921 0.127182 0.215979 -0.139708
C38   C     C_R   0.932509 0.145822 0.289246 -0.149233
C39   C     C_R   0.856272 0.203846 0.318928 0.032307
C40   C     C_R   0.965403 0.713958 0.276544 -0.129149
C41   C     C_R   0.949774 0.715164 0.203926 -0.138664
C42   C     C_R   0.814780 0.650093 0.174369 0.023729
C43   C     C_R   0.695755 0.571606 0.217530 -0.139851
C44   C     C_R   0.711835 0.568352 0.290725 -0.148599
C45   C     C_R   0.265475 0.630645 0.394823 0.547288
C46   C     C_R   0.846460 0.644623 0.320474 0.033136
C47   C     C_R   0.812590 0.110681 0.897479 0.516172
C48   C     C_R   0.396788 0.701718 0.896420 0.538048
C49   C     C_R   0.796315 0.689957 0.897817 0.540238
C50   C     C_R   0.809180 0.107935 0.102008 0.541639
C51   C     C_R   0.394070 0.704457 0.103121 0.545496
C52   C     C_R   0.797699 0.692731 0.103925 0.545644
C53   C     C_R   0.864397 0.235388 0.394069 0.547976
C54   C     C_R   0.442606 0.751158 0.700956 0.076183
C55   C     C_R   0.468230 0.772181 0.773668 -0.096616
C56   C     C_R   0.359769 0.692897 0.822471 -0.037164
Cr1   Cr    Cr6+3 0.791660 0.390250 0.499930 1.038443
Cr2   Cr    Cr6+3 0.098520 0.708290 0.500540 1.073369
Cr3   Cr    Cr6+3 0.109770 0.401430 0.499480 1.042834
Cr4   Cr    Cr6+3 0.874790 0.925890 0.000070 1.011328
Cr5   Cr    Cr6+3 0.574120 0.948670 0.999300 1.019049
Cr6   Cr    Cr6+3 0.551420 0.625320 0.000920 1.004152
H1    H     H_    0.440347 0.203938 0.713653 0.112644
H2    H     H_    0.568753 0.119305 0.645289 0.178453
H3    H     H_    0.517616 0.301870 0.834354 0.101153
H4    H     H_    0.621767 0.524055 0.674254 0.138829
H5    H     H_    0.587397 0.542026 0.801745 0.141135
H6    H     H_    0.037150 0.764462 0.834299 0.155645
H7    H     H_    0.188538 0.430727 0.296322 0.142837
H8    H     H_    0.223876 0.460152 0.169414 0.130346
H9    H     H_    0.435442 0.912594 0.195868 0.140476
H10   H     H_    0.574132 0.844846 0.792240 0.159456
H11   H     H_    0.394447 0.881831 0.324475 0.126744
H12   H     H_    0.734250 0.305904 0.296536 0.142344
H13   H     H_    0.728115 0.271540 0.169505 0.130398
H14   H     H_    0.980829 0.072825 0.194048 0.140617
H15   H     H_    0.990663 0.112269 0.322672 0.125052
H16   H     H_    0.071218 0.767148 0.298262 0.142513
H17   H     H_    0.042858 0.774357 0.171392 0.131309
H18   H     H_    0.590236 0.520620 0.195502 0.140615
H19   H     H_    0.619925 0.509776 0.324046 0.125781
H20   H     H_    0.143608 0.528611 0.836880 0.123160
H21   H     H_    0.267273 0.161614 0.804258 0.119071
H22   H     H_    0.230110 0.124556 0.673080 0.144475
H23   H     H_    0.102353 0.195221 0.876309 0.124784
H24   H     H_    0.026089 0.107417 0.617500 0.138210
H25   H     H_    0.729969 0.317457 0.885497 0.119418
O1    O     O_R   0.766500 0.250040 0.579790 -0.518902
O2    O     O_R   0.218690 0.701900 0.425960 -0.512317
O3    O     O_R   0.249490 0.516440 0.419420 -0.526250
O4    O     O_R   0.982880 0.281910 0.424890 -0.515502
O5    O     O_3   0.999980 0.499990 0.499980 -0.260462
O6    O     O_R   0.895110 0.806860 0.920430 -0.516121
O7    O     O_R   0.872260 0.046970 0.925000 -0.502963
O8    O     O_R   0.691430 0.085060 0.918550 -0.516258
O9    O     O_R   0.451490 0.822460 0.925250 -0.488663
O10   O     O_R   0.413330 0.603360 0.920440 -0.525791
O11   O     O_R   0.676110 0.626250 0.926750 -0.511393
O12   O     O_R   0.798570 0.516780 0.574780 -0.502026
O13   O     O_R   0.895350 0.809870 0.080950 -0.524412
O14   O     O_R   0.872490 0.049760 0.073800 -0.508882
O15   O     O_R   0.691680 0.088070 0.079070 -0.526377
O16   O     O_R   0.451720 0.825250 0.074050 -0.505781
O17   O     O_R   0.413580 0.606370 0.080960 -0.524505
O18   O     O_R   0.676340 0.629040 0.075550 -0.507027
O19   O     O_3   0.666780 0.833290 0.000090 -0.242620
O20   O     O_R   0.984000 0.732950 0.581090 -0.468212
O21   O     O_R   0.218600 0.700890 0.574760 -0.445481
O22   O     O_R   0.249390 0.515350 0.579940 -0.501453
O23   O     O_R   0.982790 0.280900 0.573700 -0.484662
O24   O     O_R   0.766600 0.251130 0.419260 -0.521923
O25   O     O_R   0.798660 0.517790 0.425980 -0.512111
O26   O     O_R   0.984100 0.734040 0.420570 -0.526626
Br1   Br    Br    0.595281 0.843231 0.635081 -0.601162
Br2   Br    Br    0.159182 0.844524 0.700182 -0.553469
F1    F     F_    0.066501 0.482258 0.704284 -0.650703

loop_
_geom_bond_atom_site_label_1
_geom_bond_atom_site_label_2
_ccdc_geom_bond_type
C7    H21   S    
C55   C56   A    
Cr1   O5    S    
C34   O25   A    
C41   C42   A    
C14   C18   A    
C35   C36   A    
C1    O12   A    
C30   H9    S    
Cr5   O9    S    
C36   C50   S    
C7    C8    A    
Cr6   O18   S    
C39   C53   S    
C34   O26   A    
C40   C46   A    
C48   O10   A    
C5    C47   S    
C35   H13   S    
C29   C30   A    
C6    H23   S    
C20   H4    S    
C36   C37   A    
Cr5   O16   S    
C5    C11   A    
C3    F1    S    
C25   Br2   S    
C30   C31   A    
C31   H11   S    
Cr1   O25   S    
C51   O16   A    
C15   C16   A    
Cr1   O12   S    
Cr3   O23   S    
Cr2   O20   S    
C32   C45   S    
C33   C35   A    
C49   O11   A    
Cr6   O11   S    
C8    C9    A    
C53   O4    A    
Cr2   O26   S    
C15   H2    S    
C34   C46   S    
C16   H1    S    
C4    C12   S    
C45   O2    A    
C9    C10   A    
Cr2   O21   S    
C55   H10   S    
C27   H7    S    
Cr4   O6    S    
C53   O24   A    
C21   C22   A    
C21   H5    S    
C12   O22   A    
C44   C46   A    
Cr6   O17   S    
C38   C39   A    
C13   C19   A    
C24   C25   A    
C44   H19   S    
C6    C11   A    
C12   O21   A    
C16   C17   A    
Cr3   O4    S    
C25   C26   A    
C52   O13   A    
Cr3   O3    S    
C19   C23   S    
C43   C44   A    
C37   C38   A    
C45   O3    A    
C9    H24   S    
Cr6   O10   S    
C31   C32   A    
C10   C19   A    
C17   C18   A    
C33   C39   A    
Cr5   O19   S    
C5    C14   A    
C1    O20   A    
C22   C49   S    
C40   C41   A    
C37   H14   S    
C52   O18   A    
C50   O15   A    
C23   O1    A    
C13   C15   A    
C1    C26   S    
C40   H16   S    
C2    H20   S    
C42   C43   A    
Cr4   O14   S    
Cr4   O19   S    
C43   H18   S    
C29   C51   S    
C48   C56   S    
C23   O23   A    
C54   C55   A    
C28   C29   A    
C48   O9    A    
C4    C54   A    
C27   C32   A    
C8    H22   S    
C28   H8    S    
Cr4   O13   S    
C41   H17   S    
Cr5   O8    S    
C6    C7    A    
Cr6   O19   S    
C38   H15   S    
C17   H3    S    
C18   H25   S    
Cr1   O1    S    
Cr5   O15   S    
C51   O17   A    
C2    C56   A    
Cr1   O24   S    
C20   C26   A    
C54   Br1   S    
Cr3   O22   S    
C47   O7    A    
C2    C3    A    
C22   C24   A    
Cr3   O5    S    
Cr2   O2    S    
C10   C11   A    
C24   H6    S    
C33   H12   S    
C20   C21   A    
C50   O14   A    
C27   C28   A    
C47   O8    A    
C49   O6    A    
C13   C14   A    
Cr2   O5    S    
C3    C4    A    
C42   C52   S    
Cr4   O7    S    
