data_mof_unit_29056.cif
_audit_creation_date              2012-10-26T19:02:35-0400
_audit_creation_method            fapswitch 2.2
_symmetry_space_group_name_H-M    P1
_symmetry_Int_Tables_number       1
_space_group_crystal_system       triclinic
_cell_length_a                    17.161914
_cell_length_b                    8.735639
_cell_length_c                    7.468319
_cell_angle_alpha                 103.093552
_cell_angle_beta                  90.022998
_cell_angle_gamma                 93.560003
_cell_volume                      1088.31823622

loop_
_atom_site_label
_atom_site_type_symbol
_atom_type_description
_atom_site_fract_x
_atom_site_fract_y
_atom_site_fract_z
_atom_type_partial_charge
C1    C     C_R   0.495293 0.200155 0.454760 0.550558
C2    C     C_R   0.779644 0.621072 0.565114 0.201489
C3    C     C_R   0.138734 0.371678 0.456627 0.210667
C4    C     C_R   0.861320 0.627791 0.543358 0.210763
C5    C     C_R   0.104290 0.495094 0.578805 -0.028104
C6    C     C_R   0.895700 0.504230 0.421267 -0.028177
C7    C     C_R   0.151011 0.617408 0.694371 0.272353
C8    C     C_R   0.848925 0.381948 0.305803 0.272334
C9    C     C_R   0.232059 0.621183 0.677574 0.251669
C10   C     C_R   0.767879 0.378374 0.322572 0.251695
C11   C     C_2   0.019045 0.497713 0.577552 -0.030322
C12   C     C_R   0.504707 0.799845 0.545240 0.550623
C13   C     C_2   0.980935 0.501455 0.422482 -0.030371
C14   C     C_2   0.484519 0.032372 0.435301 0.252633
C15   C     C_2   0.515481 0.967628 0.564698 0.252639
C16   C     C_R   0.351223 0.502652 0.526702 0.562652
C17   C     C_R   0.648773 0.497299 0.473293 0.562702
C18   C     C_R   0.266669 0.501784 0.547055 -0.016809
C19   C     C_R   0.733324 0.497976 0.452929 -0.016793
C20   C     C_R   0.220407 0.378637 0.434798 0.201493
Cu1   Cu    Cu3+1 0.508700 0.517250 0.683000 1.160307
Cu2   Cu    Cu3+1 0.491300 0.482750 0.317000 1.160355
H1    H     H_    0.012363 0.497391 0.295265 0.148223
H2    H     H_    0.121022 0.149808 0.337723 0.363348
H3    H     H_    0.415818 0.010846 0.220160 0.355689
H4    H     H_    0.584181 0.989154 0.779841 0.355694
H5    H     H_    0.397550 0.301775 0.022750 0.347029
H6    H     H_    0.602452 0.698220 0.977248 0.347007
H7    H     H_    0.987611 0.501775 0.704757 0.148147
H8    H     H_    0.220458 0.226742 0.200188 0.353442
H9    H     H_    0.779601 0.773030 0.799677 0.353392
H10   H     H_    0.673738 0.236958 0.269321 0.327143
H11   H     H_    0.326100 0.762850 0.730863 0.327133
H12   H     H_    0.062925 0.727404 0.820247 0.345044
H13   H     H_    0.936955 0.271750 0.179929 0.345011
H14   H     H_    0.879156 0.849638 0.662391 0.363357
N1    N     N_2   0.478180 0.456750 0.041980 0.103865
N2    N     N_2   0.521820 0.543250 0.958020 0.103850
O1    O     O_R   0.505650 0.286040 0.618880 -0.424970
O2    O     O_3   0.743433 0.732739 0.693786 -0.680589
O3    O     O_3   0.725089 0.251864 0.213557 -0.599968
O4    O     O_3   0.274794 0.747703 0.786721 -0.599930
O5    O     O_3   0.120481 0.740213 0.819821 -0.605331
O6    O     O_3   0.879400 0.258978 0.180502 -0.605328
O7    O     O_3   0.909150 0.754008 0.636456 -0.688558
O8    O     O_3   0.090974 0.245361 0.363500 -0.688529
O9    O     O_3   0.439009 0.941685 0.291415 -0.676621
O10   O     O_3   0.560992 0.058315 0.708584 -0.676619
O11   O     O_3   0.425243 0.356978 0.937038 -0.552222
O12   O     O_R   0.494350 0.713960 0.381120 -0.424940
O13   O     O_3   0.574757 0.643020 0.062961 -0.552210
O14   O     O_R   0.490960 0.256910 0.309800 -0.547325
O15   O     O_R   0.509040 0.743090 0.690200 -0.547304
O16   O     O_R   0.394600 0.516230 0.672450 -0.476905
O17   O     O_R   0.605400 0.483770 0.327550 -0.476923
O18   O     O_R   0.379910 0.487100 0.363380 -0.478343
O19   O     O_R   0.620090 0.512900 0.636620 -0.478450
O20   O     O_3   0.256661 0.267162 0.305984 -0.680664

loop_
_geom_bond_atom_site_label_1
_geom_bond_atom_site_label_2
_ccdc_geom_bond_type
C2    C4    A    
H10   O3    S    
C16   O18   A    
Cu1   O19   S    
Cu2   O17   S    
C1    C14   S    
C7    O5    S    
N1    O11   S    
H3    O9    S    
C3    O8    S    
C12   O12   A    
C12   O15   A    
Cu1   O1    S    
C12   C15   S    
H4    O10   S    
C10   C19   A    
Cu2   O12   S    
H2    O8    S    
C7    C9    A    
C3    C5    A    
H14   O7    S    
Cu1   Cu2   S    
C10   O3    S    
Cu1   O15   S    
H13   O6    S    
C11   C13   D    
C11   H7    S    
C9    O4    S    
C14   O9    S    
C15   O10   S    
H5    O11   S    
H11   O4    S    
H8    O20   S    
C4    C6    A    
C1    O14   A    
N1    N2    D    
C5    C11   S    
Cu2   O14   S    
C18   C20   A    
C4    O7    S    
Cu1   O16   S    
H6    O13   S    
C16   O16   A    
C1    O1    A    
Cu2   O18   S    
C20   O20   S    
C2    O2    S    
C9    C18   A    
C3    C20   A    
H9    O2    S    
C13   H1    S    
C16   C18   S    
C5    C7    A    
C17   O17   A    
C14   C15   D    
C6    C8    A    
N2    O13   S    
C17   C19   S    
C2    C19   A    
H12   O5    S    
Cu2   N1    S    
C8    C10   A    
Cu1   N2    S    
C8    O6    S    
C17   O19   A    
C6    C13   S    
