data_mof_unit_41833.cif
_audit_creation_date              2012-10-26T21:08:06-0400
_audit_creation_method            fapswitch 2.2
_symmetry_space_group_name_H-M    P1
_symmetry_Int_Tables_number       1
_space_group_crystal_system       triclinic
_cell_length_a                    15.86
_cell_length_b                    10.875258
_cell_length_c                    9.597237
_cell_angle_alpha                 92.110589
_cell_angle_beta                  90.081444
_cell_angle_gamma                 93.105451
_cell_volume                      1651.78486021

loop_
_atom_site_label
_atom_site_type_symbol
_atom_type_description
_atom_site_fract_x
_atom_site_fract_y
_atom_site_fract_z
_atom_type_partial_charge
C1    C     C_R   0.505774 0.263333 0.497886 0.544178
C2    C     C_R   0.596821 0.097443 0.851967 -0.104369
C3    C     C_R   0.559890 0.981780 0.881035 0.021196
C4    C     C_R   0.339923 0.499692 0.499861 0.556434
C5    C     C_R   0.526783 0.905249 0.770100 -0.112484
C6    C     C_R   0.524211 0.947583 0.631837 0.007539
C7    C     C_R   0.545376 0.073526 0.613874 0.019742
C8    C     C_R   0.514989 0.130409 0.495298 -0.003819
C9    C     C_R   0.480861 0.058702 0.383502 -0.167109
C10   C     C_R   0.475498 0.931606 0.389484 -0.166301
C11   C     C_R   0.497340 0.873691 0.511667 -0.009053
C12   C     C_3   0.082802 0.501218 0.499737 0.045240
C13   C     C_R   0.622671 0.648857 0.149297 -0.088983
C14   C     C_R   0.687918 0.710211 0.079241 -0.176663
C15   C     C_R   0.686137 0.713054 0.935676 -0.164683
C16   C     C_R   0.498315 0.738263 0.503556 0.531796
C17   C     C_R   0.620568 0.651022 0.861843 -0.094971
C18   C     C_R   0.559608 0.573802 0.928139 0.138779
C19   C     C_R   0.560028 0.573304 0.077597 0.150993
C20   C     C_R   0.443473 0.428989 0.070809 -0.009967
C21   C     C_R   0.443573 0.428892 0.922890 -0.003417
C22   C     C_R   0.660044 0.500400 0.500153 0.531257
C23   C     C_3   0.975556 0.612705 0.547670 -0.073146
C24   C     C_3   0.968504 0.412997 0.584259 -0.093729
C25   C     C_3   0.023631 0.390312 0.453215 -0.128377
C26   C     C_1   0.250173 0.500209 0.499593 -0.041719
C27   C     C_1   0.749735 0.500702 0.500490 -0.039942
C28   C     C_3   0.028483 0.524029 0.629233 0.041065
C29   C     C_3   0.548000 0.944700 0.030287 -0.268264
C30   C     C_3   0.623807 0.982901 0.124453 -0.433273
C31   C     C_3   0.066878 0.686427 0.321853 -0.278231
C32   C     C_3   0.997454 0.758145 0.257594 -0.451606
C33   C     C_3   0.063933 0.549522 0.776181 -0.277745
C34   C     C_3   0.916918 0.501177 0.500809 0.033211
C35   C     C_3   0.993713 0.567083 0.882331 -0.448499
C36   C     C_3   0.030170 0.588005 0.417401 0.040795
C37   C     C_3   0.970233 0.477856 0.369537 -0.094656
C38   C     C_1   0.174604 0.500691 0.499453 -0.076751
C39   C     C_1   0.825291 0.500919 0.500763 -0.068591
C40   C     C_R   0.592028 0.141204 0.718852 -0.113967
Cu1   Cu    Cu3+1 0.499990 0.499990 0.640660 0.909278
Cu2   Cu    Cu3+1 0.500010 0.500010 0.359340 0.916746
H1    H     H_    0.044425 0.299423 0.414547 0.102937
H2    H     H_    0.941800 0.341189 0.653379 0.101620
H3    H     H_    0.945033 0.459336 0.262378 0.103175
H4    H     H_    0.954879 0.703639 0.586467 0.093472
H5    H     H_    0.457309 0.101056 0.291840 0.128461
H6    H     H_    0.621493 0.231296 0.700874 0.143786
H7    H     H_    0.625688 0.157364 0.933099 0.118799
H8    H     H_    0.684148 0.967262 0.069823 0.152370
H9    H     H_    0.622483 0.081831 0.156957 0.147853
H10   H     H_    0.621286 0.928585 0.220116 0.149283
H11   H     H_    0.491374 0.988640 0.072375 0.133281
H12   H     H_    0.495968 0.819023 0.797438 0.144764
H13   H     H_    0.535016 0.843659 0.034273 0.150288
H14   H     H_    0.952734 0.694934 0.196713 0.148409
H15   H     H_    0.962222 0.807410 0.340414 0.146534
H16   H     H_    0.026060 0.826968 0.186557 0.135284
H17   H     H_    0.110462 0.751119 0.383075 0.144071
H18   H     H_    0.103360 0.641359 0.237457 0.143120
H19   H     H_    0.956957 0.647315 0.856435 0.148212
H20   H     H_    0.950621 0.483194 0.884129 0.150639
H21   H     H_    0.021831 0.584073 0.987718 0.136412
H22   H     H_    0.101194 0.470881 0.805832 0.144507
H23   H     H_    0.451834 0.878350 0.298717 0.137027
H24   H     H_    0.106623 0.633951 0.776680 0.143818
H25   H     H_    0.397229 0.370657 0.123473 0.111664
H26   H     H_    0.623055 0.667282 0.258796 0.181107
H27   H     H_    0.736950 0.763108 0.137302 0.111072
H28   H     H_    0.733486 0.768556 0.881608 0.117159
H29   H     H_    0.618932 0.669505 0.753875 0.182822
H30   H     H_    0.397388 0.370447 0.865161 0.120504
N1    N     N_R   0.500800 0.501210 0.147910 -0.242329
N2    N     N_R   0.500830 0.501290 0.852040 -0.247173
O1    O     O_R   0.499990 0.319640 0.618810 -0.502428
O2    O     O_R   0.500000 0.319660 0.381240 -0.502412
O3    O     O_R   0.379070 0.499980 0.618770 -0.494523
O4    O     O_R   0.379080 0.500000 0.381190 -0.494386
O5    O     O_R   0.500000 0.680340 0.618760 -0.532823
O6    O     O_R   0.500010 0.680360 0.381190 -0.522033
O7    O     O_R   0.620920 0.500000 0.618810 -0.520159
O8    O     O_R   0.620930 0.500020 0.381230 -0.512123

loop_
_geom_bond_atom_site_label_1
_geom_bond_atom_site_label_2
_ccdc_geom_bond_type
C30   H9    S    
Cu2   O6    S    
C34   C37   S    
Cu1   Cu2   S    
C20   H25   S    
Cu2   O8    S    
C32   H16   S    
C25   H1    S    
C7    C8    A    
C12   C28   S    
C22   O8    A    
C36   C37   S    
Cu1   O3    S    
C5    C6    A    
C1    C8    S    
C40   H6    S    
C18   C19   A    
C31   H17   S    
C3    C29   S    
C25   C37   S    
Cu1   N2    S    
C27   C39   T    
C8    C9    A    
C7    C40   A    
C12   C36   S    
C9    C10   A    
C30   H8    S    
C18   N2    A    
C23   H4    S    
C13   C14   A    
C32   H15   S    
C33   H24   S    
C13   C19   A    
C21   H30   S    
C34   C39   S    
C1    O1    A    
C22   O7    A    
C5    H12   S    
C19   N1    A    
C24   C25   S    
C6    C11   A    
C26   C38   T    
C29   H13   S    
C21   N2    A    
C24   C34   S    
C16   O6    A    
C31   H18   S    
C4    O4    A    
C29   C30   S    
C2    H7    S    
Cu1   O1    S    
C11   C16   S    
C31   C32   S    
C23   C34   S    
Cu1   O7    S    
C17   C18   A    
C35   H19   S    
C23   C28   S    
C28   C33   S    
C9    H5    S    
C22   C27   S    
C24   H2    S    
C14   H27   S    
C37   H3    S    
Cu2   O4    S    
C10   H23   S    
C15   C17   A    
C15   H28   S    
C30   H10   S    
Cu2   N1    S    
C31   C36   S    
C1    O2    A    
C24   C28   S    
C3    C5    A    
Cu1   O5    S    
C4    C26   S    
C17   H29   S    
C6    C7    A    
Cu2   O2    S    
C12   C25   S    
C16   O5    A    
C2    C3    A    
C4    O3    A    
C29   H11   S    
C33   H22   S    
C33   C35   S    
C20   N1    A    
C35   H20   S    
C12   C38   S    
C10   C11   A    
C2    C40   A    
C20   C21   A    
C23   C36   S    
C14   C15   A    
C35   H21   S    
C32   H14   S    
C13   H26   S    
