data_mof_unit_37674.cif
_audit_creation_date              2013-03-05T15:46:22-0500
_audit_creation_method            fapswitch 2.2
_symmetry_space_group_name_H-M    P1
_symmetry_Int_Tables_number       1
_space_group_crystal_system       triclinic
_cell_length_a                    12.006214
_cell_length_b                    11.765389
_cell_length_c                    19.805622
_cell_angle_alpha                 92.04123
_cell_angle_beta                  89.85164
_cell_angle_gamma                 57.542676
_cell_volume                      2358.39410149

loop_
_atom_site_label
_atom_site_type_symbol
_atom_site_description
_atom_site_fract_x
_atom_site_fract_y
_atom_site_fract_z
_atom_type_partial_charge
O1    O     O_R   0.748800 0.497470 0.428000 -0.497262
O2    O     O_R   0.476420 0.724060 0.429470 -0.491532
C1    C     C_R   0.355371 0.774830 0.400569 0.587977
O3    O     O_R   0.264580 0.744340 0.416750 -0.539712
O4    O     O_R   0.309380 0.472470 0.418200 -0.479563
C2    C     C_R   0.388410 0.353875 0.386040 0.593635
O5    O     O_R   0.501710 0.260430 0.414300 -0.435439
O6    O     O_R   0.728090 0.305600 0.428960 -0.430019
C3    C     C_R   0.763558 0.384938 0.400936 0.566116
O7    O     O_R   0.738760 0.495930 0.588610 -0.445083
O8    O     O_R   0.467110 0.722640 0.578360 -0.498571
C4    C     C_R   0.351792 0.749947 0.606696 0.530540
O9    O     O_R   0.254530 0.742800 0.577360 -0.534861
O10   O     O_R   0.300070 0.471040 0.567100 -0.563400
C5    C     C_R   0.374531 0.358988 0.597669 0.532102
O11   O     O_R   0.491670 0.258900 0.574910 -0.469277
O12   O     O_R   0.718780 0.304180 0.577850 -0.455811
C6    C     C_R   0.747052 0.386953 0.612014 0.538672
Cr1   Cr    Cr6+3 0.601770 0.606860 0.505860 1.142200
Cr2   Cr    Cr6+3 0.291380 0.601660 0.495070 1.036329
Cr3   Cr    Cr6+3 0.606880 0.291510 0.499120 1.190882
O13   O     O_3   0.500010 0.500010 0.500020 -0.321213
C7    C     C_R   0.791359 0.853843 0.078688 0.032007
C8    C     C_R   0.816280 0.919752 0.130637 -0.100189
C9    C     C_R   0.720761 0.040297 0.160804 -0.090503
C10   C     C_R   0.587384 0.083970 0.154995 0.050796
H1    H     H_    0.557281 0.153083 0.294648 0.218532
C11   C     C_R   0.360134 0.315583 0.160537 0.006446
C12   C     C_R   0.473225 0.228361 0.267372 -0.089584
C13   C     C_R   0.472176 0.212017 0.194706 -0.002188
C14   C     C_R   0.190677 0.644273 0.336927 0.051156
C15   C     C_R   0.081721 0.746401 0.389330 -0.098669
C16   C     C_R   0.571011 0.988242 0.116168 0.092047
C17   C     C_R   0.660025 0.894133 0.064926 0.261090
C18   C     C_R   0.268488 0.431131 0.196679 -0.081732
C19   C     C_R   0.263291 0.441326 0.267383 0.027198
C20   C     C_R   0.950255 0.824583 0.380929 -0.185959
C21   C     C_R   0.908907 0.782549 0.331181 0.258664
C22   C     C_R   0.012759 0.640634 0.291879 0.397323
C23   C     C_R   0.152626 0.585011 0.294847 -0.022363
C24   C     C_R   0.369207 0.338209 0.307176 0.008670
H2    H     H_    0.073549 0.798151 0.438917 0.177124
H3    H     H_    0.904484 0.863872 0.155817 0.222481
H4    H     H_    0.750354 0.084859 0.196902 0.104333
H5    H     H_    0.474218 0.013757 0.128146 0.209973
H6    H     H_    0.183523 0.511203 0.170805 0.198645
H7    H     H_    0.875293 0.901138 0.418046 0.208043
C25   C     C_R   0.831804 0.247006 0.289622 -0.025231
C26   C     C_R   0.873001 0.237355 0.223658 -0.158212
H8    H     H_    0.883674 0.161217 0.195376 0.195818
C27   C     C_R   0.873982 0.334906 0.188619 -0.027146
C28   C     C_R   0.828646 0.453013 0.223622 -0.005938
C29   C     C_R   0.806635 0.465414 0.294438 0.001628
C30   C     C_R   0.808902 0.359721 0.329084 0.025430
C31   C     C_R   0.430567 0.828251 0.294897 -0.090036
H9    H     H_    0.517343 0.808840 0.319634 0.190008
C32   C     C_R   0.417097 0.854824 0.226447 0.182850
C33   C     C_R   0.315867 0.876211 0.183693 0.015009
C34   C     C_R   0.222095 0.864588 0.219793 0.178633
C35   C     C_R   0.230039 0.852487 0.289777 -0.168528
H10   H     H_    0.163438 0.837054 0.309835 0.154142
C36   C     C_R   0.335684 0.829122 0.329999 -0.055450
C37   C     C_R   0.431453 0.236868 0.701066 -0.116338
H11   H     H_    0.520845 0.167715 0.674155 0.248867
C38   C     C_R   0.425928 0.216352 0.768510 0.129823
C39   C     C_R   0.309609 0.309152 0.809241 -0.040554
C40   C     C_R   0.206883 0.428601 0.776024 0.146612
C41   C     C_R   0.217083 0.447403 0.703288 -0.018903
C42   C     C_R   0.333735 0.347193 0.667278 -0.088504
C43   C     C_R   0.802148 0.464861 0.722276 0.093061
C44   C     C_R   0.828143 0.441212 0.793428 -0.072729
C45   C     C_R   0.847697 0.320296 0.827433 -0.063408
C46   C     C_R   0.830655 0.219412 0.789113 0.126652
C47   C     C_R   0.801346 0.238047 0.716818 0.118675
C48   C     C_R   0.788922 0.359043 0.684032 -0.064767
C49   C     C_R   0.216518 0.815532 0.712300 -0.165901
H12   H     H_    0.147487 0.801524 0.682912 0.168955
C50   C     C_R   0.196420 0.844019 0.782372 -0.061054
C51   C     C_R   0.289624 0.862315 0.822808 -0.008993
C52   C     C_R   0.403251 0.845716 0.787546 0.150385
C53   C     C_R   0.416560 0.808682 0.716972 -0.106731
H13   H     H_    0.501727 0.786937 0.688008 0.221713
C54   C     C_R   0.325872 0.797101 0.679321 -0.032951
O14   O     O_R   0.186690 0.923650 0.086970 -0.421787
O15   O     O_R   0.957250 0.194250 0.084630 -0.477465
C55   C     C_R   0.929082 0.309501 0.115674 0.527910
O16   O     O_R   0.934970 0.407490 0.085330 -0.487897
O17   O     O_R   0.203780 0.365190 0.067090 -0.489820
C56   C     C_R   0.325747 0.290346 0.092171 0.540238
O18   O     O_R   0.417600 0.174890 0.067840 -0.585611
O19   O     O_R   0.375320 0.946260 0.070860 -0.490430
C57   C     C_R   0.295453 0.916811 0.108453 0.564549
O20   O     O_R   0.160600 0.919630 0.926660 -0.439986
O21   O     O_R   0.933060 0.190520 0.936020 -0.440721
C58   C     C_R   0.899497 0.301862 0.900835 0.549494
O22   O     O_R   0.908880 0.403460 0.925020 -0.413728
O23   O     O_R   0.179600 0.361450 0.918490 -0.437131
C59   C     C_R   0.291986 0.279564 0.882494 0.548978
O24   O     O_R   0.391510 0.170860 0.907530 -0.437541
O25   O     O_R   0.351130 0.942530 0.922260 -0.420055
C60   C     C_R   0.266054 0.909308 0.895937 0.536512
Cr4   Cr    Cr6+3 0.062440 0.063090 0.008210 1.159925
Cr5   Cr    Cr6+3 0.062880 0.375170 0.998920 1.196104
Cr6   Cr    Cr6+3 0.374700 0.061720 0.992470 1.148441
O26   O     O_3   0.166667 0.166667 0.999870 -0.387353
N1    N     N_R   0.769292 0.844488 0.332525 0.094130
O27   O     O_R   0.685182 0.933229 0.378039 -0.319872
O28   O     O_R   0.724262 0.802564 0.287220 -0.264990
N2    N     N_R   0.001270 0.521116 0.279846 0.073471
O29   O     O_R   0.070818 0.404455 0.247037 -0.392521
O30   O     O_R   0.935745 0.629770 0.247600 -0.423364
C61   C     C_2   0.817756 0.133939 0.309067 0.206911
H14   H     H_    0.852717 0.051074 0.276704 0.127635
O31   O     O_2   0.767958 0.126489 0.360092 -0.462290
C62   C     C_2   0.794849 0.556453 0.176256 0.366924
H15   H     H_    0.890123 0.551171 0.160004 0.380820
O32   O     O_2   0.832327 0.628019 0.156086 -0.573896
C63   C     C_2   0.786027 0.581491 0.334340 0.411292
H16   H     H_    0.685978 0.650729 0.344101 0.128889
O33   O     O_2   0.869367 0.573145 0.374958 -0.446315
N3    N     N_R   0.523379 0.844592 0.202602 0.036937
O34   O     O_R   0.542427 0.934978 0.228360 -0.355277
O35   O     O_R   0.579210 0.768667 0.149105 -0.334835
N4    N     N_R   0.115309 0.863807 0.189152 0.058330
O36   O     O_R   0.021575 0.970053 0.162936 -0.398698
O37   O     O_R   0.127363 0.750215 0.173700 -0.436275
N5    N     N_R   0.630835 0.812402 0.017944 0.125643
O38   O     O_R   0.712846 0.690942 0.000269 -0.189071
O39   O     O_R   0.523953 0.844504 0.990558 -0.216356
N6    N     N_R   0.544963 0.092891 0.789655 0.138545
O40   O     O_R   0.620918 0.004738 0.741353 -0.185212
O41   O     O_R   0.602159 0.085839 0.846021 -0.175367
N7    N     N_R   0.096651 0.539291 0.816588 0.088983
O42   O     O_R   0.106920 0.572553 0.877781 -0.230150
O43   O     O_R   0.004243 0.636340 0.787241 -0.248814
C64   C     C_2   0.117391 0.568677 0.661977 0.270921
H17   H     H_    0.117075 0.598240 0.612261 0.193844
O44   O     O_2   0.008282 0.661093 0.677637 -0.384037
N8    N     N_R   0.783652 0.597614 0.694740 0.095157
O45   O     O_R   0.812740 0.674137 0.726369 -0.195798
O46   O     O_R   0.768296 0.641832 0.634770 -0.213920
C65   C     C_2   0.827052 0.559497 0.828856 0.357232
H18   H     H_    0.816211 0.655131 0.828255 0.332668
O47   O     O_2   0.852869 0.595257 0.881554 -0.406436
N9    N     N_R   0.836971 0.105284 0.825409 0.094036
O48   O     O_R   0.834589 0.098406 0.888632 -0.230640
O49   O     O_R   0.799113 0.029700 0.800638 -0.157409
N10   N     N_R   0.786906 0.133154 0.678207 0.094138
O50   O     O_R   0.734059 0.132645 0.622654 -0.259759
O51   O     O_R   0.842808 0.012279 0.693612 -0.243381
C66   C     C_2   0.076861 0.843951 0.803457 0.354731
H19   H     H_    0.015064 0.840711 0.765048 0.222323
O52   O     O_2   0.040953 0.846530 0.860978 -0.338132
N11   N     N_R   0.512312 0.857385 0.813568 0.083238
O53   O     O_R   0.604267 0.822257 0.771155 -0.270171
O54   O     O_R   0.538662 0.886944 0.872874 -0.186863
C67   C     C_2   0.917280 0.726631 0.053015 0.344191
H20   H     H_    0.013221 0.699448 0.071470 0.138076
O55   O     O_2   0.920299 0.640305 0.016849 -0.352965
C68   C     C_2   0.345250 0.586229 0.314992 0.235385
H21   H     H_    0.370941 0.583729 0.260958 0.111284
O56   O     O_2   0.442551 0.532674 0.350928 -0.502488

loop_
_geom_bond_atom_site_label_1
_geom_bond_atom_site_label_2
_geom_bond_distance
_ccdc_geom_bond_type
O6    C3    1.350200 A    
C31   H9    1.064355 S    
C37   C38   1.373565 A    
C6    C48   1.501656 S    
H1    C12   1.082711 S    
O14   Cr4   2.217568 S    
C46   C47   1.471153 A    
C58   O22   1.332279 A    
O19   Cr6   2.096495 S    
C61   O31   1.202454 D    
C38   N6    1.464938 S    
O4    Cr2   2.038569 S    
O15   C55   1.333567 A    
C25   C30   1.406675 A    
O8    Cr1   2.004016 S    
C67   H20   1.085283 S    
C47   N10   1.516898 S    
C40   N7    1.470716 S    
C20   C21   1.301208 A    
C49   C50   1.405309 A    
O2    C1    1.376054 A    
N2    O30   1.281511 A    
C21   C22   1.617489 A    
C52   C53   1.431714 A    
C28   C62   1.441897 S    
N1    O27   1.311111 A    
C5    O11   1.322537 A    
C59   O24   1.310460 A    
C31   C36   1.328176 A    
O23   C59   1.344588 A    
O25   Cr6   2.066222 S    
C16   H5    1.056398 S    
C14   C23   1.300733 A    
C49   C54   1.370153 A    
Cr4   O26   2.174465 S    
C35   C36   1.402001 A    
C63   H16   1.039793 S    
C61   H14   1.025844 S    
C53   C54   1.384330 A    
C45   C58   1.558733 S    
C27   C55   1.538271 S    
C37   C42   1.393013 A    
C11   C18   1.375600 A    
C17   N5    1.487610 S    
C62   O32   1.225033 D    
C2    C24   1.598072 S    
C7    C8    1.394001 A    
C43   C44   1.448340 A    
C20   H7    1.114000 S    
N11   O54   1.300611 A    
C14   C68   1.647299 S    
O17   C56   1.348106 A    
C66   O52   1.210630 D    
C39   C40   1.462408 A    
C43   N8    1.573294 S    
C67   O55   1.206009 D    
Cr3   O13   2.069457 S    
C19   C24   1.458584 A    
C9    H4    1.042505 S    
Cr6   O26   2.111766 S    
N9    O49   1.281423 A    
C50   C66   1.494347 S    
N9    O48   1.258881 A    
C22   N2    1.495865 S    
C5    C42   1.497653 S    
O1    Cr1   2.134602 S    
C65   H18   1.061534 S    
C47   C48   1.519493 A    
C37   H11   1.061512 S    
C27   C28   1.351073 A    
O10   Cr2   2.095867 S    
C41   C64   1.546971 S    
Cr1   O13   2.173790 S    
O1    C3    1.329960 A    
C8    C9    1.368916 A    
C64   O44   1.199813 D    
O20   C60   1.346754 A    
O19   C57   1.401849 A    
C55   O16   1.353474 A    
C41   C42   1.422263 A    
C26   C27   1.367546 A    
C9    C10   1.401281 A    
O5    Cr3   2.238978 S    
C53   H13   1.070435 S    
C40   C41   1.479882 A    
C4    C54   1.493031 S    
C46   N9    1.511711 S    
C35   H10   0.994754 S    
C18   C19   1.399573 A    
C68   O56   1.230653 D    
C21   N1    1.424367 S    
N6    O41   1.293888 A    
N5    O39   1.257606 A    
C12   C13   1.446173 A    
C10   C16   1.440561 A    
C14   C15   1.565005 A    
C50   C51   1.480158 A    
C19   C23   1.561708 S    
O7    Cr1   2.226401 S    
C66   H19   1.077896 S    
C7    C17   1.412273 A    
O12   C6    1.352964 A    
N3    O34   1.290912 A    
Cr5   O26   2.072030 S    
C15   C20   1.348734 A    
C49   H12   1.093228 S    
C52   N11   1.480014 S    
O18   Cr6   2.205665 S    
N11   O53   1.255412 A    
O23   Cr5   2.062703 S    
C44   C65   1.529738 S    
O16   Cr5   2.178337 S    
C25   C26   1.374843 A    
C25   C61   1.491105 S    
Cr2   O13   2.123310 S    
C10   C13   1.573134 S    
C31   C32   1.392431 A    
N7    O42   1.286861 A    
C11   C56   1.482509 S    
C65   O47   1.213591 D    
N5    O38   1.259553 A    
C22   C23   1.440627 A    
O17   Cr5   2.123295 S    
C28   C29   1.414356 A    
N4    O37   1.289852 A    
C1    C36   1.523363 S    
C34   N4    1.424228 S    
O9    Cr2   2.150440 S    
C12   C24   1.428756 A    
O2    Cr1   2.094839 S    
C29   C63   1.452687 S    
N10   O51   1.254395 A    
C45   C46   1.491312 A    
O6    Cr3   2.083522 S    
O20   Cr4   2.123057 S    
N8    O45   1.274133 A    
O11   Cr3   2.216676 S    
C29   C30   1.429157 A    
C2    O5    1.347202 A    
C68   H21   1.107955 S    
C39   C59   1.544113 S    
C11   C13   1.434016 A    
N6    O40   1.316083 A    
C33   C34   1.401955 A    
C44   C45   1.497711 A    
N2    O29   1.306483 A    
N8    O46   1.287472 A    
C32   C33   1.396340 A    
O4    C2    1.328695 A    
N1    O28   1.264092 A    
O7    C6    1.332017 A    
C7    C67   1.515707 S    
O25   C60   1.372832 A    
C16   C17   1.429103 A    
O24   Cr6   2.224854 S    
N10   O50   1.272948 A    
C38   C39   1.444993 A    
O21   C58   1.365266 A    
C63   O33   1.249939 D    
N3    O35   1.286894 A    
O15   Cr4   1.999753 S    
C32   N3    1.301447 S    
C51   C52   1.444433 A    
O3    Cr2   2.221709 S    
C34   C35   1.396677 A    
C4    O9    1.346748 A    
O21   Cr4   2.090327 S    
C26   H8    0.986561 S    
O22   Cr5   2.249406 S    
C43   C48   1.514778 A    
N7    O43   1.250360 A    
C8    H3    1.039816 S    
C15   H2    1.112486 S    
O10   C5    1.303233 A    
C51   C60   1.502139 S    
C3    C30   1.483946 S    
O14   C57   1.336136 A    
C62   H15   1.155989 S    
C56   O18   1.279189 A    
C18   H6    1.093769 S    
C33   C57   1.560708 S    
C64   H17   1.055235 S    
C1    O3    1.358568 A    
O8    C4    1.356753 A    
N4    O36   1.279837 A    
O12   Cr3   2.113732 S    
