data_mof_unit_37274.cif
_audit_creation_date              2012-12-11T14:10:40-0500
_audit_creation_method            fapswitch 2.2
_symmetry_space_group_name_H-M    P1
_symmetry_Int_Tables_number       1
_space_group_crystal_system       triclinic
_cell_length_a                    19.741317
_cell_length_b                    17.182099
_cell_length_c                    15.457404
_cell_angle_alpha                 90.013387
_cell_angle_beta                  52.44252
_cell_angle_gamma                 90.020956
_cell_volume                      4156.43370661

loop_
_atom_site_label
_atom_site_type_symbol
_atom_type_description
_atom_site_fract_x
_atom_site_fract_y
_atom_site_fract_z
_atom_type_partial_charge
C1    C     C_R   0.374165 0.197077 0.995310 -0.121302
C2    C     C_R   0.625925 0.802944 0.004574 -0.121565
C3    C     C_R   0.660821 0.175122 0.951144 -0.115404
C4    C     C_R   0.339177 0.824877 0.048850 -0.116158
C5    C     C_R   0.839211 0.675116 0.048902 -0.115666
C6    C     C_R   0.160751 0.324823 0.951263 -0.115454
C7    C     C_R   0.125794 0.697108 0.004778 -0.121936
C8    C     C_R   0.874192 0.302898 0.995235 -0.121197
C9    C     C_3   0.207207 0.190279 0.587055 -0.169859
C10   C     C_3   0.757042 0.779134 0.441365 -0.156837
C11   C     C_3   0.702654 0.241121 0.434105 -0.170561
C12   C     C_3   0.297478 0.758651 0.565862 -0.169980
C13   C     C_3   0.831719 0.772407 0.539801 -0.159606
C14   C     C_3   0.202691 0.258688 0.434060 -0.170136
C15   C     C_3   0.292589 0.690356 0.413069 -0.169571
C16   C     C_3   0.707082 0.309727 0.587112 -0.170132
C17   C     C_2   0.190422 0.743405 0.094786 -0.213216
C18   C     C_2   0.809550 0.256613 0.905245 -0.212580
C19   C     C_2   0.713683 0.687329 0.045385 -0.203008
C20   C     C_2   0.286282 0.312664 0.954756 -0.202944
C21   C     C_2   0.786471 0.187224 0.954419 -0.202854
C22   C     C_2   0.213505 0.812793 0.045609 -0.206344
C23   C     C_2   0.309373 0.243294 0.905521 -0.212577
C24   C     C_2   0.690747 0.756779 0.094384 -0.213134
C25   C     C_R   0.390398 0.802548 0.213208 -0.140279
C26   C     C_R   0.609424 0.197509 0.786907 -0.140188
C27   C     C_R   0.651541 0.828321 0.778609 -0.141629
C28   C     C_R   0.349625 0.173002 0.220793 -0.128180
C29   C     C_R   0.849711 0.326849 0.220752 -0.128532
C30   C     C_R   0.150402 0.673009 0.779222 -0.128201
C31   C     C_R   0.109562 0.302545 0.786805 -0.140397
C32   C     C_R   0.890157 0.697183 0.214264 -0.152581
C33   C     C_R   0.329900 0.913290 0.951155 -0.160791
C34   C     C_R   0.670095 0.086717 0.048854 -0.161010
C35   C     C_R   0.634652 0.889933 0.102795 -0.162406
C36   C     C_R   0.365382 0.110083 0.897162 -0.162323
C37   C     C_R   0.865423 0.389878 0.897104 -0.162216
C38   C     C_R   0.134557 0.610132 0.102917 -0.161694
C39   C     C_R   0.170036 0.413252 0.048985 -0.161098
C40   C     C_R   0.829932 0.586743 0.951091 -0.160809
C41   C     C_R   0.356923 0.080205 0.317042 -0.143343
C42   C     C_R   0.642906 0.920495 0.683016 -0.128879
C43   C     C_R   0.600614 0.106290 0.691159 -0.153292
C44   C     C_R   0.399104 0.893827 0.309012 -0.152419
C45   C     C_R   0.897494 0.604879 0.310090 -0.139898
C46   C     C_R   0.100867 0.393798 0.691003 -0.152414
C47   C     C_R   0.143096 0.580188 0.682968 -0.143346
C48   C     C_R   0.857042 0.419546 0.317104 -0.142599
C49   C     C_R   0.346741 0.185780 0.933134 0.157483
C50   C     C_R   0.653343 0.814250 0.066768 0.157611
C51   C     C_R   0.712573 0.147911 0.976739 0.154607
C52   C     C_R   0.287419 0.852096 0.023269 0.155823
C53   C     C_R   0.787486 0.647954 0.023203 0.154331
C54   C     C_R   0.212471 0.352015 0.976943 0.154649
C55   C     C_R   0.153152 0.685848 0.067029 0.157453
C56   C     C_R   0.846822 0.314166 0.933000 0.157396
C57   C     C_R   0.375802 0.818589 0.310108 0.042422
C58   C     C_R   0.623821 0.181537 0.690126 0.042976
C59   C     C_R   0.692985 0.861536 0.676443 0.029917
C60   C     C_R   0.308123 0.140455 0.322993 0.031522
C61   C     C_R   0.808269 0.359287 0.322981 0.031977
C62   C     C_R   0.191922 0.640446 0.677020 0.031424
C63   C     C_R   0.124134 0.318564 0.689923 0.042479
C64   C     C_R   0.874009 0.680042 0.312103 0.042613
C65   C     C_3   0.169818 0.152971 0.533311 -0.153005
C66   C     C_3   0.795242 0.849366 0.460251 -0.167412
C67   C     C_3   0.740095 0.204527 0.487620 -0.151539
C68   C     C_3   0.259774 0.795408 0.512756 -0.152232
C69   C     C_3   0.793625 0.702198 0.520311 -0.167618
C70   C     C_3   0.240303 0.295360 0.487354 -0.151958
C71   C     C_3   0.330072 0.652965 0.466617 -0.153356
C72   C     C_3   0.669859 0.346956 0.533150 -0.152706
C73   C     C_3   0.714231 0.749838 0.557814 -0.134920
C74   C     C_3   0.285516 0.219097 0.475429 -0.138770
C75   C     C_3   0.376590 0.730394 0.452853 -0.144760
C76   C     C_3   0.623388 0.269497 0.546914 -0.145303
C77   C     C_3   0.123449 0.230447 0.546985 -0.144865
C78   C     C_3   0.875651 0.801150 0.421171 -0.144710
C79   C     C_3   0.785407 0.280771 0.475609 -0.138807
C80   C     C_3   0.214413 0.719191 0.524775 -0.138546
C81   C     C_3   0.752624 0.819494 0.576307 0.186835
C82   C     C_3   0.247751 0.182547 0.422716 0.186260
C83   C     C_3   0.337590 0.766477 0.401711 0.186408
C84   C     C_3   0.662129 0.233579 0.598471 0.186539
C85   C     C_3   0.162357 0.266448 0.598319 0.186402
C86   C     C_3   0.836115 0.731834 0.404234 0.186317
C87   C     C_3   0.747809 0.317242 0.422683 0.186221
C88   C     C_3   0.252271 0.682557 0.577296 0.186183
H1    H     H_    0.388572 0.746056 0.183897 0.084355
H2    H     H_    0.611273 0.253980 0.816246 0.084272
H3    H     H_    0.671023 0.777270 0.799061 0.098706
H4    H     H_    0.331143 0.224217 0.199365 0.091932
H5    H     H_    0.831256 0.275629 0.199255 0.091958
H6    H     H_    0.168892 0.724238 0.800658 0.092023
H7    H     H_    0.111381 0.246065 0.816116 0.084393
H8    H     H_    0.888045 0.754031 0.185993 0.090424
H9    H     H_    0.345134 0.046137 0.383736 0.098683
H10   H     H_    0.653812 0.954596 0.616887 0.092976
H11   H     H_    0.595474 0.078831 0.632404 0.091199
H12   H     H_    0.404106 0.921361 0.367849 0.091455
H13   H     H_    0.902944 0.576870 0.368233 0.084959
H14   H     H_    0.095874 0.421309 0.632162 0.091418
H15   H     H_    0.154878 0.546107 0.616275 0.098736
H16   H     H_    0.845315 0.453332 0.383955 0.098337
N1    N     N_R   0.408680 0.130810 0.995780 -0.041612
N2    N     N_R   0.591320 0.869190 0.004220 -0.041177
N3    N     N_R   0.591320 0.130810 0.004220 -0.047007
N4    N     N_R   0.408680 0.869190 0.995780 -0.047099
N5    N     N_R   0.908680 0.630810 0.995780 -0.046713
N6    N     N_R   0.091320 0.369190 0.004220 -0.046973
N7    N     N_R   0.091320 0.630810 0.004220 -0.041469
N8    N     N_R   0.908680 0.369190 0.995780 -0.041605
N9    N     N_R   0.421410 0.867210 0.153620 -0.035664
N10   N     N_R   0.578590 0.132790 0.846380 -0.035728
N11   N     N_R   0.578590 0.867210 0.846380 -0.041147
N12   N     N_R   0.421410 0.132790 0.153620 -0.041244
N13   N     N_R   0.921410 0.367210 0.153620 -0.041208
N14   N     N_R   0.078590 0.632790 0.846380 -0.041184
N15   N     N_R   0.078590 0.367210 0.846380 -0.035742
N16   N     N_R   0.921410 0.632790 0.153620 -0.035100
N17   N     N_R   0.403840 0.921910 0.935760 -0.042512
N18   N     N_R   0.596160 0.078090 0.064240 -0.042451
N19   N     N_R   0.596160 0.921910 0.064240 -0.037155
N20   N     N_R   0.403840 0.078090 0.935760 -0.037242
N21   N     N_R   0.903840 0.421910 0.935760 -0.037241
N22   N     N_R   0.096160 0.578090 0.064240 -0.037564
N23   N     N_R   0.096160 0.421910 0.064240 -0.042520
N24   N     N_R   0.903840 0.578090 0.935760 -0.042504
N25   N     N_R   0.426250 0.076100 0.213650 -0.039780
N26   N     N_R   0.573750 0.923900 0.786350 -0.040378
N27   N     N_R   0.573750 0.076100 0.786350 -0.033327
N28   N     N_R   0.426250 0.923900 0.213650 -0.033062
N29   N     N_R   0.926250 0.576100 0.213650 -0.033551
N30   N     N_R   0.073750 0.423900 0.786350 -0.033077
N31   N     N_R   0.073750 0.576100 0.786350 -0.039821
N32   N     N_R   0.926250 0.423900 0.213650 -0.040078
Ni1   Ni    Ni4+2 0.500000 0.131570 0.000000 0.205909
Ni2   Ni    Ni4+2 0.500000 0.868430 0.000000 0.205251
Ni3   Ni    Ni4+2 0.000000 0.631570 0.000000 0.205788
Ni4   Ni    Ni4+2 0.000000 0.368430 0.000000 0.205896
Ni5   Ni    Ni4+2 0.488900 0.000000 0.862310 0.207206
Ni6   Ni    Ni4+2 0.511100 0.000000 0.137690 0.206824
Ni7   Ni    Ni4+2 0.988900 0.500000 0.862310 0.206705
Ni8   Ni    Ni4+2 0.011100 0.500000 0.137690 0.206895
H17   H     H_    0.381403 0.251864 0.023095 0.078749
H18   H     H_    0.618868 0.748190 0.976529 0.079105
H19   H     H_    0.670811 0.224641 0.901891 0.086473
H20   H     H_    0.329190 0.775349 0.098087 0.086609
H21   H     H_    0.829253 0.724559 0.098296 0.086347
H22   H     H_    0.170696 0.275270 0.902065 0.086435
H23   H     H_    0.118555 0.751888 0.977015 0.078733
H24   H     H_    0.881440 0.248115 0.022982 0.078743
H25   H     H_    0.309670 0.947075 0.911557 0.096658
H26   H     H_    0.690320 0.052940 0.088463 0.096701
H27   H     H_    0.638244 0.916015 0.163603 0.088963
H28   H     H_    0.361790 0.083998 0.836356 0.088970
H29   H     H_    0.861862 0.415950 0.836280 0.088867
H30   H     H_    0.138118 0.584061 0.163742 0.089334
H31   H     H_    0.190237 0.447026 0.088650 0.096609
H32   H     H_    0.809715 0.552987 0.911432 0.096793
H33   H     H_    0.647079 0.729427 0.615480 0.112698
H34   H     H_    0.353006 0.214038 0.444436 0.111756
H35   H     H_    0.444427 0.736505 0.419898 0.112242
H36   H     H_    0.555608 0.263366 0.579636 0.112444
H37   H     H_    0.055657 0.236619 0.579787 0.112448
H38   H     H_    0.943068 0.820351 0.362069 0.116008
H39   H     H_    0.852884 0.285791 0.444698 0.111714
H40   H     H_    0.146876 0.714193 0.555923 0.111660
H41   H     H_    0.142378 0.093622 0.548906 0.110736
H42   H     H_    0.795347 0.910715 0.437673 0.104490
H43   H     H_    0.768354 0.145424 0.470832 0.108993
H44   H     H_    0.231484 0.854512 0.529798 0.109279
H45   H     H_    0.792780 0.641111 0.544311 0.103226
H46   H     H_    0.268666 0.354443 0.470389 0.109336
H47   H     H_    0.357442 0.593595 0.450943 0.110739
H48   H     H_    0.642531 0.406324 0.548551 0.111666
H49   H     H_    0.208791 0.163022 0.650896 0.102423
H50   H     H_    0.727111 0.780724 0.399552 0.107374
H51   H     H_    0.701333 0.214071 0.369932 0.105395
H52   H     H_    0.299011 0.785576 0.629931 0.105567
H53   H     H_    0.860878 0.771238 0.582544 0.111225
H54   H     H_    0.201308 0.285670 0.369916 0.105420
H55   H     H_    0.290847 0.663152 0.349312 0.102517
H56   H     H_    0.708614 0.337063 0.650969 0.102356
H57   H     H_    0.211727 0.723069 0.140950 0.124644
H58   H     H_    0.788249 0.276947 0.859074 0.123716
H59   H     H_    0.690324 0.666152 0.001899 0.122906
H60   H     H_    0.309524 0.333781 0.998404 0.122502
H61   H     H_    0.809742 0.166105 0.998018 0.122511
H62   H     H_    0.190227 0.833916 0.002022 0.122861
H63   H     H_    0.288081 0.222956 0.859326 0.123708
H64   H     H_    0.712160 0.777191 0.140412 0.123190

loop_
_geom_bond_atom_site_label_1
_geom_bond_atom_site_label_2
_ccdc_geom_bond_type
C68   C80   S    
C41   N25   A    
C3    H19   S    
C2    H18   S    
N9    N28   A    
C18   C21   D    
C6    N6    A    
N10   N27   A    
N8    Ni4   S    
C1    H17   S    
C16   C72   S    
C7    C55   A    
N4    N17   A    
C72   C76   S    
C78   C86   S    
C76   C84   S    
C47   C62   A    
C79   C87   S    
C47   N31   A    
C65   C82   S    
N7    Ni3   S    
C33   C52   A    
C12   C68   S    
C34   C51   A    
C69   H45   S    
C4    C52   A    
N15   Ni4   S    
C25   H1    S    
C5    C53   A    
C8    H24   S    
C35   H27   S    
C48   N32   A    
C25   N9    A    
C11   C76   S    
C8    N8    A    
N32   Ni8   S    
C10   C73   S    
C33   H25   S    
C23   C49   S    
C39   C54   A    
C46   N30   A    
C77   H37   S    
C48   H16   S    
C13   C81   S    
C16   C84   S    
C5    H21   S    
C75   H35   S    
N16   N29   A    
N10   Ni1   S    
C64   C86   S    
N26   Ni5   S    
C73   H33   S    
C28   N12   A    
C43   C58   A    
C9    C85   S    
N30   Ni7   S    
C37   C56   A    
C60   C82   S    
C27   N11   A    
C38   C55   A    
C17   H57   S    
C15   H55   S    
N2    N19   A    
C70   C74   S    
N11   Ni2   S    
C27   H3    S    
C22   H62   S    
C61   C87   S    
C17   C55   S    
N27   Ni5   S    
C18   C56   S    
N6    N23   A    
C19   H59   S    
C19   C53   S    
N31   Ni7   S    
C77   C85   S    
C67   C84   S    
C34   N18   A    
C71   C75   S    
C63   C85   S    
C33   N17   A    
N22   Ni8   S    
C14   C70   S    
C8    C56   A    
C39   N23   A    
C25   C57   A    
C6    C54   A    
C73   C81   S    
C38   N22   A    
C11   C67   S    
C37   N21   A    
C10   C66   S    
N28   Ni6   S    
C66   C78   S    
C29   C61   A    
C78   H38   S    
N15   N30   A    
C65   C77   S    
N12   N25   A    
C10   H50   S    
N17   Ni5   S    
C23   H63   S    
C47   H15   S    
C38   H30   S    
C20   C54   S    
C11   C87   S    
C14   C77   S    
C29   H5    S    
C7    N7    A    
C44   H12   S    
C15   C83   S    
N25   Ni6   S    
C30   N14   A    
C3    N3    A    
C62   C88   S    
N7    N22   A    
C2    N2    A    
C66   H42   S    
N1    N20   A    
C65   H41   S    
C4    H20   S    
N3    Ni1   S    
C32   C64   A    
C26   N10   A    
C58   C84   S    
C20   H60   S    
C70   H46   S    
N5    N24   A    
C21   H61   S    
C15   C80   S    
C20   C23   D    
C44   C57   A    
C12   C88   S    
C35   C50   A    
C57   C83   S    
C67   C79   S    
C24   H64   S    
N16   Ni3   S    
C69   C73   S    
C26   C58   A    
C24   C50   S    
C31   N15   A    
N8    N21   A    
C14   H54   S    
C28   C60   A    
C45   H13   S    
C7    H23   S    
C31   H7    S    
C12   H52   S    
C34   H26   S    
C13   H53   S    
C30   C62   A    
C2    C50   A    
C28   H4    S    
C41   H9    S    
N20   Ni5   S    
C76   H36   S    
N13   Ni4   S    
C26   H2    S    
C9    C74   S    
C14   C82   S    
C18   H58   S    
N14   Ni3   S    
C21   C51   S    
C72   C87   S    
C9    H49   S    
C36   H28   S    
C74   H34   S    
N12   Ni1   S    
C74   C82   S    
C13   C78   S    
C10   C86   S    
N29   Ni8   S    
C3    C51   A    
C36   N20   A    
C68   C83   S    
C39   H31   S    
C40   H32   S    
C59   C81   S    
C41   C60   A    
C43   H11   S    
C42   H10   S    
C42   C59   A    
C35   N19   A    
C16   H56   S    
C44   N28   A    
C31   C63   A    
C15   C71   S    
C45   C64   A    
C45   N29   A    
C17   C22   D    
C42   N26   A    
C46   C63   A    
N5    Ni3   S    
C16   C79   S    
C67   H43   S    
N6    Ni4   S    
C19   C24   D    
C30   H6    S    
C27   C59   A    
C66   C81   S    
N4    Ni2   S    
C32   H8    S    
C68   H44   S    
C75   C83   S    
C48   C61   A    
C13   C69   S    
N21   Ni7   S    
C29   N13   A    
N19   Ni6   S    
C43   N27   A    
C71   H47   S    
C70   C85   S    
C22   C52   S    
N23   Ni8   S    
C72   H48   S    
N24   Ni7   S    
C9    C65   S    
N2    Ni2   S    
C37   H29   S    
N14   N31   A    
N1    Ni1   S    
C71   C88   S    
C6    H22   S    
C69   C86   S    
C11   H51   S    
C4    N4    A    
C80   C88   S    
C40   C53   A    
C12   C75   S    
N18   Ni6   S    
N9    Ni2   S    
C5    N5    A    
N3    N18   A    
C79   H39   S    
C32   N16   A    
N13   N32   A    
C1    C49   A    
C80   H40   S    
C36   C49   A    
C1    N1    A    
C46   H14   S    
N11   N26   A    
C40   N24   A    
