data_mof_unit_27549.cif
_audit_creation_date              2012-12-10T17:56:45-0500
_audit_creation_method            fapswitch 2.2
_symmetry_space_group_name_H-M    P1
_symmetry_Int_Tables_number       1
_space_group_crystal_system       triclinic
_cell_length_a                    10.896895
_cell_length_b                    9.574818
_cell_length_c                    10.923072
_cell_angle_alpha                 89.73685
_cell_angle_beta                  92.348357
_cell_angle_gamma                 89.082653
_cell_volume                      1138.54851674

loop_
_atom_site_label
_atom_site_type_symbol
_atom_type_description
_atom_site_fract_x
_atom_site_fract_y
_atom_site_fract_z
_atom_type_partial_charge
C1    C     C_R   0.262029 0.501303 0.501440 0.794138
C2    C     C_R   0.737361 0.499307 0.495773 0.829555
C3    C     C_R   0.931414 0.623440 0.458962 0.215945
C4    C     C_R   0.059410 0.629117 0.475527 0.184910
C5    C     C_R   0.419177 0.078118 0.426700 -0.058776
C6    C     C_R   0.581632 0.073221 0.572704 -0.100001
C7    C     C_R   0.418403 0.929321 0.423895 0.324721
C8    C     C_R   0.582199 0.924220 0.574171 0.332482
C9    C     C_R   0.499372 0.501482 0.261953 0.813346
C10   C     C_R   0.488894 0.499922 0.736834 0.817258
C11   C     C_R   0.532574 0.762015 0.108484 -0.128674
C12   C     C_R   0.418284 0.755155 0.876824 -0.156427
C13   C     C_R   0.502940 0.885982 0.046356 -0.149169
C14   C     C_R   0.436919 0.882266 0.934880 -0.174085
C15   C     C_R   0.460913 0.629337 0.933076 0.064521
C16   C     C_R   0.497305 0.631799 0.058319 0.045780
C17   C     C_R   0.489367 0.505646 0.127092 -0.218321
C18   C     C_R   0.468823 0.500883 0.869792 -0.233794
C19   C     C_R   0.453776 0.383255 0.065061 0.239322
C20   C     C_R   0.465422 0.375512 0.938786 0.185023
C21   C     C_R   0.065850 0.379982 0.523029 -0.248843
C22   C     C_R   0.938707 0.378421 0.520396 -0.255012
C23   C     C_R   0.870842 0.499710 0.489711 -0.092334
C24   C     C_R   0.127487 0.504599 0.501579 -0.089835
Cu1   Cu    Cu3+1 0.500000 0.640660 0.500000 0.956584
Cu2   Cu    Cu3+1 0.500000 0.359340 0.500000 0.934086
H1    H     H_    0.583257 0.771913 0.194405 0.170143
H2    H     H_    0.367834 0.756441 0.789583 0.149349
H3    H     H_    0.527208 0.984586 0.087646 0.138453
H4    H     H_    0.403362 0.977465 0.891083 0.155888
H5    H     H_    0.115949 0.283733 0.544531 0.168665
H6    H     H_    0.893560 0.282116 0.542728 0.166599
H7    H     H_    0.355280 0.139881 0.370431 0.173835
H8    H     H_    0.646058 0.129936 0.630455 0.153675
N1    N     N_R   0.500000 0.852070 0.500000 -0.223566
N2    N     N_R   0.500000 0.147940 0.500000 -0.202741
O1    O     O_R   0.319640 0.618740 0.499990 -0.565911
O2    O     O_R   0.680360 0.618740 0.500010 -0.509979
O3    O     O_R   0.319620 0.381170 0.499990 -0.599647
O4    O     O_R   0.680380 0.381170 0.500010 -0.600271
O5    O     O_R   0.500000 0.618810 0.319650 -0.626538
O6    O     O_R   0.500000 0.618810 0.680350 -0.597845
O7    O     O_R   0.499970 0.381240 0.319640 -0.536027
O8    O     O_R   0.500030 0.381240 0.680360 -0.576818
N3    N     N_2   0.391285 0.275510 0.126498 -0.405585
H9    H     H_    0.399573 0.178164 0.088204 0.260964
C25   C     C_3   0.264187 0.311962 0.147231 -0.695620
H10   H     H_    0.221004 0.228105 0.199485 0.215974
H11   H     H_    0.212018 0.325943 0.058291 0.218223
H12   H     H_    0.257639 0.409634 0.201282 0.226502
N4    N     N_2   0.473786 0.240697 0.885754 -0.444564
H13   H     H_    0.417395 0.220865 0.810080 0.271343
C26   C     C_3   0.597849 0.184478 0.884440 -0.705808
H14   H     H_    0.597135 0.078589 0.844186 0.221050
H15   H     H_    0.638177 0.176616 0.979336 0.226759
H16   H     H_    0.656599 0.252262 0.829444 0.235940
N5    N     N_2   0.863876 0.740166 0.407843 -0.396372
H17   H     H_    0.892192 0.836716 0.437340 0.250637
C27   C     C_3   0.844055 0.734112 0.276300 -0.705960
H18   H     H_    0.933367 0.731575 0.230655 0.210704
H19   H     H_    0.791362 0.828281 0.243904 0.219785
H20   H     H_    0.790964 0.639866 0.250352 0.227377
N6    N     N_2   0.119150 0.759250 0.464318 -0.400918
H21   H     H_    0.086805 0.820547 0.392062 0.263015
C28   C     C_3   0.133107 0.836100 0.577723 -0.661529
H22   H     H_    0.042213 0.870915 0.609136 0.196386
H23   H     H_    0.189551 0.929729 0.563099 0.225853
H24   H     H_    0.179811 0.770242 0.650072 0.228821
N7    N     N_2   0.329706 0.861448 0.345004 -0.399138
H25   H     H_    0.336343 0.757216 0.329122 0.322257
C29   C     C_3   0.258392 0.937544 0.251192 -0.794537
H26   H     H_    0.202266 0.863843 0.195059 0.233816
H27   H     H_    0.319909 0.992251 0.189721 0.246271
H28   H     H_    0.194241 0.012024 0.294095 0.225075
N8    N     N_2   0.664135 0.849126 0.656428 -0.365928
H29   H     H_    0.623574 0.817201 0.734965 0.268800
C30   C     C_3   0.785372 0.904679 0.681363 -0.762705
H30   H     H_    0.849322 0.817692 0.708843 0.244158
H31   H     H_    0.783303 0.980764 0.757672 0.207702
H32   H     H_    0.820197 0.957119 0.599250 0.221590

loop_
_geom_bond_atom_site_label_1
_geom_bond_atom_site_label_2
_ccdc_geom_bond_type
C15   C18   A    
C30   H30   S    
N6    C28   S    
C10   O6    A    
C26   H15   S    
C3    C23   A    
C19   C20   A    
Cu2   O8    S    
C25   H11   S    
C26   H14   S    
C21   H5    S    
C4    N6    S    
C22   H6    S    
C12   H2    S    
C13   H3    S    
C20   N4    S    
C4    C24   A    
Cu2   O3    S    
N5    C27   S    
C15   C16   A    
C5    N2    A    
N7    C29   S    
Cu1   O1    S    
C16   C17   A    
C28   H23   S    
C5    H7    S    
C1    O1    A    
C30   H31   S    
C27   H18   S    
C21   C22   A    
C14   H4    S    
Cu2   O7    S    
C25   H12   S    
N3    C25   S    
C9    O7    A    
C27   H19   S    
C10   O8    A    
N4    H13   S    
Cu1   O5    S    
C5    C7    A    
C6    C8    A    
Cu1   Cu2   S    
N3    H9    S    
C8    N8    S    
C6    H8    S    
N4    C26   S    
C8    N1    A    
N8    H29   S    
Cu1   O2    S    
C11   C16   A    
C2    O2    A    
C25   H10   S    
C12   C15   A    
C11   H1    S    
C28   H24   S    
N8    C30   S    
Cu1   N1    S    
C3    N5    S    
C9    C17   S    
C12   C14   A    
C3    C4    A    
C29   H27   S    
C26   H16   S    
Cu2   N2    S    
C27   H20   S    
C7    N1    A    
Cu1   O6    S    
C7    N7    S    
C29   H28   S    
C19   N3    S    
C9    O5    A    
C29   H26   S    
C11   C13   A    
Cu2   O4    S    
N5    H17   S    
C30   H32   S    
C10   C18   S    
C17   C19   A    
C6    N2    A    
C18   C20   A    
N7    H25   S    
C1    O3    A    
N6    H21   S    
C2    O4    A    
C1    C24   S    
C28   H22   S    
C21   C24   A    
C2    C23   S    
C22   C23   A    
C13   C14   A    
