data_mof_unit_47356.cif
_audit_creation_date              2012-12-10T18:43:04-0500
_audit_creation_method            fapswitch 2.2
_symmetry_space_group_name_H-M    P1
_symmetry_Int_Tables_number       1
_space_group_crystal_system       triclinic
_cell_length_a                    8.738418
_cell_length_b                    19.395408
_cell_length_c                    18.156471
_cell_angle_alpha                 89.513228
_cell_angle_beta                  97.289723
_cell_angle_gamma                 89.309294
_cell_volume                      3052.00232717

loop_
_atom_site_label
_atom_site_type_symbol
_atom_type_description
_atom_site_fract_x
_atom_site_fract_y
_atom_site_fract_z
_atom_type_partial_charge
C1    C     C_R   0.502200 0.367709 0.500412 0.840928
C2    C     C_R   0.502514 0.632615 0.499925 0.815185
C3    C     C_R   0.657455 0.964464 0.498674 -0.193743
C4    C     C_R   0.380204 0.036696 0.505266 -0.150352
C5    C     C_R   0.655315 0.036277 0.496750 -0.202028
C6    C     C_R   0.382610 0.964946 0.507803 -0.150001
C7    C     C_R   0.516434 0.072558 0.499412 0.123178
C8    C     C_R   0.521208 0.928644 0.504504 0.131643
C9    C     C_R   0.579435 0.450707 0.727063 0.035614
C10   C     C_R   0.617868 0.528882 0.285349 0.081286
C11   C     C_R   0.581300 0.451185 0.804376 -0.297641
C12   C     C_R   0.620290 0.527672 0.208386 -0.314422
C13   C     C_R   0.503195 0.503549 0.838470 0.059217
C14   C     C_R   0.500100 0.496655 0.161699 0.059465
C15   C     C_R   0.427991 0.556339 0.792685 0.331971
C16   C     C_R   0.381462 0.464380 0.195149 0.337728
C17   C     C_R   0.424088 0.551676 0.714763 -0.034710
C18   C     C_R   0.383636 0.468128 0.273116 -0.040952
C19   C     C_R   0.534460 0.561133 0.964049 -0.262561
C20   C     C_R   0.467598 0.439525 0.035951 -0.267150
C21   C     C_R   0.529181 0.560892 0.041225 0.416613
C22   C     C_R   0.462284 0.441043 0.958140 0.412126
C23   C     C_R   0.204407 0.497853 0.481556 0.839220
C24   C     C_R   0.795774 0.500874 0.518328 0.833596
C25   C     C_R   0.499037 0.499084 0.078669 -0.017083
C26   C     C_R   0.499829 0.501919 0.921180 -0.018488
C27   C     C_2   0.041604 0.486057 0.473995 -0.234044
C28   C     C_2   0.958379 0.512975 0.525317 -0.231386
C29   C     C_R   0.558576 0.746117 0.441124 0.451400
C30   C     C_R   0.599292 0.255491 0.557189 0.444570
C31   C     C_R   0.560941 0.818012 0.443546 -0.265634
C32   C     C_R   0.600513 0.183144 0.555091 -0.297350
C33   C     C_R   0.522598 0.853032 0.505789 -0.022754
C34   C     C_R   0.514448 0.148180 0.496926 -0.006215
C35   C     C_R   0.481839 0.815765 0.567155 0.017782
C36   C     C_R   0.423941 0.185637 0.439675 0.026405
C37   C     C_R   0.473611 0.743912 0.563677 -0.301814
C38   C     C_R   0.421976 0.257597 0.442286 -0.316826
C39   C     C_R   0.509871 0.708461 0.500712 -0.151530
C40   C     C_R   0.506822 0.292400 0.500785 -0.121561
Cu1   Cu    Cu3+1 0.499960 0.500000 0.573360 0.955909
Cu2   Cu    Cu3+1 0.500040 0.500000 0.426640 0.958125
H1    H     H_    0.359927 0.589405 0.678776 0.152020
H2    H     H_    0.291298 0.446035 0.299324 0.133353
H3    H     H_    0.566357 0.608168 0.937845 0.184973
H4    H     H_    0.446774 0.391158 0.062823 0.188048
H5    H     H_    0.593694 0.846611 0.396558 0.159628
H6    H     H_    0.665527 0.153736 0.599738 0.142161
H7    H     H_    0.440930 0.715663 0.610911 0.168809
H8    H     H_    0.353095 0.286804 0.398522 0.164218
H9    H     H_    0.765029 0.936780 0.496088 0.129225
H10   H     H_    0.272572 0.064316 0.507905 0.130150
H11   H     H_    0.761189 0.063632 0.492337 0.129926
H12   H     H_    0.276503 0.937635 0.511754 0.126993
H13   H     H_    0.641288 0.410614 0.701733 0.182064
H14   H     H_    0.711118 0.552711 0.320423 0.138450
H15   H     H_    0.644574 0.410971 0.837466 0.186349
H16   H     H_    0.716384 0.550744 0.185530 0.187340
N1    N     N_R   0.499980 0.500020 0.683620 -0.193577
N2    N     N_R   0.500020 0.499980 0.316380 -0.182383
O1    O     O_R   0.499930 0.400180 0.561970 -0.547590
O2    O     O_R   0.500070 0.599820 0.438030 -0.541365
O3    O     O_R   0.500010 0.400190 0.438070 -0.588996
O4    O     O_R   0.499990 0.599810 0.561930 -0.596592
O5    O     O_R   0.274810 0.500000 0.547650 -0.568568
O6    O     O_R   0.725190 0.500000 0.452350 -0.581936
O7    O     O_R   0.274880 0.500000 0.423750 -0.602298
O8    O     O_R   0.725120 0.500000 0.576250 -0.588827
C41   C     C_R   0.980982 0.433669 0.418466 0.143857
C42   C     C_R   0.969770 0.448597 0.342135 -0.130464
C43   C     C_R   0.909099 0.400027 0.290257 -0.164117
C44   C     C_R   0.860498 0.336149 0.314163 -0.108645
C45   C     C_R   0.872306 0.320742 0.390026 -0.137757
C46   C     C_R   0.932731 0.369209 0.442020 -0.142943
H17   H     H_    0.005595 0.498160 0.322919 0.125876
H18   H     H_    0.899278 0.412028 0.231501 0.144318
H19   H     H_    0.813617 0.298633 0.273923 0.119354
H20   H     H_    0.834458 0.271313 0.408564 0.118102
H21   H     H_    0.941428 0.356876 0.500558 0.113952
C47   C     C_R   0.012876 0.571161 0.574452 0.138686
C48   C     C_R   0.056581 0.633051 0.542728 -0.161962
C49   C     C_R   0.089412 0.690856 0.586770 -0.166983
C50   C     C_R   0.079289 0.687520 0.662895 -0.145326
C51   C     C_R   0.038128 0.625887 0.695199 -0.129775
C52   C     C_R   0.005152 0.567761 0.651241 -0.105357
H22   H     H_    0.061290 0.637037 0.483523 0.105369
H23   H     H_    0.120330 0.738346 0.561248 0.129354
H24   H     H_    0.103322 0.732620 0.696866 0.131882
H25   H     H_    0.030768 0.623293 0.754208 0.160563
H26   H     H_    0.971458 0.520572 0.676763 0.131261
O9    O     O_3   0.348097 0.608475 0.823773 -0.594465
C53   C     C_3   0.408787 0.673243 0.806918 0.047612
H27   H     H_    0.376646 0.687180 0.747477 0.145600
H28   H     H_    0.536977 0.673639 0.819964 0.134725
C54   C     C_3   0.342518 0.728496 0.853086 -0.794358
H29   H     H_    0.375351 0.717280 0.913046 0.241507
H30   H     H_    0.388833 0.779541 0.839928 0.215897
H31   H     H_    0.214759 0.730253 0.840677 0.240125
O10   O     O_3   0.257552 0.435840 0.150814 -0.589092
C55   C     C_3   0.236708 0.366694 0.172607 0.036688
H32   H     H_    0.182844 0.364485 0.224740 0.149720
H33   H     H_    0.348103 0.337215 0.180387 0.136388
C56   C     C_3   0.128595 0.331369 0.112717 -0.787457
H34   H     H_    0.181237 0.329469 0.060273 0.241766
H35   H     H_    0.107053 0.277837 0.130621 0.203742
H36   H     H_    0.016824 0.359936 0.102845 0.248569
O11   O     O_3   0.560796 0.621198 0.079866 -0.588731
C57   C     C_3   0.419839 0.654187 0.089373 0.073655
H37   H     H_    0.355564 0.669548 0.034711 0.144378
H38   H     H_    0.345659 0.620271 0.119289 0.158465
C58   C     C_3   0.453039 0.718730 0.135320 -0.770787
H39   H     H_    0.525947 0.754200 0.106893 0.242813
H40   H     H_    0.343055 0.745575 0.142543 0.199913
H41   H     H_    0.514194 0.704607 0.190898 0.269976
O12   O     O_3   0.424812 0.381510 0.919046 -0.584453
C59   C     C_3   0.265062 0.383376 0.894041 0.082528
H42   H     H_    0.234540 0.427512 0.855057 0.153554
H43   H     H_    0.196446 0.387555 0.941540 0.146879
C60   C     C_3   0.220848 0.317140 0.852971 -0.794725
H44   H     H_    0.250419 0.271943 0.890255 0.249370
H45   H     H_    0.094833 0.317435 0.834376 0.196714
H46   H     H_    0.283537 0.312701 0.803649 0.255610
O13   O     O_3   0.602333 0.713780 0.379406 -0.568562
C61   C     C_3   0.763480 0.701006 0.390919 0.057482
H47   H     H_    0.786208 0.649089 0.416620 0.154769
H48   H     H_    0.829119 0.739675 0.427274 0.124716
C62   C     C_3   0.826188 0.702619 0.316496 -0.808078
H49   H     H_    0.812678 0.755363 0.292061 0.246760
H50   H     H_    0.950537 0.688050 0.324382 0.202435
H51   H     H_    0.762965 0.666081 0.277407 0.251413
O14   O     O_3   0.679329 0.291244 0.615624 -0.582960
C63   C     C_3   0.835938 0.270064 0.628042 0.047507
H52   H     H_    0.883984 0.258875 0.575275 0.122949
H53   H     H_    0.848754 0.223436 0.664420 0.153499
C64   C     C_3   0.930349 0.327420 0.667490 -0.811884
H54   H     H_    0.054203 0.312074 0.676450 0.210381
H55   H     H_    0.917154 0.375511 0.633523 0.243974
H56   H     H_    0.890581 0.337506 0.722142 0.237463
C65   C     C_R   0.457100 0.850637 0.636853 0.125906
C66   C     C_R   0.309300 0.854933 0.659080 -0.177429
C67   C     C_R   0.286883 0.888396 0.724822 -0.146166
C68   C     C_R   0.411817 0.917837 0.768656 -0.117658
C69   C     C_R   0.559296 0.913944 0.746710 -0.140073
C70   C     C_R   0.582055 0.880545 0.680956 -0.130759
H57   H     H_    0.211225 0.833769 0.624947 0.112436
H58   H     H_    0.172588 0.891675 0.741668 0.123493
H59   H     H_    0.394321 0.943699 0.819565 0.122329
H60   H     H_    0.655955 0.936829 0.780624 0.123453
H61   H     H_    0.696799 0.877860 0.664422 0.118547
C71   C     C_R   0.330639 0.151511 0.376658 0.116733
C72   C     C_R   0.172677 0.167652 0.359765 -0.172426
C73   C     C_R   0.084461 0.136327 0.299937 -0.143500
C74   C     C_R   0.153116 0.088827 0.256412 -0.111848
C75   C     C_R   0.310237 0.072785 0.272484 -0.137158
C76   C     C_R   0.399029 0.104145 0.332154 -0.133555
H62   H     H_    0.117724 0.204118 0.393229 0.128261
H63   H     H_    0.962850 0.148870 0.287369 0.121478
H64   H     H_    0.084667 0.064584 0.210115 0.120113
H65   H     H_    0.363419 0.036242 0.238497 0.125235
H66   H     H_    0.521064 0.091916 0.343261 0.124065

loop_
_geom_bond_atom_site_label_1
_geom_bond_atom_site_label_2
_ccdc_geom_bond_type
C64   H56   S    
C38   C40   A    
Cu1   Cu2   S    
C54   H29   S    
Cu1   O1    S    
C62   H50   S    
C48   C49   A    
C54   H31   S    
C64   H54   S    
C57   H37   S    
C47   C52   A    
C4    H10   S    
C50   C51   A    
C5    H11   S    
C35   C37   A    
C43   H18   S    
C20   C25   A    
C69   C70   A    
C59   H42   S    
C15   C17   A    
C45   C46   A    
C23   O7    A    
C74   H64   S    
C19   C26   A    
C55   H32   S    
C1    C40   S    
C35   C65   S    
C2    C39   S    
C56   H35   S    
C58   H39   S    
C57   H38   S    
C63   H52   S    
C45   H20   S    
C31   C33   A    
C42   C43   A    
C9    H13   S    
C23   C27   S    
C56   H36   S    
C10   H14   S    
Cu2   O2    S    
C48   H22   S    
C27   C41   S    
C24   O6    A    
C12   H16   S    
C50   H24   S    
C31   H5    S    
C32   H6    S    
C41   C42   A    
C6    H12   S    
C4    C7    A    
C1    O3    A    
C55   H33   S    
C2    O4    A    
Cu1   O8    S    
C60   H45   S    
C69   H60   S    
C65   C66   A    
O13   C61   S    
C66   C67   A    
Cu1   N1    S    
C4    C6    A    
C3    C8    A    
Cu2   N2    S    
O9    C53   S    
C5    C7    A    
C3    H9    S    
C47   C48   A    
Cu1   O5    S    
C53   C54   S    
C19   H3    S    
C9    N1    A    
C32   C34   A    
C10   N2    A    
C17   H1    S    
C70   H61   S    
C18   H2    S    
C37   H7    S    
C65   C70   A    
O10   C55   S    
C72   C73   A    
C29   C39   A    
C53   H28   S    
C49   H23   S    
C30   C40   A    
C41   C46   A    
C58   H40   S    
C57   C58   S    
C72   H62   S    
C51   C52   A    
C60   H44   S    
C9    C11   A    
C75   C76   A    
C21   O11   S    
C10   C12   A    
C67   H58   S    
C17   N1    A    
C61   C62   S    
C18   N2    A    
C22   O12   S    
C12   C14   A    
C71   C76   A    
C13   C15   A    
Cu2   O7    S    
C7    C34   S    
C14   C16   A    
C13   C26   S    
C51   H25   S    
O11   C57   S    
C62   H49   S    
C56   H34   S    
C61   H48   S    
C60   H46   S    
C64   H55   S    
C21   C25   A    
C73   H63   S    
C19   C21   A    
C76   H66   S    
C71   C72   A    
C68   H59   S    
C16   C18   A    
C24   C28   S    
C20   C22   A    
C44   C45   A    
C3    C5    A    
C1    O1    A    
C66   H57   S    
C44   H19   S    
C6    C8    A    
C52   H26   S    
C54   H30   S    
C16   O10   S    
C38   H8    S    
C59   C60   S    
C46   H21   S    
C23   O5    A    
C36   C38   A    
C62   H51   S    
C43   C44   A    
C37   C39   A    
C67   C68   A    
C30   C32   A    
C11   C13   A    
C36   C71   S    
O12   C59   S    
C63   C64   S    
C63   H53   S    
C29   O13   S    
C53   H27   S    
C33   C35   A    
C59   H43   S    
C58   H41   S    
C34   C36   A    
C8    C33   S    
C55   C56   S    
C14   C25   S    
O14   C63   S    
C28   C47   S    
C24   O8    A    
C15   O9    S    
C2    O2    A    
C75   H65   S    
C73   C74   A    
C29   C31   A    
C49   C50   A    
C22   C26   A    
C42   H17   S    
Cu2   O6    S    
C68   C69   A    
Cu1   O4    S    
C74   C75   A    
C11   H15   S    
Cu2   O3    S    
C20   H4    S    
C30   O14   S    
C61   H47   S    
C27   C28   D    
