data_mof_unit_9177.cif
_audit_creation_date              2012-10-26T19:40:44-0400
_audit_creation_method            fapswitch 2.2
_symmetry_space_group_name_H-M    P1
_symmetry_Int_Tables_number       1
_space_group_crystal_system       triclinic
_cell_length_a                    9.701462
_cell_length_b                    10.932182
_cell_length_c                    13.491664
_cell_angle_alpha                 90.019686
_cell_angle_beta                  72.724167
_cell_angle_gamma                 88.490773
_cell_volume                      1365.82348323

loop_
_atom_site_label
_atom_site_type_symbol
_atom_type_description
_atom_site_fract_x
_atom_site_fract_y
_atom_site_fract_z
_atom_type_partial_charge
C1    C     C_R   0.499539 0.734648 0.497964 0.570455
C2    C     C_R   0.381608 0.478298 0.813838 -0.001897
C3    C     C_2   0.625641 0.060901 0.483651 -0.026444
C4    C     C_R   0.424009 0.490385 0.699603 0.540708
C5    C     C_2   0.504091 0.132375 0.505353 -0.101252
C6    C     C_2   0.614328 0.928187 0.497571 -0.144017
C7    C     C_2   0.501455 0.866381 0.488006 -0.128593
C8    C     C_2   0.054623 0.586433 0.542023 0.067754
C9    C     C_2   0.896082 0.573498 0.556543 -0.033090
C10   C     C_R   0.502345 0.265033 0.499439 0.546453
C11   C     C_R   0.576756 0.490877 0.300598 0.550291
C12   C     C_R   0.443787 0.466570 0.977316 0.034764
C13   C     C_R   0.803256 0.446204 0.021952 -0.144034
C14   C     C_R   0.618905 0.468930 0.187827 0.010971
C15   C     C_R   0.239056 0.510487 0.870548 -0.138469
C16   C     C_R   0.201529 0.530207 0.976832 -0.152697
C17   C     C_R   0.303768 0.513263 0.029072 -0.122605
C18   C     C_R   0.091806 0.705667 0.576095 0.098869
C19   C     C_R   0.102702 0.807459 0.510934 -0.090335
C20   C     C_R   0.120897 0.924104 0.546998 -0.140294
C21   C     C_R   0.128694 0.939680 0.648024 -0.114584
C22   C     C_R   0.114875 0.839067 0.713843 -0.117185
C23   C     C_R   0.483962 0.448699 0.868184 0.023116
C24   C     C_R   0.093793 0.722822 0.678518 -0.067991
C25   C     C_3   0.380958 0.368494 0.197442 -0.383300
C26   C     C_3   0.776668 0.110056 0.447212 -0.363462
C27   C     C_R   0.548916 0.447542 0.030350 0.045496
C28   C     C_R   0.696087 0.434963 0.972537 0.039331
C29   C     C_R   0.732929 0.407053 0.867116 -0.148370
C30   C     C_R   0.626171 0.404367 0.817612 -0.126337
C31   C     C_R   0.513043 0.439514 0.139110 -0.012971
C32   C     C_R   0.764447 0.471819 0.128084 -0.155122
Cu1   Cu    Cu3+1 0.361370 0.499980 0.499980 0.926857
Cu2   Cu    Cu3+1 0.638630 0.500020 0.500020 0.909340
H1    H     H_    0.848432 0.487991 0.164047 0.125662
H2    H     H_    0.157636 0.527193 0.832205 0.115174
H3    H     H_    0.272870 0.541187 0.109523 0.116265
H4    H     H_    0.094096 0.564062 0.018477 0.110581
H5    H     H_    0.658811 0.368497 0.739431 0.156398
H6    H     H_    0.095301 0.796564 0.432888 0.100554
H7    H     H_    0.129517 0.002301 0.496535 0.099957
H8    H     H_    0.143690 0.029854 0.675654 0.110831
H9    H     H_    0.117609 0.851512 0.792817 0.108974
H10   H     H_    0.074775 0.646952 0.731320 0.096389
H11   H     H_    0.410616 0.300735 0.249536 0.140827
H12   H     H_    0.398391 0.092633 0.532586 0.083803
H13   H     H_    0.293055 0.430121 0.244321 0.146856
H14   H     H_    0.338353 0.314766 0.143634 0.120591
H15   H     H_    0.859434 0.034685 0.425496 0.106416
H16   H     H_    0.789530 0.167355 0.377242 0.145889
H17   H     H_    0.799272 0.163830 0.510184 0.151834
H18   H     H_    0.704909 0.879679 0.513117 0.151768
H19   H     H_    0.413557 0.911088 0.466850 0.107530
H20   H     H_    0.116139 0.418941 0.483786 0.193686
H21   H     H_    0.820378 0.634977 0.610649 0.148732
H22   H     H_    0.919805 0.451518 0.443546 0.198269
H23   H     H_    0.843855 0.384575 0.823386 0.106729
H24   H     H_    0.916307 0.438908 0.977866 0.108183
N1    N     N_2   0.152660 0.501340 0.501130 -0.356139
N2    N     N_2   0.846520 0.501370 0.501160 -0.366684
O1    O     O_R   0.382960 0.678040 0.499980 -0.473369
O2    O     O_R   0.617100 0.678080 0.500020 -0.493609
O3    O     O_R   0.325800 0.499940 0.650950 -0.496638
O4    O     O_R   0.559930 0.499980 0.650990 -0.504058
O5    O     O_R   0.382900 0.321920 0.499980 -0.512995
O6    O     O_R   0.617040 0.321960 0.500020 -0.500062
O7    O     O_R   0.440070 0.500020 0.349010 -0.497188
O8    O     O_R   0.674200 0.500060 0.349050 -0.502512

loop_
_geom_bond_atom_site_label_1
_geom_bond_atom_site_label_2
_ccdc_geom_bond_type
C12   C17   A    
C25   C31   S    
C2    C4    S    
C23   C30   A    
C13   C28   A    
C6    C7    D    
C9    H21   S    
C5    H12   S    
C4    O4    A    
C13   C32   A    
C26   H17   S    
C22   H9    S    
C12   C23   A    
C14   C31   A    
Cu1   O3    S    
C3    C6    S    
C1    O2    A    
C9    N2    D    
C26   H16   S    
Cu2   O4    S    
Cu1   Cu2   S    
Cu1   O5    S    
C5    C10   S    
Cu1   N1    S    
C14   C32   A    
C17   H3    S    
C21   C22   A    
C11   O8    A    
Cu2   N2    S    
C2    C15   A    
C4    O3    A    
Cu2   O6    S    
C29   C30   A    
C18   C24   A    
C15   C16   A    
C28   C29   A    
H22   N2    S    
C11   O7    A    
C30   H5    S    
C20   H7    S    
H20   N1    S    
C10   O6    A    
C8    N1    D    
C24   H10   S    
C11   C14   S    
C22   C24   A    
C10   O5    A    
C19   H6    S    
C7    H19   S    
C12   C27   A    
C27   C31   A    
C21   H8    S    
C32   H1    S    
C25   H11   S    
C15   H2    S    
Cu2   O2    S    
C16   H4    S    
C20   C21   A    
Cu1   O7    S    
C2    C23   A    
Cu1   O1    S    
C18   C19   A    
C26   H15   S    
Cu2   O8    S    
C27   C28   A    
C25   H13   S    
C16   C17   A    
C13   H24   S    
C6    H18   S    
C1    C7    S    
C25   H14   S    
C3    C26   S    
C8    C18   S    
C19   C20   A    
C29   H23   S    
C8    C9    S    
C3    C5    D    
C1    O1    A    
