data_mof_unit_42249.cif
_audit_creation_date              2012-12-10T17:31:03-0500
_audit_creation_method            fapswitch 2.2
_symmetry_space_group_name_H-M    P1
_symmetry_Int_Tables_number       1
_space_group_crystal_system       triclinic
_cell_length_a                    12.111018
_cell_length_b                    12.791201
_cell_length_c                    15.491932
_cell_angle_alpha                 85.949632
_cell_angle_beta                  115.822509
_cell_angle_gamma                 94.082825
_cell_volume                      2152.70502852

loop_
_atom_site_label
_atom_site_type_symbol
_atom_type_description
_atom_site_fract_x
_atom_site_fract_y
_atom_site_fract_z
_atom_type_partial_charge
C1    C     C_R   0.477062 0.299878 0.499529 0.994230
C2    C     C_R   0.632973 0.951586 0.615328 0.556861
C3    C     C_R   0.361137 0.147769 0.415699 -0.449373
C4    C     C_R   0.628418 0.847159 0.594406 -0.324574
C5    C     C_R   0.548575 0.126033 0.562681 0.436308
C6    C     C_R   0.454622 0.875020 0.438408 0.444589
C7    C     C_R   0.544978 0.018749 0.547301 -0.197884
C8    C     C_R   0.451140 0.978430 0.460334 -0.122396
C9    C     C_R   0.023146 0.623161 0.439142 -0.411511
C10   C     C_R   0.982131 0.382212 0.568758 -0.429113
C11   C     C_R   0.137993 0.607891 0.439346 0.489895
C12   C     C_R   0.522965 0.699804 0.500917 0.883167
C13   C     C_R   0.865854 0.396036 0.566355 0.507502
C14   C     C_R   0.148420 0.442083 0.521210 0.568823
C15   C     C_R   0.850800 0.558045 0.478248 0.578968
C16   C     C_R   0.576900 0.496465 0.680094 0.940796
C17   C     C_R   0.422689 0.501658 0.319979 0.892758
C18   C     C_R   0.032803 0.455668 0.522652 -0.112770
C19   C     C_R   0.968406 0.546505 0.479597 -0.109831
C20   C     C_R   0.627478 0.505304 0.783724 -0.196729
C21   C     C_R   0.370655 0.484194 0.217373 -0.186914
C22   C     C_R   0.766319 0.594381 0.927504 0.378093
C23   C     C_R   0.604962 0.591477 0.085058 -0.330741
C24   C     C_R   0.250016 0.372235 0.084640 0.383650
C25   C     C_R   0.740311 0.559007 0.835878 0.369674
C26   C     C_R   0.271603 0.412128 0.173772 0.387480
C27   C     C_R   0.552143 0.471452 0.827244 -0.285329
C28   C     C_R   0.435900 0.526655 0.168369 -0.307035
C29   C     C_R   0.578977 0.498590 0.920153 -0.015455
C30   C     C_R   0.423082 0.485380 0.083164 -0.001840
C31   C     C_R   0.682438 0.567467 0.968058 -0.081505
C32   C     C_R   0.329392 0.405611 0.041137 -0.089813
C33   C     C_R   0.497759 0.466199 0.961882 0.041050
C34   C     C_R   0.408108 0.384331 0.924332 -0.331597
C35   C     C_R   0.507599 0.515867 0.043523 0.052847
C36   C     C_3   0.881897 0.633178 0.178151 -0.244038
C37   C     C_3   0.148817 0.305843 0.829666 -0.231158
C38   C     C_3   0.103697 0.431694 0.198836 -0.320874
C39   C     C_3   0.905524 0.512921 0.817434 -0.264909
C40   C     C_3   0.153413 0.989721 0.333076 -0.215275
C41   C     C_3   0.832800 0.965736 0.731237 -0.277444
C42   C     C_3   0.725795 0.656744 0.347225 -0.277905
C43   C     C_3   0.157502 0.272493 0.492176 -0.296419
C44   C     C_R   0.695470 0.611673 0.052789 0.562709
C45   C     C_R   0.321384 0.357334 0.959450 0.562827
C46   C     C_R   0.541200 0.810334 0.507735 -0.233196
C47   C     C_R   0.458844 0.188693 0.495121 -0.184959
C48   C     C_R   0.354967 0.042507 0.398057 0.614693
H1    H     H_    0.977452 0.694975 0.406844 0.184531
H2    H     H_    0.848399 0.599690 0.231018 0.116346
H3    H     H_    0.958204 0.690959 0.214847 0.201067
H4    H     H_    0.188502 0.321238 0.777166 0.150950
H5    H     H_    0.102567 0.376177 0.833792 0.144888
H6    H     H_    0.077665 0.241441 0.802612 0.184689
H7    H     H_    0.880524 0.273411 0.651103 0.294783
H8    H     H_    0.132806 0.740275 0.367914 0.316663
H9    H     H_    0.131445 0.515204 0.216545 0.199342
H10   H     H_    0.053414 0.400896 0.241077 0.174220
H11   H     H_    0.039440 0.426750 0.121414 0.161644
H12   H     H_    0.032845 0.314446 0.607578 0.183868
H13   H     H_    0.964897 0.535205 0.780545 0.185235
H14   H     H_    0.862146 0.434036 0.793391 0.205652
H15   H     H_    0.965405 0.509061 0.896064 0.153919
H16   H     H_    0.913474 0.677199 0.936351 0.366544
H17   H     H_    0.115915 0.275485 0.083388 0.370192
H18   H     H_    0.401915 0.774204 0.336790 0.319083
H19   H     H_    0.719372 0.153014 0.642379 0.365127
H20   H     H_    0.170551 0.937502 0.397908 0.144025
H21   H     H_    0.079523 0.950989 0.270733 0.201194
H22   H     H_    0.119720 0.065949 0.339954 0.130937
H23   H     H_    0.502543 0.587445 0.203451 0.151295
H24   H     H_    0.892009 0.016254 0.791079 0.210910
H25   H     H_    0.857375 0.986716 0.670485 0.132587
H26   H     H_    0.853990 0.883082 0.757116 0.191466
H27   H     H_    0.635448 0.688693 0.330019 0.185579
H28   H     H_    0.709696 0.579546 0.313318 0.134203
H29   H     H_    0.772111 0.712735 0.314286 0.164031
H30   H     H_    0.213811 0.202384 0.519389 0.199781
H31   H     H_    0.156248 0.298178 0.421531 0.174790
H32   H     H_    0.062920 0.247794 0.481793 0.144626
H33   H     H_    0.466112 0.431536 0.783323 0.195332
H34   H     H_    0.616205 0.637165 0.143973 0.155291
H35   H     H_    0.406370 0.335667 0.869592 0.178889
H36   H     H_    0.687331 0.792285 0.648771 0.195574
H37   H     H_    0.292947 0.198826 0.364076 0.219294
H38   H     H_    0.919044 0.570191 0.154015 0.163379
N1    N     N_R   0.799120 0.480200 0.517090 -0.144070
N2    N     N_R   0.200880 0.519800 0.482910 -0.147915
O1    O     O_R   0.580150 0.341050 0.504560 -0.554360
O2    O     O_3   0.238880 0.273779 0.920726 -0.533524
O3    O     O_3   0.819679 0.327255 0.616115 -0.729718
O4    O     O_3   0.187500 0.680536 0.394497 -0.712047
O5    O     O_3   0.206494 0.370619 0.223622 -0.623036
O6    O     O_3   0.816823 0.589210 0.792541 -0.617873
O7    O     O_3   0.869457 0.658080 0.976452 -0.718638
O8    O     O_3   0.156863 0.297302 0.041579 -0.708105
O9    O     O_3   0.371685 0.838128 0.350399 -0.675970
O10   O     O_3   0.640942 0.173294 0.640354 -0.690694
O11   O     O_3   0.259009 0.004800 0.316200 -0.524640
O12   O     O_R   0.419850 0.658950 0.495440 -0.547391
O13   O     O_3   0.708778 0.983777 0.707258 -0.567169
O14   O     O_3   0.794055 0.652421 0.447813 -0.583696
O15   O     O_3   0.210094 0.351148 0.560102 -0.590850
O16   O     O_R   0.388090 0.353760 0.493600 -0.596605
O17   O     O_R   0.611910 0.646240 0.506400 -0.570944
O18   O     O_R   0.650890 0.490020 0.640860 -0.545663
O19   O     O_R   0.349110 0.509980 0.359140 -0.569219
O20   O     O_R   0.458830 0.502730 0.629890 -0.613017
O21   O     O_R   0.541170 0.497270 0.370110 -0.636945
O22   O     O_3   0.788960 0.684781 0.099420 -0.543570
Zn1   Zn    Zn3+2 0.628240 0.491510 0.507320 1.041781
Zn2   Zn    Zn3+2 0.371760 0.508490 0.492680 1.035618

loop_
_geom_bond_atom_site_label_1
_geom_bond_atom_site_label_2
_ccdc_geom_bond_type
C21   C26   A    
C23   H34   S    
C3    H37   S    
O19   Zn2   S    
C14   C18   A    
C2    C4    A    
C2    C7    A    
C40   H21   S    
C40   O11   S    
C8    C48   A    
C7    C8    A    
C4    C46   A    
C43   H30   S    
C15   C19   A    
C5    C47   A    
C42   H27   S    
C40   H22   S    
C37   O2    S    
H18   O9    S    
C24   C26   A    
C17   O19   A    
C12   O17   A    
N1    Zn1   S    
C20   C25   A    
C43   H31   S    
C29   C33   A    
C3    C48   A    
C27   C29   A    
C18   C19   A    
C32   C45   A    
C3    C47   A    
C39   H14   S    
H7    O3    S    
H19   O10   S    
C41   H26   S    
C38   H10   S    
O16   Zn2   S    
C11   O4    S    
C9    C19   A    
H17   O8    S    
C22   C25   A    
C16   O18   A    
C37   H5    S    
C26   O5    S    
O17   Zn1   S    
C25   O6    S    
C13   O3    S    
C42   O14   S    
O18   Zn1   S    
C39   H13   S    
C22   C31   A    
C6    O9    S    
C27   H33   S    
C9    H1    S    
C12   C46   S    
C31   C44   A    
C5    C7    A    
C37   H4    S    
C1    C47   S    
C6    C8    A    
C2    O13   S    
C36   H38   S    
C43   H32   S    
C17   C21   S    
C23   C44   A    
O20   Zn2   S    
C10   H12   S    
C24   C32   A    
C39   O6    S    
C38   H9    S    
C4    H36   S    
C11   N2    A    
C16   C20   S    
C13   N1    A    
C33   C34   A    
C34   C45   A    
C45   O2    S    
C9    C11   A    
C1    O16   A    
C36   H3    S    
C41   H24   S    
C37   H6    S    
C30   C35   A    
C21   C28   A    
O12   Zn2   S    
C23   C35   A    
C36   O22   S    
C28   H23   S    
C34   H35   S    
C36   H2    S    
C15   N1    A    
C48   O11   S    
C1    O1    A    
C6    C46   A    
H16   O7    S    
C10   C13   A    
C17   O21   A    
C20   C27   A    
C39   H15   S    
O1    Zn1   S    
C42   H28   S    
C24   O8    S    
C14   N2    A    
C29   C31   A    
C30   C32   A    
C14   O15   S    
C10   C18   A    
O21   Zn1   S    
C38   O5    S    
C28   C30   A    
C33   C35   A    
C41   O13   S    
C15   O14   S    
C43   O15   S    
C12   O12   A    
C16   O20   A    
C41   H25   S    
C38   H11   S    
N2    Zn2   S    
C22   O7    S    
H8    O4    S    
C5    O10   S    
C42   H29   S    
C40   H20   S    
C44   O22   S    
