data_mof_unit_15787.cif
_audit_creation_date              2012-10-26T19:59:14-0400
_audit_creation_method            fapswitch 2.2
_symmetry_space_group_name_H-M    P1
_symmetry_Int_Tables_number       1
_space_group_crystal_system       triclinic
_cell_length_a                    7.489488
_cell_length_b                    8.730131
_cell_length_c                    15.889319
_cell_angle_alpha                 95.279137
_cell_angle_beta                  75.784652
_cell_angle_gamma                 102.577309
_cell_volume                      982.115872654

loop_
_atom_site_label
_atom_site_type_symbol
_atom_type_description
_atom_site_fract_x
_atom_site_fract_y
_atom_site_fract_z
_atom_type_partial_charge
C1    C     C_R   0.542953 0.799628 0.504363 0.517817
C2    C     C_R   0.615762 0.509441 0.333724 0.538738
C3    C     C_R   0.318895 0.459170 0.760643 0.022432
C4    C     C_R   0.691251 0.516595 0.238269 0.002965
C5    C     C_R   0.115118 0.302119 0.878003 -0.089240
C6    C     C_R   0.944666 0.595514 0.112241 -0.089361
C7    C     C_R   0.149282 0.355767 0.794631 0.268710
C8    C     C_R   0.885298 0.570452 0.200716 0.229181
C9    C     C_R   0.443529 0.517265 0.814970 -0.112708
C10   C     C_R   0.566787 0.470638 0.182741 -0.095847
C11   C     C_R   0.422018 0.452604 0.896267 0.029667
C12   C     C_R   0.455049 0.200218 0.497793 0.521141
C13   C     C_R   0.630891 0.482090 0.091779 0.038091
C14   C     C_R   0.251363 0.344286 0.927272 -0.055018
C15   C     C_R   0.817291 0.559045 0.058948 -0.044861
C16   C     C_R   0.561148 0.488737 0.947990 0.033299
C17   C     C_R   0.511714 0.427734 0.033236 0.025339
C18   C     C_3   0.975690 0.742050 0.620942 0.076318
C19   C     C_3   0.942046 0.910305 0.626018 -0.258026
C20   C     C_3   0.757130 0.927375 0.690257 -0.403206
C21   C     C_3   0.982638 0.224299 0.407833 0.051193
C22   C     C_3   0.122804 0.168913 0.330995 -0.267024
C23   C     C_R   0.354505 0.303459 0.054300 0.229227
C24   C     C_3   0.091863 0.990115 0.324897 -0.409202
C25   C     C_R   0.751497 0.571361 0.918766 0.252451
C26   C     C_R   0.222054 0.269190 0.004404 -0.077818
C27   C     C_R   0.876075 0.599338 0.973055 -0.076657
C28   C     C_2   0.562817 0.966890 0.510709 -0.168050
C29   C     C_2   0.430571 0.032513 0.495386 -0.155390
C30   C     C_R   0.385403 0.487959 0.666278 0.541757
Cl1   Cl    Cl    0.063454 0.613683 0.259025 -0.585329
Cl2   Cl    Cl    0.977974 0.284631 0.734778 -0.615066
Cl3   Cl    Cl    0.349979 0.155603 0.123455 -0.688546
Cl4   Cl    Cl    0.866091 0.624912 0.813369 -0.708687
Cu1   Cu    Cu3+1 0.322120 0.483240 0.490330 1.102576
Cu2   Cu    Cu3+1 0.677880 0.516760 0.509670 1.097559
H1    H     H_    0.100891 0.174871 0.023099 0.160700
H2    H     H_    0.847941 0.663454 0.655982 0.215475
H3    H     H_    0.060729 0.993069 0.646313 0.180325
H4    H     H_    0.939534 0.945271 0.561023 0.177908
H5    H     H_    0.638430 0.834545 0.677661 0.140790
H6    H     H_    0.722523 0.041945 0.683184 0.201983
H7    H     H_    0.769440 0.919915 0.757924 0.206605
H8    H     H_    0.841837 0.166058 0.398208 0.141531
H9    H     H_    0.995069 0.184408 0.470358 0.127879
H10   H     H_    0.101788 0.211171 0.271095 0.233691
H11   H     H_    0.268894 0.218038 0.336486 0.204923
H12   H     H_    0.021435 0.656615 0.948080 0.157724
H13   H     H_    0.095024 0.943765 0.387116 0.171141
H14   H     H_    0.204842 0.953110 0.272855 0.246060
H15   H     H_    0.953789 0.938998 0.309272 0.181728
H16   H     H_    0.418571 0.430629 0.210853 0.200058
H17   H     H_    0.553718 0.614446 0.791604 0.176004
H18   H     H_    0.984777 0.220372 0.902743 0.159276
H19   H     H_    0.091385 0.645587 0.085061 0.157388
H20   H     H_    0.687550 0.036891 0.528288 0.106501
H21   H     H_    0.303513 0.962465 0.479679 0.154340
H22   H     H_    0.089594 0.741094 0.654269 0.176809
N1    N     N_2   0.945180 0.542040 0.524240 0.099461
N2    N     N_2   0.054820 0.457960 0.475760 0.121541
O1    O     O_R   0.384450 0.714270 0.493720 -0.460455
O2    O     O_3   0.994793 0.387291 0.406005 -0.407474
O3    O     O_R   0.615550 0.285730 0.506280 -0.507197
O4    O     O_R   0.684880 0.742590 0.510050 -0.505819
O5    O     O_R   0.315120 0.257410 0.489950 -0.540891
O6    O     O_R   0.265540 0.477900 0.617090 -0.451259
O7    O     O_R   0.734460 0.522100 0.382910 -0.402614
O8    O     O_R   0.565970 0.506210 0.633420 -0.535028
O9    O     O_R   0.434030 0.493790 0.366580 -0.498901
O10   O     O_3   0.034750 0.691495 0.533961 -0.468627

loop_
_geom_bond_atom_site_label_1
_geom_bond_atom_site_label_2
_ccdc_geom_bond_type
C27   H12   S    
C18   O10   S    
C3    C30   S    
C20   H6    S    
Cu2   O8    S    
C26   H1    S    
C3    C9    A    
C12   C29   S    
C1    C28   S    
C2    O9    A    
C12   O5    A    
C6    H19   S    
C15   C27   A    
Cu1   Cu2   S    
C13   C17   A    
C25   Cl4   S    
C4    C8    A    
Cu2   N1    S    
C10   H16   S    
C24   H15   S    
C20   H5    S    
C18   H2    S    
Cu2   O7    S    
N1    N2    D    
Cu1   O1    S    
C30   O6    A    
C21   C22   S    
C14   C26   A    
C24   H14   S    
C9    C11   A    
C5    C14   A    
C17   C23   A    
C19   H3    S    
C21   H9    S    
C2    C4    S    
C22   H11   S    
C28   C29   D    
C22   H10   S    
C29   H21   S    
C2    O7    A    
C3    C7    A    
C13   C15   A    
C28   H20   S    
C11   C14   A    
C22   C24   S    
C25   C27   A    
C19   H4    S    
Cu1   O5    S    
N1    O10   S    
C4    C10   A    
C21   H8    S    
C1    O4    A    
C5    H18   S    
C24   H13   S    
C20   H7    S    
C9    H17   S    
Cu1   O9    S    
N2    O2    S    
C18   C19   S    
C11   C16   A    
C23   C26   A    
C16   C25   A    
C5    C7    A    
C12   O3    A    
Cu1   N2    S    
C6    C8    A    
C7    Cl2   S    
Cu1   O6    S    
C21   O2    S    
C6    C15   A    
Cu2   O4    S    
C8    Cl1   S    
C18   H22   S    
Cu2   O3    S    
C30   O8    A    
C19   C20   S    
C16   C17   A    
C23   Cl3   S    
C10   C13   A    
C1    O1    A    
