data_mof_unit_38165.cif
_audit_creation_date              2012-12-10T18:33:44-0500
_audit_creation_method            fapswitch 2.2
_symmetry_space_group_name_H-M    P1
_symmetry_Int_Tables_number       1
_space_group_crystal_system       triclinic
_cell_length_a                    10.572086
_cell_length_b                    14.906494
_cell_length_c                    15.200331
_cell_angle_alpha                 82.601722
_cell_angle_beta                  88.621225
_cell_angle_gamma                 104.206298
_cell_volume                      2299.008953

loop_
_atom_site_label
_atom_site_type_symbol
_atom_type_description
_atom_site_fract_x
_atom_site_fract_y
_atom_site_fract_z
_atom_type_partial_charge
C1    C     C_R   0.472461 0.441155 0.663255 1.004124
C2    C     C_R   0.383139 0.516493 0.036808 0.101999
C3    C     C_R   0.282215 0.437360 0.067056 -0.238348
C4    C     C_R   0.478847 0.629481 0.911834 -0.267429
C5    C     C_R   0.238447 0.368880 0.011835 0.546549
C6    C     C_R   0.518608 0.697998 0.968356 0.531655
C7    C     C_R   0.740479 0.852816 0.600882 0.385194
C8    C     C_R   0.262084 0.148694 0.395177 0.384571
C9    C     C_R   0.687865 0.759213 0.592073 -0.035923
C10   C     C_R   0.313648 0.241768 0.406081 -0.061661
C11   C     C_R   0.503355 0.792149 0.523735 0.132855
C12   C     C_R   0.524820 0.558543 0.335927 0.972640
C13   C     C_R   0.495343 0.207432 0.477239 0.161853
C14   C     C_R   0.546276 0.887666 0.533021 -0.096161
C15   C     C_R   0.453798 0.112714 0.465371 -0.080324
C16   C     C_R   0.742662 0.500656 0.499531 1.017548
C17   C     C_R   0.257482 0.498473 0.502899 1.007323
C18   C     C_R   0.673087 0.920270 0.564932 -0.123374
C19   C     C_R   0.328327 0.080785 0.431612 -0.105289
C20   C     C_R   0.470264 0.951741 0.504908 -0.019880
C21   C     C_R   0.530065 0.048700 0.492403 -0.032272
C22   C     C_R   0.664988 0.079109 0.505504 0.299740
C23   C     C_R   0.477019 0.465563 0.819211 0.331087
C24   C     C_R   0.335464 0.921806 0.490769 0.317490
C25   C     C_R   0.729958 0.017879 0.553322 0.426790
C26   C     C_R   0.271434 0.983371 0.442218 0.423040
C27   C     C_3   0.928301 0.429648 0.565595 -0.402905
C28   C     C_3   0.071919 0.568351 0.442167 -0.381619
C29   C     C_3   0.041178 0.511786 0.584857 0.402570
C30   C     C_3   0.960495 0.486120 0.422859 0.428771
C31   C     C_3   0.122976 0.497532 0.505445 -0.291262
C32   C     C_3   0.877333 0.500312 0.501411 -0.277037
C33   C     C_3   0.012326 0.417125 0.485822 0.418291
C34   C     C_R   0.486776 0.536126 0.177021 0.354310
C35   C     C_3   0.988288 0.580857 0.521895 0.414428
C36   C     C_R   0.429629 0.405337 0.757594 -0.324833
C37   C     C_R   0.537130 0.596260 0.239398 -0.346215
C38   C     C_R   0.290752 0.300678 0.878724 0.358632
C39   C     C_R   0.557741 0.731774 0.123966 0.351743
C40   C     C_R   0.333794 0.319957 0.787533 0.315687
C41   C     C_R   0.585246 0.693804 0.209817 0.279356
C42   C     C_R   0.398462 0.461830 0.895973 -0.095378
C43   C     C_R   0.452412 0.574794 0.094364 -0.138296
C44   C     C_R   0.306739 0.376345 0.928743 -0.109832
C45   C     C_R   0.506917 0.670301 0.062201 -0.124592
C46   C     C_R   0.420225 0.536420 0.946818 0.111993
H1    H     H_    0.577064 0.232809 0.516310 0.193139
H2    H     H_    0.022581 0.458890 0.192493 0.384276
H3    H     H_    0.016726 0.799818 0.720250 0.400517
H4    H     H_    0.998535 0.206183 0.264797 0.406726
H5    H     H_    0.827006 0.165671 0.453962 0.392521
H6    H     H_    0.172868 0.837767 0.542787 0.382073
H7    H     H_    0.994782 0.285276 0.516674 0.344003
H8    H     H_    0.039924 0.689958 0.579719 0.384819
H9    H     H_    0.095179 0.302034 0.097076 0.360327
H10   H     H_    0.585906 0.793856 0.866753 0.349897
H11   H     H_    0.384703 0.281116 0.208496 0.404987
H12   H     H_    0.420555 0.765903 0.485969 0.207874
H13   H     H_    0.739777 0.663038 0.810122 0.405368
H14   H     H_    0.707271 0.855700 0.368507 0.383249
H15   H     H_    0.188114 0.252425 0.583302 0.377623
H16   H     H_    0.291790 0.052491 0.912488 0.407512
H17   H     H_    0.551225 0.964662 0.176741 0.398975
H18   H     H_    0.860011 0.118793 0.593151 0.346968
H19   H     H_    0.140138 0.882736 0.403025 0.366979
H20   H     H_    0.261642 0.293934 0.384725 0.251890
H21   H     H_    0.741611 0.707853 0.611826 0.262972
H22   H     H_    0.867759 0.373121 0.615002 0.230234
H23   H     H_    0.132195 0.625027 0.392758 0.222609
H24   H     H_    0.238339 0.429165 0.133620 0.201459
H25   H     H_    0.491559 0.649129 0.840619 0.190221
H26   H     H_    0.025889 0.573374 0.809297 0.396143
N1    N     N_R   0.574200 0.731700 0.552740 -0.156219
N2    N     N_R   0.425800 0.268300 0.447260 -0.149903
O1    O     O_R   0.462600 0.383110 0.605620 -0.576914
O2    O     O_2   0.227043 0.602442 0.682971 -0.310918
O3    O     O_3   0.989032 0.566401 0.750541 -0.446254
O4    O     O_2   0.830738 0.367777 0.318844 -0.194381
O5    O     O_2   0.847074 0.535690 0.274834 -0.241467
O6    O     O_3   0.053629 0.474225 0.251026 -0.539725
O7    O     O_2   0.998688 0.932072 0.588250 -0.207751
O8    O     O_2   0.878668 0.935199 0.727805 -0.181059
O9    O     O_3   0.927813 0.779332 0.698927 -0.548206
O10   O     O_2   0.131845 0.067029 0.264850 -0.176094
O11   O     O_2   0.003426 0.073084 0.399923 -0.218262
O12   O     O_R   0.537400 0.616890 0.394380 -0.576469
O13   O     O_3   0.085672 0.225210 0.289135 -0.524844
O14   O     O_3   0.734497 0.166303 0.464793 -0.749437
O15   O     O_3   0.264588 0.835372 0.531929 -0.775628
O16   O     O_3   0.028412 0.332131 0.463777 -0.674624
O17   O     O_3   0.970221 0.666595 0.540024 -0.673132
O18   O     O_3   0.130423 0.295634 0.037784 -0.647492
O19   O     O_3   0.584600 0.787676 0.932550 -0.648131
O20   O     O_2   0.550498 0.400328 0.095535 -0.236145
O21   O     O_2   0.619979 0.409976 0.245486 -0.172621
O22   O     O_3   0.374704 0.341043 0.225580 -0.564459
O23   O     O_R   0.510210 0.531900 0.639510 -0.572875
O24   O     O_2   0.693967 0.510917 0.909719 -0.235321
O25   O     O_2   0.719055 0.460458 0.765013 -0.229135
O26   O     O_3   0.687260 0.626722 0.767518 -0.554320
O27   O     O_2   0.782627 0.703253 0.321204 -0.249112
O28   O     O_2   0.800478 0.837356 0.207473 -0.174278
O29   O     O_3   0.634229 0.814809 0.341725 -0.524155
O30   O     O_2   0.365355 0.196064 0.680558 -0.278624
O31   O     O_2   0.149231 0.164607 0.756876 -0.162093
O32   O     O_3   0.206700 0.297303 0.626882 -0.542032
O33   O     O_2   0.299340 0.181680 0.026849 -0.224050
O34   O     O_R   0.489790 0.468100 0.360490 -0.550204
O35   O     O_2   0.105635 0.144016 0.940022 -0.144749
O36   O     O_3   0.323606 0.116425 0.879781 -0.464794
O37   O     O_2   0.690197 0.906172 0.054921 -0.145498
O38   O     O_2   0.452690 0.865788 0.042526 -0.230697
O39   O     O_3   0.540086 0.896887 0.195383 -0.486037
O40   O     O_3   0.851892 0.053264 0.583003 -0.637412
O41   O     O_3   0.149524 0.948710 0.412100 -0.631646
O42   O     O_R   0.662240 0.425610 0.483080 -0.615960
O43   O     O_R   0.337760 0.574390 0.516920 -0.617903
O44   O     O_R   0.709860 0.574400 0.516970 -0.565224
O45   O     O_R   0.290140 0.425600 0.483030 -0.591559
O46   O     O_2   0.117141 0.439398 0.739831 -0.283557
S1    S     S_3+6 0.099000 0.529747 0.692237 0.056072
S2    S     S_3+6 0.561270 0.853036 0.101188 0.160994
S3    S     S_3+6 0.916985 0.464972 0.314041 0.123129
S4    S     S_3+6 0.890331 0.878263 0.654634 0.102865
S5    S     S_3+6 0.116707 0.124983 0.336513 0.112316
S6    S     S_3+6 0.512562 0.420332 0.185647 0.093689
S7    S     S_3+6 0.648947 0.515185 0.816471 0.082662
S8    S     S_3+6 0.706405 0.763316 0.270076 0.138766
S9    S     S_3+6 0.262949 0.240130 0.713400 0.121416
S10   S     S_3+6 0.251292 0.183426 0.934463 0.176201
Zn1   Zn    Zn3+2 0.468210 0.400660 0.477370 1.074885
Zn2   Zn    Zn3+2 0.531790 0.599340 0.522630 1.077406

loop_
_geom_bond_atom_site_label_1
_geom_bond_atom_site_label_2
_ccdc_geom_bond_type
O32   S9    S    
C30   C32   S    
C40   S9    S    
C6    C45   A    
C27   C29   S    
C34   C37   A    
C14   C18   A    
O11   S5    D    
C28   H23   S    
C7    S4    S    
O12   Zn2   S    
C24   O15   S    
C39   C41   A    
C4    C46   A    
C27   C33   S    
C15   C19   A    
H9    O18   S    
C23   C42   A    
C42   C44   A    
O2    S1    D    
C38   S10   S    
C23   S7    S    
C24   C26   A    
O28   S8    D    
C11   C14   A    
O26   S7    S    
O27   S8    D    
C42   C46   A    
C12   C37   S    
O43   Zn2   S    
C19   C26   A    
C26   O41   S    
O34   Zn1   S    
C27   H22   S    
O39   S2    S    
C20   C24   A    
C28   C35   S    
O35   S10   D    
H11   O22   S    
C29   S1    S    
O45   Zn1   S    
C31   C33   S    
C22   O14   S    
O9    S4    S    
H14   O29   S    
C17   O43   A    
C39   C45   A    
C6    O19   S    
O20   S6    D    
N1    Zn2   S    
N2    Zn1   S    
O37   S2    D    
H13   O26   S    
H19   O41   S    
C41   S8    S    
H6    O15   S    
C18   C25   A    
C9    N1    A    
O33   S10   D    
C16   O42   A    
O8    S4    D    
O1    Zn1   S    
C10   H20   S    
H10   O19   S    
C8    C19   A    
H18   O40   S    
O7    S4    D    
C1    O1    A    
C32   C35   S    
C14   C20   A    
C36   C40   A    
C3    H24   S    
O44   Zn2   S    
C4    C6    A    
C11   N1    A    
C1    O23   A    
C12   O34   A    
O25   S7    D    
O5    S3    D    
C22   C25   A    
C2    C46   A    
C9    H21   S    
C38   C44   A    
H26   O3    S    
O4    S3    D    
C16   O44   A    
C43   C45   A    
H16   O36   S    
C2    C43   A    
C34   S6    S    
C7    C18   A    
O22   S6    S    
C13   N2    A    
H15   O32   S    
C39   S2    S    
H4    O13   S    
O24   S7    D    
C5    C44   A    
O30   S9    D    
C13   C15   A    
C17   C31   S    
C11   H12   S    
O13   S5    S    
O46   S1    D    
C13   H1    S    
O10   S5    D    
C7    C9    A    
O29   S8    S    
C30   C33   S    
C27   C32   S    
C28   C31   S    
C34   C43   A    
O23   Zn2   S    
C3    C5    A    
H5    O14   S    
O31   S9    D    
C16   C32   S    
O38   S2    D    
C29   C35   S    
C12   O12   A    
C21   C22   A    
H3    O9    S    
C28   C30   S    
C2    C3    A    
H8    O17   S    
C29   C31   S    
C33   O16   S    
C38   C40   A    
C10   N2    A    
O21   S6    D    
H2    O6    S    
O42   Zn1   S    
O36   S10   S    
C37   C41   A    
C5    O18   S    
O3    S1    S    
C17   O45   A    
H17   O39   S    
C8    S5    S    
C15   C21   A    
C20   C21   A    
C8    C10   A    
C23   C36   A    
H7    O16   S    
C30   S3    S    
C25   O40   S    
C4    H25   S    
C1    C36   S    
O6    S3    S    
C35   O17   S    
