data_mof_unit_57168.cif
_audit_creation_date              2012-12-10T17:45:34-0500
_audit_creation_method            fapswitch 2.2
_symmetry_space_group_name_H-M    P1
_symmetry_Int_Tables_number       1
_space_group_crystal_system       triclinic
_cell_length_a                    11.532512
_cell_length_b                    10.645138
_cell_length_c                    9.950781
_cell_angle_alpha                 89.832435
_cell_angle_beta                  89.695954
_cell_angle_gamma                 91.503929
_cell_volume                      1221.16569696

loop_
_atom_site_label
_atom_site_type_symbol
_atom_type_description
_atom_site_fract_x
_atom_site_fract_y
_atom_site_fract_z
_atom_type_partial_charge
C1    C     C_R   0.503406 0.261061 0.500111 0.835747
C2    C     C_R   0.504449 0.872289 0.499463 -0.163796
C3    C     C_R   0.350232 0.333264 0.140935 -0.129902
C4    C     C_R   0.282115 0.498142 0.500328 0.941400
C5    C     C_R   0.277013 0.250616 0.071580 -0.150889
C6    C     C_R   0.276915 0.250805 0.932477 -0.169083
C7    C     C_R   0.350146 0.333543 0.861820 -0.141699
C8    C     C_R   0.426535 0.417684 0.928552 0.168091
C9    C     C_R   0.426581 0.417618 0.072899 0.145943
C10   C     C_R   0.569719 0.580010 0.069775 0.006163
C11   C     C_R   0.569409 0.579473 0.927001 -0.128080
C12   C     C_R   0.793718 0.069976 0.663044 -0.183624
C13   C     C_R   0.500548 0.739328 0.499772 0.924671
C14   C     C_R   0.717861 0.500284 0.499699 0.872824
C15   C     C_1   0.161537 0.497461 0.500840 -0.126424
C16   C     C_1   0.059289 0.497563 0.500466 0.014845
C17   C     C_1   0.940577 0.498309 0.499609 0.043217
C18   C     C_1   0.838358 0.499260 0.499226 -0.100743
C19   C     C_R   0.700262 0.133897 0.610493 -0.188241
C20   C     C_2   0.893832 0.869823 0.716534 0.922814
C21   C     C_2   0.307411 0.873080 0.381479 0.952344
C22   C     C_2   0.646537 0.671390 0.137551 0.964046
C23   C     C_R   0.793984 0.938496 0.661858 0.019474
C24   C     C_R   0.698595 0.872405 0.607243 -0.227901
C25   C     C_R   0.601988 0.936224 0.555407 0.057085
C26   C     C_R   0.603557 0.067642 0.556541 0.115995
C27   C     C_R   0.509166 0.129104 0.499627 -0.092088
C28   C     C_R   0.417203 0.065245 0.439026 -0.252627
C29   C     C_R   0.412180 0.936247 0.439781 -0.025516
H1    H     H_    0.346504 0.117154 0.395930 0.163394
H2    H     H_    0.964580 0.702590 0.757665 0.358164
H3    H     H_    0.180392 0.877786 0.242881 0.355484
H4    H     H_    0.670099 0.848630 0.204826 0.341141
H5    H     H_    0.219233 0.186920 0.878785 0.175725
H6    H     H_    0.343846 0.329350 0.755269 0.198463
H7    H     H_    0.625870 0.644307 0.871716 0.166581
H8    H     H_    0.705453 0.235427 0.611109 0.152604
H9    H     H_    0.866352 0.123833 0.703627 0.177372
H10   H     H_    0.701439 0.771104 0.603961 0.177109
H11   H     H_    0.343790 0.328741 0.247505 0.191441
H12   H     H_    0.219445 0.186555 0.126314 0.183292
N1    N     N_R   0.498930 0.498800 0.142780 -0.161606
N2    N     N_R   0.498900 0.498720 0.857170 -0.125227
O1    O     O_R   0.500000 0.316780 0.614690 -0.642779
O2    O     O_R   0.891436 0.738378 0.718506 -0.817055
O3    O     O_2   0.267803 0.775618 0.430392 -0.639232
O4    O     O_R   0.251280 0.928386 0.272886 -0.803676
O5    O     O_2   0.744162 0.641760 0.169932 -0.615681
O6    O     O_R   0.609630 0.793883 0.157859 -0.786210
O7    O     O_R   0.499990 0.316750 0.385360 -0.634638
O8    O     O_R   0.334450 0.500030 0.614670 -0.629864
O9    O     O_R   0.334440 0.500000 0.385330 -0.618114
O10   O     O_R   0.500010 0.683250 0.614640 -0.608387
O11   O     O_R   0.500000 0.683220 0.385310 -0.587003
O12   O     O_R   0.665560 0.500000 0.614670 -0.616412
O13   O     O_R   0.665550 0.499970 0.385330 -0.584484
O14   O     O_2   0.978478 0.927747 0.760237 -0.624842
Zn1   Zn    Zn3+2 0.500010 0.500020 0.653130 0.959163
Zn2   Zn    Zn3+2 0.499990 0.499980 0.346870 0.991230

loop_
_geom_bond_atom_site_label_1
_geom_bond_atom_site_label_2
_ccdc_geom_bond_type
N1    Zn2   S    
C14   O13   A    
O10   Zn1   S    
C20   C23   S    
C24   C25   A    
C11   N2    A    
C6    C7    A    
C3    C9    A    
O9    Zn2   S    
C20   O14   D    
C10   N1    A    
C1    O7    A    
C14   C18   S    
C1    O1    A    
C22   O5    D    
C20   O2    S    
O13   Zn2   S    
C23   C24   A    
C4    C15   S    
C28   H1    S    
C17   C18   T    
C26   C27   A    
C7    C8    A    
O8    Zn1   S    
C10   C22   S    
C12   C23   A    
C9    N1    A    
C16   C17   S    
C21   C29   S    
C4    O9    A    
C22   O6    S    
O7    Zn2   S    
C12   C19   A    
C11   H7    S    
C3    H11   S    
C14   O12   A    
C2    C25   A    
C13   O10   A    
O11   Zn2   S    
C2    C29   A    
C12   H9    S    
C5    C6    A    
H3    O4    S    
C10   C11   A    
C4    O8    A    
H4    O6    S    
C15   C16   T    
C21   O3    D    
C24   H10   S    
C8    N2    A    
C19   C26   A    
C13   O11   A    
H2    O2    S    
O12   Zn1   S    
C27   C28   A    
C1    C27   S    
C2    C13   S    
C5    H12   S    
C28   C29   A    
C19   H8    S    
N2    Zn1   S    
C21   O4    S    
C25   C26   A    
C7    H6    S    
C6    H5    S    
O1    Zn1   S    
C8    C9    A    
C3    C5    A    
