data_mof_unit_43672.cif
_audit_creation_date              2013-03-05T16:10:56-0500
_audit_creation_method            fapswitch 2.2
_symmetry_space_group_name_H-M    P1
_symmetry_Int_Tables_number       1
_space_group_crystal_system       triclinic
_cell_length_a                    15.643854
_cell_length_b                    14.509399
_cell_length_c                    9.925265
_cell_angle_alpha                 93.773679
_cell_angle_beta                  90.089384
_cell_angle_gamma                 89.620599
_cell_volume                      2247.93027153

loop_
_atom_site_label
_atom_site_type_symbol
_atom_site_description
_atom_site_fract_x
_atom_site_fract_y
_atom_site_fract_z
_atom_type_partial_charge
O1    O     O_R   0.091610 0.408380 0.614620 -0.572736
O2    O     O_R   0.908390 0.591620 0.385380 -0.572731
O3    O     O_R   0.908390 0.591620 0.614620 -0.579020
O4    O     O_R   0.091610 0.408380 0.385380 -0.579032
O5    O     O_R   0.908390 0.408380 0.385380 -0.583710
O6    O     O_R   0.091610 0.591620 0.614620 -0.583690
O7    O     O_R   0.091610 0.591620 0.385380 -0.582892
O8    O     O_R   0.908390 0.408380 0.614620 -0.582916
O9    O     O_R   0.591610 0.908380 0.614620 -0.572736
O10   O     O_R   0.408390 0.091620 0.385380 -0.572731
O11   O     O_R   0.408390 0.091620 0.614620 -0.579020
O12   O     O_R   0.591610 0.908380 0.385380 -0.579032
O13   O     O_R   0.408390 0.908380 0.385380 -0.583710
O14   O     O_R   0.591610 0.091620 0.614620 -0.583689
O15   O     O_R   0.591610 0.091620 0.385380 -0.582892
O16   O     O_R   0.408390 0.908380 0.614620 -0.582916
C1    C     C_R   0.127192 0.388301 0.498049 0.906760
C2    C     C_R   0.872805 0.611692 0.501951 0.906768
C3    C     C_R   0.874252 0.386319 0.496948 0.905925
C4    C     C_R   0.125751 0.613675 0.503052 0.905943
C5    C     C_R   0.627192 0.888301 0.498049 0.906760
C6    C     C_R   0.372805 0.111692 0.501951 0.906768
C7    C     C_R   0.374252 0.886319 0.496948 0.905924
C8    C     C_R   0.625751 0.113675 0.503052 0.905943
N1    N     N_R   1.000000 0.500000 0.857200 -0.221495
N2    N     N_R   1.000000 0.500000 0.142800 -0.221515
N3    N     N_R   0.500000 1.000000 0.857200 -0.221495
N4    N     N_R   0.500000 0.000000 0.142800 -0.221515
Zn1   Zn    Zn3+2 1.000000 0.500000 0.653120 1.037579
Zn2   Zn    Zn3+2 1.000000 0.500000 0.346880 1.037592
Zn3   Zn    Zn3+2 0.500000 1.000000 0.653120 1.037579
Zn4   Zn    Zn3+2 0.500000 1.000000 0.346880 1.037592
C9    C     C_R   0.000649 0.581195 0.081240 0.212700
C10   C     C_R   0.999328 0.418806 0.918767 0.212697
C11   C     C_R   0.004336 0.417909 0.062056 0.166498
C12   C     C_R   0.995663 0.582094 0.937945 0.166408
C13   C     C_R   0.500649 0.081195 0.081240 0.212700
C14   C     C_R   0.499328 0.918806 0.918767 0.212697
C15   C     C_R   0.504336 0.917909 0.062056 0.166498
C16   C     C_R   0.495663 0.082094 0.937945 0.166408
C17   C     C_R   0.782425 0.270297 0.372766 0.153589
C18   C     C_R   0.217590 0.729680 0.627235 0.153629
C19   C     C_R   0.243827 0.685684 0.388449 0.176824
C20   C     C_R   0.756187 0.314293 0.611554 0.176799
C21   C     C_R   0.237748 0.306386 0.618974 0.183104
C22   C     C_R   0.762230 0.693583 0.381038 0.183143
C23   C     C_R   0.771937 0.718206 0.626451 0.162458
C24   C     C_R   0.228046 0.281765 0.373557 0.162444
C25   C     C_R   0.282425 0.770297 0.372766 0.153589
C26   C     C_R   0.717590 0.229680 0.627235 0.153629
C27   C     C_R   0.743827 0.185684 0.388449 0.176824
C28   C     C_R   0.256187 0.814293 0.611554 0.176799
C29   C     C_R   0.737748 0.806386 0.618974 0.183104
C30   C     C_R   0.262230 0.193583 0.381038 0.183143
C31   C     C_R   0.271937 0.218206 0.626451 0.162458
C32   C     C_R   0.728046 0.781765 0.373557 0.162444
C33   C     C_R   0.201375 0.671665 0.510149 -0.170052
C34   C     C_R   0.798635 0.328317 0.489851 -0.170050
C35   C     C_R   0.795684 0.668537 0.505412 -0.180627
C36   C     C_R   0.204303 0.331439 0.494595 -0.180615
C37   C     C_R   0.701375 0.171665 0.510149 -0.170053
C38   C     C_R   0.298635 0.828317 0.489851 -0.170050
C39   C     C_R   0.295684 0.168537 0.505412 -0.180627
C40   C     C_R   0.704303 0.831439 0.494595 -0.180616
N5    N     N_R   0.016814 0.665826 0.159846 0.281690
O17   O     O_R   0.954529 0.709566 0.223044 -0.344009
O18   O     O_R   0.085458 0.711774 0.135118 -0.415931
N6    N     N_R   0.983098 0.334177 0.840194 0.281609
O19   O     O_R   0.045324 0.290444 0.776835 -0.343910
O20   O     O_R   0.914497 0.288211 0.865124 -0.416005
N7    N     N_R   0.022681 0.329907 0.117138 0.225625
O21   O     O_R   0.994682 0.309157 0.233534 -0.348631
O22   O     O_R   0.062384 0.265082 0.044644 -0.385652
N8    N     N_R   0.977331 0.670098 0.882855 0.225604
O23   O     O_R   0.005334 0.690840 0.766458 -0.348625
O24   O     O_R   0.937617 0.734926 0.955325 -0.385614
N9    N     N_R   0.516814 0.165826 0.159846 0.281690
O25   O     O_R   0.454529 0.209566 0.223044 -0.344009
O26   O     O_R   0.585458 0.211774 0.135118 -0.415931
N10   N     N_R   0.483098 0.834177 0.840194 0.281609
O27   O     O_R   0.545324 0.790444 0.776835 -0.343910
O28   O     O_R   0.414497 0.788211 0.865124 -0.416005
N11   N     N_R   0.522681 0.829907 0.117138 0.225625
O29   O     O_R   0.494682 0.809157 0.233534 -0.348631
O30   O     O_R   0.562384 0.765082 0.044644 -0.385651
N12   N     N_R   0.477331 0.170098 0.882855 0.225604
O31   O     O_R   0.505334 0.190839 0.766458 -0.348625
O32   O     O_R   0.437617 0.234926 0.955325 -0.385614
C41   C     C_3   0.795339 0.299907 0.230460 -0.713796
H1    H     H_    0.803199 0.375400 0.225891 0.230420
H2    H     H_    0.849178 0.261584 0.180488 0.281669
H3    H     H_    0.737163 0.283938 0.169624 0.256327
C42   C     C_3   0.204681 0.700062 0.769538 -0.713891
H4    H     H_    0.196818 0.624569 0.774098 0.230413
H5    H     H_    0.262861 0.716024 0.830368 0.256374
H6    H     H_    0.150846 0.738385 0.819523 0.281633
C43   C     C_3   0.255473 0.607821 0.280698 -0.800956
H7    H     H_    0.242176 0.540457 0.322095 0.209781
H8    H     H_    0.213685 0.617226 0.192516 0.274196
H9    H     H_    0.323066 0.604488 0.246620 0.249426
C44   C     C_3   0.744540 0.392152 0.719310 -0.800974
H10   H     H_    0.757823 0.459519 0.677913 0.209782
H11   H     H_    0.676950 0.395475 0.753405 0.249430
H12   H     H_    0.786338 0.382753 0.807482 0.274216
C45   C     C_3   0.242644 0.374555 0.741492 -0.773984
H13   H     H_    0.229934 0.446527 0.715018 0.217376
H14   H     H_    0.197355 0.355779 0.820904 0.272397
H15   H     H_    0.308469 0.374518 0.783547 0.251598
C46   C     C_3   0.757314 0.625400 0.258538 -0.773985
H16   H     H_    0.770051 0.553435 0.285019 0.217370
H17   H     H_    0.691475 0.625420 0.216535 0.251590
H18   H     H_    0.802570 0.644177 0.179084 0.272397
C47   C     C_3   0.769280 0.675004 0.760950 -0.756702
H19   H     H_    0.790070 0.602209 0.756780 0.228100
H20   H     H_    0.807793 0.715195 0.836255 0.284213
H21   H     H_    0.702257 0.676015 0.797786 0.261977
C48   C     C_3   0.230704 0.324959 0.239053 -0.756658
H22   H     H_    0.209920 0.397756 0.243212 0.228100
H23   H     H_    0.297726 0.323941 0.202213 0.262014
H24   H     H_    0.192189 0.284763 0.163756 0.284216
C49   C     C_3   0.295339 0.799907 0.230460 -0.713796
H25   H     H_    0.303199 0.875400 0.225891 0.230420
H26   H     H_    0.349178 0.761584 0.180488 0.281668
H27   H     H_    0.237162 0.783938 0.169624 0.256327
C50   C     C_3   0.704681 0.200062 0.769538 -0.713890
H28   H     H_    0.696817 0.124569 0.774098 0.230413
H29   H     H_    0.762861 0.216024 0.830368 0.256374
H30   H     H_    0.650846 0.238385 0.819523 0.281633
C51   C     C_3   0.755473 0.107821 0.280699 -0.800956
H31   H     H_    0.742176 0.040456 0.322095 0.209781
H32   H     H_    0.713685 0.117225 0.192517 0.274196
H33   H     H_    0.823066 0.104488 0.246620 0.249426
C52   C     C_3   0.244540 0.892152 0.719310 -0.800973
H34   H     H_    0.257823 0.959519 0.677913 0.209781
H35   H     H_    0.176950 0.895475 0.753405 0.249430
H36   H     H_    0.286338 0.882753 0.807482 0.274216
C53   C     C_3   0.742644 0.874555 0.741492 -0.773984
H37   H     H_    0.729934 0.946527 0.715018 0.217376
H38   H     H_    0.697355 0.855779 0.820904 0.272397
H39   H     H_    0.808469 0.874518 0.783547 0.251598
C54   C     C_3   0.257314 0.125400 0.258538 -0.773985
H40   H     H_    0.270051 0.053435 0.285019 0.217370
H41   H     H_    0.191475 0.125420 0.216535 0.251590
H42   H     H_    0.302570 0.144177 0.179084 0.272397
C55   C     C_3   0.269280 0.175004 0.760950 -0.756701
H43   H     H_    0.290070 0.102209 0.756780 0.228100
H44   H     H_    0.307793 0.215196 0.836255 0.284213
H45   H     H_    0.202257 0.176015 0.797786 0.261977
C56   C     C_3   0.730704 0.824959 0.239053 -0.756658
H46   H     H_    0.709920 0.897756 0.243212 0.228100
H47   H     H_    0.797726 0.823941 0.202213 0.262014
H48   H     H_    0.692189 0.784763 0.163756 0.284216

loop_
_geom_bond_atom_site_label_1
_geom_bond_atom_site_label_2
_geom_bond_distance
_ccdc_geom_bond_type
C17   C41   1.517319 S    
C21   C36   1.408692 A    
C44   H10   1.105996 S    
C22   C35   1.408660 A    
O2    C2    1.299568 A    
C18   C42   1.517319 S    
O13   Zn4   2.015161 S    
C27   C37   1.406446 A    
O14   Zn3   2.015159 S    
C43   H9    1.110475 S    
C55   H43   1.101279 S    
C27   C51   1.513965 S    
C9    N5    1.434527 S    
O15   Zn4   1.980837 S    
N9    O25   1.298827 A    
O10   C6    1.299568 A    
O16   Zn3   1.980839 S    
C24   C30   1.389910 A    
C53   H38   1.109030 S    
C42   H4    1.106946 S    
N8    O24   1.301054 A    
C29   C53   1.518312 S    
O8    Zn1   1.980839 S    
C17   C34   1.413013 A    
C47   H19   1.101278 S    
C13   C16   1.425166 A    
C56   H47   1.110631 S    
C14   C15   1.425121 A    
C29   C40   1.408692 A    
N12   O32   1.301054 A    
C31   C55   1.512412 S    
C30   C39   1.408660 A    
N3    C14   1.362476 A    
C16   N12   1.448518 S    
C43   H7    1.106010 S    
C9    C12   1.425166 A    
O13   C7    1.290207 A    
O3    C2    1.297699 A    
C10   C11   1.425121 A    
O14   C8    1.290205 A    
O3    Zn1   2.001747 S    
C42   H5    1.108692 S    
C49   H27   1.108702 S    
C46   H17   1.110548 S    
C43   H8    1.106690 S    
C6    C39   1.456098 S    
C56   H46   1.101280 S    
C7    C38   1.455220 S    
C20   C34   1.406458 A    
N6    O19   1.298818 A    
C5    C40   1.456107 S    
C31   C39   1.408714 A    
C52   H36   1.106684 S    
C32   C40   1.408727 A    
C41   H2    1.106062 S    
N1    C10   1.362476 A    
C23   C29   1.389913 A    
C51   H33   1.110473 S    
O11   Zn3   2.001747 S    
C44   H11   1.110468 S    
O7    Zn2   1.980837 S    
O12   Zn4   2.001747 S    
C28   C52   1.513961 S    
C18   C33   1.412995 A    
C55   H44   1.098907 S    
C21   C45   1.518312 S    
C24   C36   1.408727 A    
N9    O26   1.299890 A    
C3    C34   1.455220 S    
N1    Zn1   2.025548 S    
C45   H15   1.110546 S    
O8    C3    1.304928 A    
N8    O23   1.290816 A    
C48   H22   1.101280 S    
N3    Zn3   2.025548 S    
N4    Zn4   2.025548 S    
N10   O28   1.299910 A    
C54   H42   1.109024 S    
C10   N6    1.434528 S    
N7    O22   1.301060 A    
O9    Zn3   1.968928 S    
N12   O31   1.290817 A    
C19   C25   1.389713 A    
C1    C36   1.456107 S    
N4    C15   1.392474 A    
N5    O18   1.299891 A    
C13   N9    1.434527 S    
O12   C5    1.297711 A    
C54   H41   1.110548 S    
C50   H30   1.106065 S    
C45   H14   1.109031 S    
N2    C11   1.392474 A    
N2    C9    1.362444 A    
N11   O29   1.290824 A    
N3    C16   1.392522 A    
C25   C49   1.517319 S    
C30   C54   1.518309 S    
O1    Zn1   1.968928 S    
C26   C50   1.517318 S    
C41   H3    1.108702 S    
C49   H25   1.106944 S    
C12   N8    1.448518 S    
C8    C37   1.455212 S    
O4    C1    1.297711 A    
C56   H48   1.098898 S    
O15   C8    1.304925 A    
N11   O30   1.301060 A    
N2    Zn2   2.025548 S    
C42   H6    1.106065 S    
C50   H28   1.106948 S    
C46   H18   1.109024 S    
C55   H45   1.110636 S    
C52   H35   1.110468 S    
C51   H31   1.106012 S    
C53   H37   1.110083 S    
C20   C26   1.389705 A    
C23   C47   1.512413 S    
C25   C38   1.413013 A    
C4    C33   1.455213 S    
C19   C43   1.513965 S    
N10   O27   1.298818 A    
C20   C44   1.513961 S    
C24   C48   1.512405 S    
O5    C3    1.290207 A    
O16   C7    1.304928 A    
O6    C4    1.290205 A    
C45   H13   1.110083 S    
O11   C6    1.297699 A    
O1    C1    1.299559 A    
O2    Zn2   1.968928 S    
C47   H21   1.110636 S    
C48   H23   1.110631 S    
C32   C56   1.512405 S    
C15   N11   1.448506 S    
N7    O21   1.290824 A    
C11   N7    1.448506 S    
C28   C38   1.406458 A    
C46   H16   1.110084 S    
O9    C5    1.299559 A    
C52   H34   1.105997 S    
C14   N10   1.434528 S    
N4    C13   1.362444 A    
C53   H39   1.110547 S    
C48   H24   1.098899 S    
N5    O17   1.298827 A    
C49   H26   1.106065 S    
C19   C33   1.406445 A    
N1    C12   1.392522 A    
C23   C35   1.408714 A    
O10   Zn4   1.968928 S    
C2    C35   1.456098 S    
O6    Zn1   2.015159 S    
C21   C31   1.389913 A    
N6    O20   1.299910 A    
O7    C4    1.304924 A    
O5    Zn2   2.015161 S    
C22   C46   1.518310 S    
C22   C32   1.389910 A    
C50   H29   1.108691 S    
C26   C37   1.412995 A    
C44   H12   1.106685 S    
C47   H20   1.098907 S    
C41   H1    1.106944 S    
C54   H40   1.110084 S    
C17   C27   1.389714 A    
O4    Zn2   2.001747 S    
C18   C28   1.389706 A    
C51   H32   1.106691 S    
