data_mof_unit_54628.cif
_audit_creation_date              2012-12-10T18:09:31-0500
_audit_creation_method            fapswitch 2.2
_symmetry_space_group_name_H-M    P1
_symmetry_Int_Tables_number       1
_space_group_crystal_system       triclinic
_cell_length_a                    15.19845
_cell_length_b                    15.166354
_cell_length_c                    9.409261
_cell_angle_alpha                 89.99998
_cell_angle_beta                  90.000987
_cell_angle_gamma                 90.002942
_cell_volume                      2168.88239004

loop_
_atom_site_label
_atom_site_type_symbol
_atom_type_description
_atom_site_fract_x
_atom_site_fract_y
_atom_site_fract_z
_atom_type_partial_charge
C1    C     C_R   0.119673 0.379328 0.500015 0.774252
C2    C     C_R   0.119802 0.620542 0.499973 0.774319
C3    C     C_R   0.619677 0.879332 0.499984 0.774220
C4    C     C_R   0.619805 0.120540 0.500026 0.774331
C5    C     C_3   0.091973 0.496062 0.083877 -0.188816
C6    C     C_3   0.091975 0.496101 0.916139 -0.188307
C7    C     C_3   0.592020 0.997327 0.083866 -0.188384
C8    C     C_3   0.592018 0.997284 0.916128 -0.188727
C9    C     C_R   0.881352 0.378649 0.500159 0.773371
C10   C     C_R   0.881252 0.621256 0.499831 0.773514
C11   C     C_R   0.381354 0.878647 0.499839 0.773367
C12   C     C_R   0.381245 0.121249 0.500166 0.773528
C13   C     C_3   0.802795 0.268257 0.650147 -0.394656
C14   C     C_3   0.833590 0.237291 0.391203 -0.408986
C15   C     C_3   0.834536 0.763688 0.606165 -0.409555
C16   C     C_3   0.801106 0.730050 0.348984 -0.394709
C17   C     C_3   0.333617 0.737264 0.608734 -0.409059
C18   C     C_3   0.302762 0.768284 0.349828 -0.394697
C19   C     C_3   0.301049 0.229987 0.651033 -0.394636
C20   C     C_3   0.334557 0.263709 0.393904 -0.409535
C21   C     C_3   0.261056 0.666557 0.608689 -0.426563
C22   C     C_3   0.233835 0.694626 0.352131 -0.424962
C23   C     C_3   0.232168 0.303653 0.648864 -0.425033
C24   C     C_3   0.261924 0.334351 0.393795 -0.426387
C25   C     C_3   0.733834 0.194633 0.647865 -0.425046
C26   C     C_3   0.761060 0.166554 0.391314 -0.426562
C27   C     C_3   0.761882 0.834307 0.606322 -0.426391
C28   C     C_3   0.732249 0.803742 0.351174 -0.424974
C29   C     C_3   0.723086 0.354010 0.459619 -0.356638
C30   C     C_3   0.723369 0.646265 0.543868 -0.356406
C31   C     C_3   0.223098 0.854000 0.540449 -0.356600
C32   C     C_3   0.223372 0.146268 0.456012 -0.356423
C33   C     C_3   0.811732 0.310612 0.500495 0.113378
C34   C     C_3   0.811585 0.689245 0.499487 0.113338
C35   C     C_3   0.311734 0.810609 0.499499 0.113388
C36   C     C_3   0.311574 0.189233 0.500504 0.113320
C37   C     C_3   0.187552 0.691057 0.500145 0.171913
C38   C     C_3   0.187374 0.308762 0.499768 0.171902
C39   C     C_3   0.687554 0.191056 0.499848 0.171947
C40   C     C_3   0.687382 0.808771 0.500220 0.171901
C41   C     C_3   0.146615 0.784971 0.536951 0.412573
C42   C     C_3   0.146817 0.215216 0.459462 0.412296
C43   C     C_3   0.646614 0.284966 0.463022 0.412544
C44   C     C_3   0.646809 0.715202 0.540342 0.412295
C45   C     C_3   0.959555 0.580648 0.083730 -0.185760
C46   C     C_3   0.959590 0.580673 0.916369 -0.189746
C47   C     C_3   0.952681 0.423327 0.083629 -0.188496
C48   C     C_3   0.952655 0.423355 0.916299 -0.185113
C49   C     C_3   0.458488 0.080088 0.083630 -0.189536
C50   C     C_3   0.458458 0.080063 0.916275 -0.185661
C51   C     C_3   0.453709 0.922690 0.083703 -0.185179
C52   C     C_3   0.453733 0.922665 0.916372 -0.188688
Cu1   Cu    Cu3+1 0.000100 0.500000 0.642410 0.881976
Cu2   Cu    Cu3+1 0.000100 0.500000 0.357590 0.881872
Cu3   Cu    Cu3+1 0.500100 0.000000 0.642410 0.881896
Cu4   Cu    Cu3+1 0.500100 0.000000 0.357590 0.881958
H1    H     H_    0.782715 0.318973 0.729308 0.164040
H2    H     H_    0.839457 0.265589 0.282456 0.166581
H3    H     H_    0.841738 0.736515 0.715444 0.166399
H4    H     H_    0.780168 0.678517 0.271794 0.163855
H5    H     H_    0.339557 0.765537 0.717487 0.166570
H6    H     H_    0.282626 0.819010 0.270722 0.164027
H7    H     H_    0.280115 0.178423 0.728172 0.163823
H8    H     H_    0.341758 0.236570 0.284603 0.166423
H9    H     H_    0.867129 0.240703 0.685177 0.164283
H10   H     H_    0.897764 0.206217 0.417841 0.170007
H11   H     H_    0.898309 0.794612 0.576711 0.170317
H12   H     H_    0.865082 0.757204 0.311466 0.164534
H13   H     H_    0.397762 0.706166 0.581987 0.170036
H14   H     H_    0.367094 0.740767 0.314717 0.164282
H15   H     H_    0.365008 0.257152 0.688608 0.164555
H16   H     H_    0.398338 0.294603 0.423394 0.170304
H17   H     H_    0.290501 0.601694 0.580004 0.150405
H18   H     H_    0.266696 0.630445 0.329786 0.159867
H19   H     H_    0.264813 0.367583 0.673797 0.160305
H20   H     H_    0.291016 0.398956 0.424860 0.150226
H21   H     H_    0.766664 0.130440 0.670250 0.159852
H22   H     H_    0.790533 0.101711 0.420044 0.150435
H23   H     H_    0.790968 0.898942 0.575409 0.150206
H24   H     H_    0.764930 0.867677 0.326397 0.160279
H25   H     H_    0.234621 0.658441 0.717872 0.167854
H26   H     H_    0.186210 0.704887 0.264065 0.171926
H27   H     H_    0.183646 0.292482 0.735342 0.171361
H28   H     H_    0.236573 0.343498 0.284164 0.167004
H29   H     H_    0.686209 0.204935 0.735913 0.171844
H30   H     H_    0.734622 0.158396 0.282139 0.167750
H31   H     H_    0.736483 0.843369 0.715943 0.167090
H32   H     H_    0.683770 0.792648 0.264603 0.171469
H33   H     H_    0.709779 0.410079 0.533087 0.134388
H34   H     H_    0.729783 0.384320 0.352272 0.147671
H35   H     H_    0.731134 0.617225 0.651935 0.148386
H36   H     H_    0.709395 0.589340 0.472460 0.134026
H37   H     H_    0.229809 0.884241 0.647843 0.147735
H38   H     H_    0.209792 0.910115 0.467072 0.134370
H39   H     H_    0.209364 0.089340 0.527395 0.134016
H40   H     H_    0.231176 0.117232 0.347950 0.148344
H41   H     H_    0.994119 0.640358 0.123841 0.136047
H42   H     H_    0.994334 0.640316 0.876739 0.136632
H43   H     H_    0.982144 0.360852 0.123170 0.135398
H44   H     H_    0.981991 0.360845 0.876397 0.135967
H45   H     H_    0.492413 0.140206 0.123265 0.136430
H46   H     H_    0.492216 0.140241 0.876190 0.136029
H47   H     H_    0.483872 0.860588 0.123646 0.135963
H48   H     H_    0.484025 0.860600 0.876811 0.135566
H49   H     H_    0.890262 0.585494 0.120663 0.135612
H50   H     H_    0.890341 0.585774 0.879170 0.136647
H51   H     H_    0.883290 0.424326 0.121130 0.136179
H52   H     H_    0.883243 0.424580 0.879015 0.134818
H53   H     H_    0.389178 0.084228 0.120856 0.136588
H54   H     H_    0.389108 0.083958 0.879298 0.135499
H55   H     H_    0.384279 0.922972 0.120920 0.134920
H56   H     H_    0.384325 0.922719 0.878930 0.136237
H57   H     H_    0.131309 0.552956 0.122720 0.135292
H58   H     H_    0.131236 0.553076 0.877409 0.136149
H59   H     H_    0.126063 0.435728 0.122053 0.137614
H60   H     H_    0.126158 0.435855 0.877867 0.135948
H61   H     H_    0.630492 0.054857 0.122507 0.136335
H62   H     H_    0.630573 0.054728 0.877372 0.135387
H63   H     H_    0.627031 0.937578 0.122233 0.135859
H64   H     H_    0.626935 0.937445 0.877870 0.137397
N1    N     N_3   0.001260 0.500000 0.143650 -0.108013
N2    N     N_3   0.001260 0.500000 0.856350 -0.107958
N3    N     N_3   0.501260 0.000000 0.143650 -0.107971
N4    N     N_3   0.501260 0.000000 0.856350 -0.107999
O1    O     O_R   0.091250 0.408820 0.620260 -0.597120
O2    O     O_R   0.091250 0.408820 0.379740 -0.592287
O3    O     O_R   0.091250 0.591180 0.620260 -0.592017
O4    O     O_R   0.091250 0.591180 0.379740 -0.596738
O5    O     O_R   0.591250 0.908820 0.620260 -0.592210
O6    O     O_R   0.591250 0.908820 0.379740 -0.597094
O7    O     O_R   0.591250 0.091180 0.620260 -0.596750
O8    O     O_R   0.591250 0.091180 0.379740 -0.592086
O9    O     O_R   0.908940 0.408800 0.620260 -0.596343
O10   O     O_R   0.908940 0.408800 0.379740 -0.598217
O11   O     O_R   0.908940 0.591200 0.620260 -0.598078
O12   O     O_R   0.908940 0.591200 0.379740 -0.596240
O13   O     O_R   0.408940 0.908800 0.620260 -0.598202
O14   O     O_R   0.408940 0.908800 0.379740 -0.596326
O15   O     O_R   0.408940 0.091200 0.620260 -0.596262
O16   O     O_R   0.408940 0.091200 0.379740 -0.598105
C53   C     C_3   0.098810 0.786088 0.682870 -0.901308
H65   H     H_    0.143091 0.767167 0.771300 0.213953
H66   H     H_    0.074308 0.853546 0.706787 0.220728
H67   H     H_    0.040712 0.741914 0.682843 0.238837
C54   C     C_3   0.077730 0.813544 0.423910 -0.912852
H68   H     H_    0.025784 0.762744 0.410957 0.220322
H69   H     H_    0.045218 0.876124 0.455977 0.228196
H70   H     H_    0.108468 0.825834 0.318873 0.217955
C55   C     C_3   0.076938 0.185499 0.570106 -0.912925
H71   H     H_    0.106770 0.171885 0.675403 0.218218
H72   H     H_    0.025075 0.236325 0.583508 0.219304
H73   H     H_    0.044509 0.123405 0.535449 0.228415
C56   C     C_3   0.100336 0.215468 0.312384 -0.899526
H74   H     H_    0.076478 0.148138 0.285947 0.220072
H75   H     H_    0.041915 0.259221 0.312222 0.239765
H76   H     H_    0.145292 0.235640 0.225580 0.213539
C57   C     C_3   0.577684 0.313518 0.575999 -0.912833
H77   H     H_    0.608383 0.325801 0.681069 0.217958
H78   H     H_    0.545176 0.376098 0.543915 0.228172
H79   H     H_    0.525740 0.262710 0.588891 0.220346
C58   C     C_3   0.598867 0.286083 0.317046 -0.901133
H80   H     H_    0.540802 0.241863 0.316951 0.238924
H81   H     H_    0.574326 0.353530 0.293148 0.220696
H82   H     H_    0.643206 0.267225 0.228658 0.213939
C59   C     C_3   0.600218 0.715389 0.687323 -0.899665
H83   H     H_    0.645094 0.735556 0.774240 0.213607
H84   H     H_    0.541782 0.759118 0.687373 0.239638
H85   H     H_    0.576366 0.648041 0.713658 0.220107
C60   C     C_3   0.577011 0.685523 0.429532 -0.912925
H86   H     H_    0.544575 0.623404 0.464052 0.228417
H87   H     H_    0.525141 0.736341 0.416104 0.219333
H88   H     H_    0.606918 0.671968 0.324272 0.218216

loop_
_geom_bond_atom_site_label_1
_geom_bond_atom_site_label_2
_ccdc_geom_bond_type
C16   C28   S    
Cu3   Cu4   S    
C17   H13   S    
C57   H77   S    
C21   H17   S    
C3    O6    A    
C51   N3    S    
C60   H86   S    
C7    H61   S    
C19   H15   S    
Cu1   O11   S    
C52   H56   S    
C13   C25   S    
C58   H82   S    
C14   C33   S    
C29   H33   S    
C58   H80   S    
C8    H62   S    
C7    C8    S    
C4    O8    A    
C13   H9    S    
C45   C46   S    
C41   C53   S    
Cu2   O2    S    
C59   H83   S    
Cu3   O15   S    
C23   H27   S    
C37   C41   S    
C25   H21   S    
C32   C36   S    
C11   O14   A    
C1    O1    A    
C38   C42   S    
C27   H23   S    
C19   C36   S    
C55   H72   S    
C49   H45   S    
C5    C6    S    
Cu4   O16   S    
C26   C39   S    
C47   N1    S    
C13   H1    S    
C28   C40   S    
C51   H47   S    
C49   N3    S    
C29   C33   S    
C50   H54   S    
C47   H43   S    
C21   C37   S    
C16   H4    S    
C42   C55   S    
C44   C60   S    
C6    H58   S    
Cu1   O3    S    
C54   H69   S    
C20   H16   S    
C20   C24   S    
C19   H7    S    
Cu3   O5    S    
C28   H32   S    
C24   C38   S    
C12   O16   A    
C16   H12   S    
C12   C36   S    
C18   C35   S    
C15   C34   S    
C17   H5    S    
C2    O3    A    
C46   H42   S    
Cu2   O12   S    
C57   H78   S    
C18   C22   S    
C5    H59   S    
C9    C33   S    
C60   H87   S    
C30   C44   S    
C14   H2    S    
C29   H34   S    
C58   H81   S    
C45   H49   S    
C54   H68   S    
C4    O7    A    
C48   H44   S    
C30   C34   S    
C51   C52   S    
Cu4   N3    S    
C7    H63   S    
C42   C56   S    
C50   N4    S    
C1    O2    A    
C30   H36   S    
C55   H73   S    
C23   H19   S    
C8    N4    S    
C39   C43   S    
C45   N1    S    
C31   H37   S    
C22   C37   S    
Cu2   O4    S    
C17   C21   S    
C20   H8    S    
C19   C23   S    
C13   C33   S    
C16   C34   S    
Cu4   O14   S    
C15   C27   S    
C47   C48   S    
C4    C39   S    
C27   C40   S    
C26   H30   S    
C15   H11   S    
C25   H29   S    
C14   H10   S    
C12   O15   A    
Cu1   O9    S    
C10   C34   S    
C26   H22   S    
C14   C26   S    
C56   H76   S    
C27   H31   S    
C6    H60   S    
Cu4   O8    S    
Cu1   O1    S    
C1    C38   S    
C43   C58   S    
C32   H40   S    
Cu2   N1    S    
C21   H25   S    
C3    C40   S    
C50   H46   S    
C59   H85   S    
Cu3   O7    S    
C60   H88   S    
C31   C35   S    
C53   H67   S    
C56   H75   S    
C6    N2    S    
C23   C38   S    
C22   H26   S    
C54   H70   S    
C8    H64   S    
C49   H53   S    
C9    O9    A    
C29   C43   S    
Cu3   N4    S    
C52   H48   S    
C5    N1    S    
C51   H55   S    
C31   C41   S    
C5    H57   S    
C3    O5    A    
C15   H3    S    
C24   H20   S    
C7    N3    S    
C30   H35   S    
C43   C57   S    
Cu1   Cu2   S    
C10   O12   A    
C57   H79   S    
C31   H38   S    
C47   H51   S    
C18   H14   S    
Cu3   O13   S    
Cu1   N2    S    
C53   H66   S    
C24   H28   S    
C10   O11   A    
C45   H41   S    
C55   H71   S    
C9    O10   A    
C48   N2    S    
C52   N4    S    
C2    C37   S    
C48   H52   S    
C46   H50   S    
C11   C35   S    
C44   C59   S    
C11   O13   A    
C28   H24   S    
Cu4   O6    S    
C20   C36   S    
C40   C44   S    
C32   H39   S    
C41   C54   S    
C22   H18   S    
C59   H84   S    
C49   C50   S    
C32   C42   S    
C46   N2    S    
C18   H6    S    
C17   C35   S    
C56   H74   S    
C53   H65   S    
C25   C39   S    
C2    O4    A    
Cu2   O10   S    
