data_mof_unit_41606.cif
_audit_creation_date              2012-10-26T18:34:24-0400
_audit_creation_method            fapswitch 2.2
_symmetry_space_group_name_H-M    P1
_symmetry_Int_Tables_number       1
_space_group_crystal_system       triclinic
_cell_length_a                    10.970167
_cell_length_b                    9.64546
_cell_length_c                    9.079202
_cell_angle_alpha                 88.508837
_cell_angle_beta                  94.492642
_cell_angle_gamma                 89.114151
_cell_volume                      957.267552769

loop_
_atom_site_label
_atom_site_type_symbol
_atom_type_description
_atom_site_fract_x
_atom_site_fract_y
_atom_site_fract_z
_atom_type_partial_charge
C1    C     C_R   0.263064 0.500895 0.512376 0.560428
C2    C     C_R   0.057256 0.617625 0.476025 0.193159
C3    C     C_R   0.872904 0.496733 0.517417 -0.075023
C4    C     C_R   0.130037 0.504431 0.535743 -0.092087
C5    C     C_R   0.420625 0.082987 0.404170 0.377267
C6    C     C_R   0.582623 0.922763 0.591478 0.330444
C7    C     C_R   0.568337 0.070211 0.605681 0.382814
C8    C     C_R   0.416290 0.932124 0.405638 0.342068
C9    C     C_3   0.282266 0.138873 0.197332 -0.008213
C10   C     C_3   0.227948 0.270293 0.121393 -0.319171
C11   C     C_3   0.702514 0.791029 0.770794 0.014203
C12   C     C_R   0.737910 0.498715 0.504978 0.643591
C13   C     C_3   0.819366 0.826213 0.864207 -0.322235
C14   C     C_3   0.587108 0.075523 0.861778 0.019400
C15   C     C_3   0.560615 0.182454 0.974348 -0.313803
C16   C     C_3   0.329297 0.807194 0.203554 0.005092
C17   C     C_3   0.230835 0.841785 0.077992 -0.391763
C18   C     C_R   0.498341 0.501387 0.220817 0.537839
C19   C     C_R   0.495611 0.499598 0.778508 0.581450
C20   C     C_1   0.495662 0.503760 0.065083 -0.091401
C21   C     C_1   0.494424 0.501565 0.933777 -0.068780
C22   C     C_R   0.070409 0.395492 0.610816 0.155823
C23   C     C_R   0.935214 0.592589 0.433481 0.225659
C24   C     C_R   0.942478 0.409278 0.621727 0.172833
Cu1   Cu    Cu3+1 0.500000 0.640660 0.500000 1.083153
Cu2   Cu    Cu3+1 0.500000 0.359340 0.500000 1.173451
H1    H     H_    0.100538 0.146430 0.474313 0.366669
H2    H     H_    0.709605 0.679293 0.752037 0.195915
H3    H     H_    0.621084 0.806368 0.834373 0.077324
H4    H     H_    0.853259 0.929474 0.832052 0.255333
H5    H     H_    0.800796 0.828594 0.982155 0.146509
H6    H     H_    0.892270 0.747049 0.851875 0.193406
H7    H     H_    0.666617 0.017493 0.913703 0.152734
H8    H     H_    0.505692 0.007449 0.848992 0.080768
H9    H     H_    0.468988 0.229519 0.945697 0.174529
H10   H     H_    0.560219 0.131528 0.085453 0.088079
H11   H     H_    0.632797 0.261609 0.980100 0.224756
H12   H     H_    0.718408 0.642116 0.111859 0.331939
H13   H     H_    0.311996 0.696234 0.224438 0.195959
H14   H     H_    0.420749 0.826168 0.161919 0.115327
H15   H     H_    0.257342 0.929358 0.006672 0.122773
H16   H     H_    0.219321 0.751843 0.004250 0.148856
H17   H     H_    0.141351 0.864299 0.121185 0.243376
H18   H     H_    0.767610 0.474980 0.907842 0.348477
H19   H     H_    0.205643 0.895818 0.689973 0.385622
H20   H     H_    0.204034 0.070233 0.209678 0.215493
H21   H     H_    0.353151 0.095496 0.130111 0.101502
H22   H     H_    0.300913 0.341815 0.093807 0.145645
H23   H     H_    0.174758 0.243293 0.018450 0.223844
H24   H     H_    0.165830 0.323298 0.193862 0.174133
N1    N     N_R   0.500000 0.852070 0.500000 -0.264261
N2    N     N_R   0.500000 0.147930 0.500000 -0.246752
O1    O     O_R   0.319640 0.618740 0.499990 -0.435140
O2    O     O_2   0.083690 0.150810 0.782745 -0.226791
O3    O     O_3   0.178532 0.144296 0.537228 -0.438998
O4    O     O_2   0.804363 0.813466 0.321278 -0.211086
O5    O     O_2   0.961317 0.717404 0.172724 -0.312343
O6    O     O_3   0.761618 0.580824 0.188714 -0.554489
O7    O     O_2   0.849108 0.192282 0.759276 -0.170191
O8    O     O_2   0.966900 0.354801 0.913567 -0.280116
O9    O     O_3   0.749062 0.428400 0.813040 -0.570060
O10   O     O_2   0.086229 0.883532 0.394336 -0.193202
O11   O     O_2   0.981033 0.838263 0.613941 -0.255302
O12   O     O_R   0.680360 0.381260 0.500010 -0.439982
O13   O     O_3   0.215507 0.807600 0.638437 -0.491860
O14   O     O_3   0.330673 0.171863 0.337953 -0.483604
O15   O     O_3   0.697240 0.864001 0.633108 -0.472320
O16   O     O_3   0.620203 0.138169 0.727337 -0.449565
O17   O     O_3   0.311165 0.873690 0.338124 -0.484712
O18   O     O_R   0.680360 0.618740 0.500010 -0.431980
O19   O     O_R   0.319640 0.381260 0.499990 -0.401987
O20   O     O_R   0.500000 0.618760 0.288390 -0.530461
O21   O     O_R   0.500000 0.381240 0.711610 -0.407514
O22   O     O_R   0.500000 0.618760 0.711610 -0.540849
O23   O     O_R   0.500000 0.381240 0.288390 -0.489965
O24   O     O_2   0.270375 0.278923 0.761821 -0.310625
S1    S     S_3+6 0.151331 0.241325 0.681336 0.050766
S2    S     S_3+6 0.865333 0.682329 0.276054 0.044125
S3    S     S_3+6 0.877296 0.342222 0.780687 0.068605
S4    S     S_3+6 0.085528 0.791018 0.529447 0.105490

loop_
_geom_bond_atom_site_label_1
_geom_bond_atom_site_label_2
_ccdc_geom_bond_type
O8    S3    D    
C18   O23   A    
C13   H6    S    
C3    C23   A    
C14   H7    S    
C17   H17   S    
C8    O17   S    
C1    O19   A    
O10   S4    D    
C19   C21   S    
Cu1   O1    S    
C7    N2    A    
C12   O12   A    
H1    O3    S    
Cu2   O21   S    
O4    S2    D    
Cu1   O22   S    
C1    O1    A    
C9    O14   S    
C15   H11   S    
Cu2   O12   S    
C3    C12   S    
C7    O16   S    
H12   O6    S    
C16   C17   S    
C5    N2    A    
C6    N1    A    
C9    C10   S    
O2    S1    D    
C9    H20   S    
O13   S4    S    
Cu2   O19   S    
C3    C24   A    
C15   H9    S    
C11   O15   S    
O11   S4    D    
C18   O20   A    
C13   H4    S    
C19   O21   A    
O24   S1    D    
O7    S3    D    
Cu1   Cu2   S    
C2    C4    A    
Cu1   N1    S    
Cu2   N2    S    
C4    C22   A    
C24   S3    S    
Cu2   O23   S    
Cu1   O20   S    
C8    N1    A    
C16   H14   S    
C6    O15   S    
C9    H21   S    
C10   H22   S    
C22   C24   A    
C10   H24   S    
C15   H10   S    
C17   H16   S    
C12   O18   A    
O5    S2    D    
C13   H5    S    
C19   O22   A    
C16   O17   S    
C22   S1    S    
C5    O14   S    
C14   H8    S    
C5    C8    A    
C6    C7    A    
H18   O9    S    
C1    C4    S    
H19   O13   S    
C11   C13   S    
C11   H2    S    
O9    S3    S    
O3    S1    S    
C18   C20   S    
C23   S2    S    
C17   H15   S    
C2    S4    S    
O6    S2    S    
C16   H13   S    
C20   C21   T    
C11   H3    S    
C2    C23   A    
C14   O16   S    
C14   C15   S    
Cu1   O18   S    
C10   H23   S    
