data_mof_unit_66460.cif
_audit_creation_date              2012-12-10T16:50:24-0500
_audit_creation_method            fapswitch 2.2
_symmetry_space_group_name_H-M    P1
_symmetry_Int_Tables_number       1
_space_group_crystal_system       triclinic
_cell_length_a                    18.864319
_cell_length_b                    18.81008
_cell_length_c                    18.721947
_cell_angle_alpha                 109.175142
_cell_angle_beta                  109.31345
_cell_angle_gamma                 109.517131
_cell_volume                      5139.55247684

loop_
_atom_site_label
_atom_site_type_symbol
_atom_type_description
_atom_site_fract_x
_atom_site_fract_y
_atom_site_fract_z
_atom_type_partial_charge
C1    C     C_R   0.384963 0.381350 0.504482 0.960871
C2    C     C_R   0.601972 0.338999 0.611449 -0.117727
C3    C     C_2   0.263605 0.176672 0.503735 0.260840
C4    C     C_R   0.619208 0.500009 0.619513 0.866629
C5    C     C_2   0.179605 0.158621 0.469698 0.115755
C6    C     C_2   0.325068 0.240418 0.494830 -0.141591
C7    C     C_2   0.330873 0.318130 0.518180 -0.261860
C8    C     C_2   0.173059 0.422069 0.179659 -0.143490
C9    C     C_2   0.184725 0.494185 0.174891 -0.336717
C10   C     C_2   0.245901 0.421993 0.240618 -0.123426
C11   C     C_2   0.306274 0.494294 0.316450 -0.329643
C12   C     C_R   0.757579 0.580757 0.755357 0.076239
C13   C     C_2   0.742331 0.820276 0.495286 -0.152466
C14   C     C_2   0.818521 0.824104 0.512210 -0.328260
C15   C     C_2   0.680892 0.758769 0.506116 -0.157482
C16   C     C_R   0.616985 0.618747 0.497455 0.922924
C17   C     C_2   0.676445 0.682073 0.488596 -0.333568
C18   C     C_R   0.995218 0.380806 0.876155 0.922913
C19   C     C_R   0.877910 0.500540 0.877817 0.870294
C20   C     C_R   0.998062 0.618737 0.117537 0.928005
C21   C     C_R   0.116702 0.497933 0.114578 0.937550
C22   C     C_R   0.002044 0.121359 0.618645 0.918497
C23   C     C_R   0.812969 0.500779 0.811833 -0.195498
C24   C     C_R   0.118371 0.111757 0.492169 0.863661
C25   C     C_R   0.002509 0.883258 0.381237 0.931236
C26   C     C_R   0.881517 0.883258 0.502796 0.916583
C27   C     C_2   0.994380 0.253406 0.672932 -0.144465
C28   C     C_R   0.378047 0.497917 0.380279 0.948723
C29   C     C_2   0.011024 0.193849 0.686526 -0.324978
C30   C     C_2   0.004947 0.325771 0.744819 -0.150893
C31   C     C_2   0.987362 0.312994 0.804519 -0.342858
C32   C     C_2   0.076863 0.816959 0.324933 -0.126079
C33   C     C_2   0.006122 0.823910 0.312685 -0.324263
C34   C     C_R   0.745762 0.420849 0.737224 0.073934
C35   C     C_2   0.075895 0.756007 0.251437 -0.155046
C36   C     C_2   0.002477 0.681761 0.190230 -0.335758
C37   C     C_R   0.771634 0.661433 0.759539 -0.143609
C38   C     C_R   0.837731 0.739546 0.834132 -0.139499
C39   C     C_R   0.891127 0.739140 0.905605 -0.133083
C40   C     C_R   0.881666 0.660742 0.900689 -0.143730
C41   C     C_R   0.817771 0.580673 0.823361 0.072872
C42   C     C_R   0.676819 0.420148 0.677672 0.066225
C43   C     C_R   0.685168 0.500358 0.685409 -0.196897
C44   C     C_R   0.745325 0.341360 0.720739 -0.144016
C45   C     C_R   0.673721 0.262710 0.651691 -0.132656
C46   C     C_R   0.601245 0.261418 0.598425 -0.082572
H1    H     H_    0.544806 0.200215 0.545967 0.144678
H2    H     H_    0.637365 0.774962 0.524996 0.168991
H3    H     H_    0.732849 0.665618 0.705494 0.154446
H4    H     H_    0.712870 0.662002 0.460149 0.161793
H5    H     H_    0.976051 0.250751 0.610263 0.176266
H6    H     H_    0.039037 0.202101 0.751569 0.161354
H7    H     H_    0.023499 0.387880 0.746699 0.172512
H8    H     H_    0.959081 0.248426 0.796819 0.158749
H9    H     H_    0.136056 0.858007 0.387469 0.206081
H10   H     H_    0.950503 0.789946 0.247892 0.161072
H11   H     H_    0.135755 0.770401 0.249427 0.172634
H12   H     H_    0.365306 0.224030 0.470109 0.161143
H13   H     H_    0.945408 0.662595 0.197674 0.160119
H14   H     H_    0.846766 0.800497 0.836814 0.143081
H15   H     H_    0.941007 0.799736 0.964508 0.148673
H16   H     H_    0.924753 0.664086 0.958230 0.153027
H17   H     H_    0.800223 0.338838 0.760048 0.148629
H18   H     H_    0.674041 0.202581 0.640344 0.142886
H19   H     H_    0.543199 0.334027 0.569132 0.145459
H20   H     H_    0.009868 0.121511 0.270119 0.379012
H21   H     H_    0.391548 0.110574 0.512242 0.339228
H22   H     H_    0.295990 0.336213 0.550136 0.171364
H23   H     H_    0.111374 0.362215 0.136258 0.172247
H24   H     H_    0.248830 0.550888 0.210969 0.158076
H25   H     H_    0.247813 0.361935 0.224972 0.179073
H26   H     H_    0.298834 0.551290 0.336439 0.158416
H27   H     H_    0.726395 0.864176 0.476618 0.168313
H28   H     H_    0.838429 0.787381 0.540538 0.158591
O1    O     O_R   0.409870 0.358470 0.449260 -0.615555
O2    O     O_R   0.948030 0.090450 0.538510 -0.621448
O3    O     O_R   0.141850 0.090470 0.551380 -0.556239
O4    O     O_R   0.409230 0.460600 0.550770 -0.617740
O5    O     O_R   0.039050 0.090460 0.448590 -0.549104
O6    O     O_R   0.051970 0.909550 0.461490 -0.593597
O7    O     O_R   0.949170 0.909540 0.358700 -0.616143
O8    O     O_R   0.960950 0.909540 0.551410 -0.626828
O9    O     O_R   0.858150 0.909530 0.448620 -0.621057
O10   O     O_R   0.591360 0.448940 0.540280 -0.632516
O11   O     O_R   0.590720 0.551070 0.641790 -0.623765
O12   O     O_R   0.048480 0.460610 0.906920 -0.610174
O13   O     O_R   0.590770 0.539400 0.449230 -0.617716
O14   O     O_R   0.590130 0.641530 0.550740 -0.626768
O15   O     O_R   0.409280 0.448930 0.358210 -0.610657
O16   O     O_R   0.408640 0.551060 0.459720 -0.619536
O17   O     O_R   0.946350 0.358500 0.906960 -0.632376
O18   O     O_2   0.131932 0.264092 0.424378 -0.313196
O19   O     O_2   0.185441 0.191182 0.338747 -0.300115
O20   O     O_3   0.032089 0.100764 0.310075 -0.522669
O21   O     O_2   0.318346 0.169189 0.651363 -0.234443
O22   O     O_2   0.247635 0.033365 0.514972 -0.322621
O23   O     O_R   0.854760 0.448970 0.905840 -0.616513
O24   O     O_3   0.404337 0.149305 0.571058 -0.543366
O25   O     O_R   0.956890 0.551080 0.905790 -0.627561
O26   O     O_R   0.945260 0.539450 0.086770 -0.614387
O27   O     O_R   0.047380 0.641560 0.086730 -0.624178
O28   O     O_R   0.036850 0.448980 0.087900 -0.612221
O29   O     O_R   0.138970 0.551100 0.087860 -0.622912
O30   O     O_R   0.050830 0.090460 0.641300 -0.617198
S1    S     S_3+6 0.133908 0.181606 0.384831 0.014755
S2    S     S_3+6 0.307057 0.129738 0.561604 0.033549
Zn1   Zn    Zn3+2 0.500430 0.431810 0.432220 0.976379
Zn2   Zn    Zn3+2 0.499570 0.568190 0.567780 0.975959
Zn3   Zn    Zn3+2 0.928680 0.431850 0.996880 0.977612
Zn4   Zn    Zn3+2 0.065060 0.568210 0.996820 0.964110
Zn5   Zn    Zn3+2 0.068640 0.000010 0.568630 1.062278
Zn6   Zn    Zn3+2 0.931360 0.999990 0.431370 1.020422

loop_
_geom_bond_atom_site_label_1
_geom_bond_atom_site_label_2
_ccdc_geom_bond_type
O20   S1    S    
O1    Zn1   S    
C26   O9    A    
C22   C29   S    
C27   C29   D    
C25   O6    A    
C6    H12   S    
C35   C36   D    
C34   C42   A    
C22   O2    A    
C2    H19   S    
C19   O23   A    
C22   O30   A    
C5    S1    S    
C45   C46   A    
C2    C46   A    
C8    H23   S    
C37   C38   A    
O5    Zn6   S    
O29   Zn4   S    
C18   O17   A    
C14   H28   S    
O12   Zn4   S    
C12   C43   A    
C38   C39   A    
O14   Zn2   S    
O10   Zn1   S    
O23   Zn3   S    
O4    Zn2   S    
C12   C37   A    
O3    Zn5   S    
H21   O24   S    
O19   S1    D    
C7    H22   S    
C8    C9    D    
C4    O10   A    
C16   O13   A    
C28   O15   A    
O11   Zn2   S    
C32   H9    S    
H20   O20   S    
C10   H25   S    
C36   H13   S    
C33   H10   S    
C40   H16   S    
O26   Zn3   S    
C26   O8    A    
C13   C14   D    
C27   C30   S    
C25   O7    A    
C1    O4    A    
C15   H2    S    
C27   H5    S    
C3    S2    S    
C39   H15   S    
C30   H7    S    
C1    O1    A    
C32   C35   S    
C34   C44   A    
C9    H24   S    
C39   C40   A    
C19   O25   A    
C11   H26   S    
C16   C17   S    
C4    O11   A    
O27   Zn4   S    
O25   Zn4   S    
C21   O29   A    
C19   C23   S    
C12   C41   A    
O21   S2    D    
C37   H3    S    
O18   S1    D    
C24   O5    A    
C20   O26   A    
O7    Zn6   S    
O2    Zn6   S    
C23   C34   A    
O15   Zn1   S    
C18   O12   A    
C14   C26   S    
C38   H14   S    
C21   O28   A    
C40   C41   A    
C13   H27   S    
C13   C15   S    
C42   C43   A    
C44   C45   A    
C15   C17   D    
O22   S2    D    
C46   H1    S    
C1    C7    S    
C3    C5    D    
C23   C41   A    
C17   H4    S    
O30   Zn5   S    
C6    C7    D    
C20   O27   A    
C4    C43   S    
C45   H18   S    
O24   S2    S    
C35   H11   S    
C32   C33   D    
O17   Zn3   S    
O16   Zn2   S    
O8    Zn5   S    
C9    C21   S    
C30   C31   D    
C5    C24   S    
C11   C28   S    
C2    C42   A    
O6    Zn5   S    
C31   H8    S    
C10   C11   D    
C20   C36   S    
C24   O3    A    
O13   Zn1   S    
C8    C10   S    
C44   H17   S    
C3    C6    S    
C16   O14   A    
O9    Zn6   S    
O28   Zn3   S    
C28   O16   A    
C18   C31   S    
C25   C33   S    
C29   H6    S    
