data_mof_unit_9891.cif
_audit_creation_date              2012-12-10T17:53:12-0500
_audit_creation_method            fapswitch 2.2
_symmetry_space_group_name_H-M    P1
_symmetry_Int_Tables_number       1
_space_group_crystal_system       triclinic
_cell_length_a                    14.696401
_cell_length_b                    14.75345
_cell_length_c                    27.765831
_cell_angle_alpha                 76.626612
_cell_angle_beta                  102.654822
_cell_angle_gamma                 114.834912
_cell_volume                      5264.43371641

loop_
_atom_site_label
_atom_site_type_symbol
_atom_type_description
_atom_site_fract_x
_atom_site_fract_y
_atom_site_fract_z
_atom_type_partial_charge
C1    C     C_R   0.880798 0.311965 0.507385 0.800153
C2    C     C_R   0.119835 0.687910 0.490560 0.798201
C3    C     C_R   0.989825 0.535534 0.893252 -0.120891
C4    C     C_R   0.991291 0.546748 0.095693 -0.122285
C5    C     C_R   0.910482 0.460504 0.867936 -0.185725
C6    C     C_R   0.064093 0.628041 0.119446 -0.179780
C7    C     C_R   0.826933 0.392390 0.892477 0.385192
C8    C     C_R   0.130432 0.712373 0.090682 0.381845
C9    C     C_R   0.073198 0.604090 0.868895 0.028654
C10   C     C_R   0.922726 0.463857 0.123691 0.031523
C11   C     C_R   0.003292 0.509272 0.645026 -0.130038
C12   C     C_R   0.005755 0.512220 0.354169 -0.105985
C13   C     C_R   0.912495 0.465998 0.020572 0.115553
C14   C     C_R   0.065370 0.619372 0.967563 0.115633
C15   C     C_R   0.058735 0.628470 0.016440 -0.122561
C16   C     C_R   0.905622 0.469677 0.968349 -0.124680
C17   C     C_R   0.987608 0.547146 0.044135 -0.001100
C18   C     C_R   0.986945 0.541370 0.943179 -0.000772
C19   C     C_R   0.849791 0.381440 0.050564 -0.175905
C20   C     C_R   0.150401 0.682619 0.943157 -0.174330
C21   C     C_R   0.853333 0.381373 0.100871 -0.194697
C22   C     C_R   0.153516 0.676060 0.894509 -0.192366
C23   C     C_R   0.000893 0.502193 0.592436 0.827805
C24   C     C_R   0.001285 0.501934 0.407543 0.819100
C25   C     C_R   0.820087 0.405098 0.940093 0.304213
C26   C     C_R   0.119372 0.716363 0.038550 0.302311
C27   C     C_R   0.815528 0.203991 0.506059 -0.161878
C28   C     C_R   0.187954 0.795922 0.482577 -0.156973
C29   C     C_R   0.785571 0.029200 0.505426 -0.256745
C30   C     C_R   0.220857 0.974294 0.468191 -0.284504
C31   C     C_R   0.853779 0.128411 0.509376 0.450184
C32   C     C_R   0.151819 0.874561 0.469592 0.470446
C33   C     C_R   0.710949 0.177552 0.498546 -0.309457
C34   C     C_R   0.292712 0.820697 0.488140 -0.331058
C35   C     C_R   0.641944 0.079000 0.492559 0.091451
C36   C     C_R   0.362526 0.921840 0.481692 0.090663
C37   C     C_R   0.680775 0.004034 0.497036 0.079298
C38   C     C_R   0.324611 0.998733 0.473017 0.094592
C39   C     C_R   0.535425 0.052572 0.483990 0.083478
C40   C     C_R   0.468808 0.948922 0.485175 0.080574
C41   C     C_R   0.510684 0.876539 0.488844 -0.221236
C42   C     C_R   0.493424 0.126662 0.473677 -0.220840
C43   C     C_R   0.614673 0.904102 0.494152 -0.195960
C44   C     C_R   0.390083 0.099900 0.468457 -0.197497
C45   C     C_R   0.916434 0.457571 0.818236 0.582350
C46   C     C_R   0.067084 0.622545 0.171338 0.584541
C47   C     C_R   0.700096 0.641798 0.406585 -0.322452
C48   C     C_R   0.294144 0.348160 0.590325 -0.304542
C49   C     C_R   0.784594 0.617297 0.422111 0.078048
C50   C     C_R   0.208454 0.370647 0.574235 0.083505
C51   C     C_R   0.720934 0.520126 0.497146 0.009645
C52   C     C_R   0.283198 0.487590 0.505482 -0.011811
C53   C     C_R   0.629916 0.537464 0.482216 -0.023658
C54   C     C_R   0.372832 0.467856 0.519736 -0.017940
C55   C     C_R   0.622715 0.602563 0.436533 0.166737
C56   C     C_R   0.376695 0.396737 0.563412 0.150691
C57   C     C_R   0.545845 0.491626 0.510081 0.071818
C58   C     C_R   0.457797 0.515374 0.492488 0.077829
C59   C     C_R   0.457072 0.584507 0.447865 -0.238012
C60   C     C_R   0.545728 0.420948 0.554151 -0.233137
C61   C     C_R   0.537547 0.626332 0.420392 -0.198098
C62   C     C_R   0.462716 0.374476 0.580034 -0.187666
C63   C     C_R   0.075373 0.598200 0.819520 0.538450
C64   C     C_R   0.926740 0.463480 0.174533 0.534710
C65   C     C_R   0.078762 0.503648 0.732426 -0.209944
C66   C     C_R   0.013846 0.447904 0.283110 -0.207229
C67   C     C_R   0.082950 0.500821 0.682750 0.425669
C68   C     C_R   0.006829 0.433648 0.334092 0.431381
C69   C     C_R   0.925685 0.527968 0.657543 -0.290082
C70   C     C_R   0.000849 0.599442 0.322165 -0.317487
C71   C     C_R   0.925169 0.535345 0.706522 -0.105086
C72   C     C_R   0.999480 0.609478 0.270839 -0.102683
C73   C     C_R   0.000844 0.521962 0.744347 0.286969
C74   C     C_R   0.006433 0.533859 0.250943 0.277076
Cu1   Cu    Cu3+1 0.081740 0.475690 0.513040 0.941206
Cu2   Cu    Cu3+1 0.918260 0.524310 0.486960 0.941703
H1    H     H_    0.318476 0.759620 0.498621 0.173321
H2    H     H_    0.684978 0.235259 0.499257 0.173004
H3    H     H_    0.144959 0.333934 0.595182 0.168506
H4    H     H_    0.841517 0.642830 0.397719 0.111775
H5    H     H_    0.694234 0.689220 0.370819 0.136101
H6    H     H_    0.296076 0.293493 0.623761 0.150927
H7    H     H_    0.394248 0.606640 0.432367 0.136411
H8    H     H_    0.608363 0.398379 0.569401 0.136559
H9    H     H_    0.020148 0.389686 0.267997 0.151370
H10   H     H_    0.136433 0.491584 0.761847 0.151514
H11   H     H_    0.802740 0.314956 0.122119 0.184775
H12   H     H_    0.220116 0.727074 0.877261 0.185605
N1    N     N_R   0.997742 0.525819 0.795243 -0.457913
N2    N     N_R   0.999757 0.540689 0.197721 -0.455471
N3    N     N_R   0.795430 0.560780 0.467350 -0.171680
N4    N     N_R   0.204570 0.439220 0.532650 -0.206024
O1    O     O_R   0.977900 0.338120 0.517190 -0.572218
O2    O     O_R   0.022100 0.661880 0.482810 -0.550316
O3    O     O_R   0.839850 0.379180 0.495160 -0.587043
O4    O     O_R   0.160150 0.620820 0.504840 -0.606356
O5    O     O_R   0.069030 0.479490 0.580750 -0.546192
O6    O     O_R   0.930970 0.520510 0.419250 -0.603596
O7    O     O_R   0.930970 0.520550 0.558720 -0.591619
O8    O     O_R   0.069030 0.479450 0.441280 -0.568496
O9    O     O_2   0.841764 0.387408 0.792811 -0.510287
O10   O     O_2   0.136952 0.697624 0.195465 -0.519678
O11   O     O_2   0.857528 0.386416 0.200658 -0.568783
O12   O     O_2   0.153948 0.665212 0.795678 -0.559708
H13   H     H_    0.864740 0.536812 0.629436 0.179692
H14   H     H_    0.996467 0.659183 0.336898 0.151828
O13   O     O_3   0.049841 0.856430 0.461589 -0.599973
C75   C     C_3   0.009426 0.840557 0.411564 0.092269
H15   H     H_    0.926315 0.804060 0.410249 0.165842
H16   H     H_    0.034331 0.788659 0.399378 0.120323
C76   C     C_3   0.031583 0.939620 0.374594 -0.411779
H17   H     H_    0.000314 0.987035 0.385754 0.230179
H18   H     H_    0.114406 0.981292 0.374502 0.221167
C77   C     C_3   0.982630 0.919351 0.321621 -0.906828
H19   H     H_    0.013156 0.872613 0.309162 0.257627
H20   H     H_    0.999339 0.992234 0.295671 0.264261
H21   H     H_    0.899199 0.879330 0.320095 0.249289
O14   O     O_3   0.955422 0.145176 0.523692 -0.609526
C78   C     C_3   0.011563 0.196421 0.483198 0.112133
H22   H     H_    0.083980 0.253765 0.498055 0.201814
H23   H     H_    0.974352 0.238222 0.452738 0.158943
C79   C     C_3   0.036626 0.124738 0.461608 -0.382909
H24   H     H_    0.061139 0.073068 0.492374 0.253214
H25   H     H_    0.967766 0.078417 0.438722 0.198873
C80   C     C_3   0.121810 0.185133 0.429347 -0.916075
H26   H     H_    0.106885 0.247680 0.403013 0.305513
H27   H     H_    0.128974 0.136433 0.406759 0.241768
H28   H     H_    0.194941 0.217572 0.453506 0.253140
H29   H     H_    0.815018 0.971165 0.509739 0.160870
H30   H     H_    0.192678 0.033173 0.462284 0.164837
H31   H     H_    0.465064 0.797943 0.486525 0.143084
H32   H     H_    0.537983 0.206759 0.467901 0.145522
H33   H     H_    0.532521 0.677191 0.385737 0.145425
H34   H     H_    0.465864 0.320107 0.613478 0.149865
H35   H     H_    0.274072 0.541801 0.473496 0.132224
H36   H     H_    0.733909 0.473350 0.531671 0.121886
H37   H     H_    0.864993 0.550350 0.715243 0.159172
H38   H     H_    0.991988 0.675595 0.246534 0.164974
O15   O     O_3   0.746651 0.319470 0.868136 -0.559613
C81   C     C_3   0.740239 0.221219 0.891853 0.114103
H39   H     H_    0.661160 0.167602 0.882542 0.163147
H40   H     H_    0.755285 0.213128 0.933422 0.142717
C82   C     C_3   0.811152 0.189843 0.872524 -0.340011
H41   H     H_    0.790761 0.191192 0.831469 0.263497
H42   H     H_    0.890678 0.243893 0.880310 0.212797
C83   C     C_3   0.803712 0.083738 0.897434 -0.940780
H43   H     H_    0.826099 0.080945 0.938478 0.257855
H44   H     H_    0.855357 0.063140 0.882425 0.268449
H45   H     H_    0.725160 0.027717 0.889702 0.261298
O16   O     O_3   0.198279 0.796161 0.112290 -0.562450
C84   C     C_3   0.299465 0.811105 0.110495 0.114385
H46   H     H_    0.346681 0.892959 0.110211 0.161965
H47   H     H_    0.309669 0.791944 0.076027 0.142681
C85   C     C_3   0.339423 0.751562 0.156780 -0.333684
H48   H     H_    0.335546 0.776040 0.190974 0.261969
H49   H     H_    0.291845 0.669472 0.158367 0.217677
C86   C     C_3   0.448873 0.768602 0.155761 -0.944420
H50   H     H_    0.454537 0.742728 0.122411 0.258696
H51   H     H_    0.475659 0.724909 0.189824 0.264980
H52   H     H_    0.498426 0.850048 0.154896 0.259940
O17   O     O_3   0.998978 0.342740 0.364404 -0.646179
C87   C     C_3   0.905587 0.264530 0.350054 -0.001834
H53   H     H_    0.910714 0.191474 0.368892 0.172159
H54   H     H_    0.890942 0.261174 0.309318 0.170530
C88   C     C_3   0.816421 0.273033 0.366363 -0.356944
H55   H     H_    0.837011 0.289222 0.405196 0.212334
H56   H     H_    0.799422 0.336647 0.341783 0.224249
C89   C     C_3   0.721631 0.175853 0.363762 -0.869931
H57   H     H_    0.698691 0.158663 0.324970 0.261851
H58   H     H_    0.658768 0.185011 0.375442 0.261647
H59   H     H_    0.735832 0.111629 0.389279 0.250248
O18   O     O_3   0.160065 0.481243 0.671932 -0.602489
C90   C     C_3   0.253725 0.565016 0.677454 0.036241
H60   H     H_    0.314166 0.534926 0.690784 0.168766
H61   H     H_    0.259603 0.610520 0.705832 0.147606
C91   C     C_3   0.274378 0.633434 0.626985 -0.309856
H62   H     H_    0.272948 0.588496 0.599576 0.252717
H63   H     H_    0.214555 0.664230 0.612912 0.211201
C92   C     C_3   0.377268 0.721332 0.631300 -0.909852
H64   H     H_    0.380310 0.768616 0.657938 0.265481
H65   H     H_    0.389761 0.769219 0.594172 0.264157
H66   H     H_    0.438669 0.692520 0.644327 0.256737
H67   H     H_    0.800201 0.312157 0.036488 0.193989
H68   H     H_    0.217763 0.735095 0.961773 0.192954
O19   O     O_3   0.727461 0.355989 0.957789 -0.634433
C93   C     C_3   0.665362 0.411137 0.936726 0.102235
H69   H     H_    0.585392 0.356453 0.936275 0.168342
H70   H     H_    0.674721 0.447126 0.897097 0.147957
C94   C     C_3   0.683462 0.490768 0.968654 -0.370141
H71   H     H_    0.674883 0.454038 0.008061 0.239509
H72   H     H_    0.761543 0.549252 0.967580 0.217542
C95   C     C_3   0.608918 0.542596 0.949628 -0.912060
H73   H     H_    0.617207 0.581009 0.910452 0.257750
H74   H     H_    0.624375 0.600078 0.973291 0.261130
H75   H     H_    0.529975 0.486391 0.951382 0.257459
O20   O     O_3   0.165702 0.808357 0.009337 -0.635261
C96   C     C_3   0.106578 0.867045 0.000770 0.100294
H76   H     H_    0.158656 0.947827 0.994149 0.167834
H77   H     H_    0.069455 0.857958 0.033593 0.148743
C97   C     C_3   0.027321 0.843806 0.954243 -0.363805
H78   H     H_    0.065205 0.852195 0.922009 0.239785
H79   H     H_    0.971307 0.764718 0.960958 0.216835
C98   C     C_3   0.971048 0.914686 0.941299 -0.920860
H80   H     H_    0.931453 0.906532 0.972809 0.258553
H81   H     H_    0.913932 0.895523 0.907730 0.262942
H82   H     H_    0.024703 0.994461 0.933102 0.258261
H83   H     H_    0.643574 0.846227 0.496867 0.152597
H84   H     H_    0.361156 0.159169 0.460717 0.148574

loop_
_geom_bond_atom_site_label_1
_geom_bond_atom_site_label_2
_ccdc_geom_bond_type
C64   O11   S    
C23   O7    A    
C98   H80   S    
C21   H11   S    
C88   H55   S    
C8    O16   S    
C82   C83   S    
C8    C26   A    
C14   C18   A    
C53   C55   A    
C66   C68   A    
C76   H17   S    
C81   C82   S    
C64   N2    A    
C26   O20   S    
C50   H3    S    
C66   H9    S    
O17   C87   S    
O19   C93   S    
C61   H33   S    
C65   H10   S    
C71   H37   S    
C90   H60   S    
C27   C33   A    
Cu2   O7    S    
C12   C68   A    
C86   H50   S    
C24   O6    A    
C72   H38   S    
C35   C37   A    
C59   H7    S    
C87   H53   S    
Cu2   O3    S    
C9    C22   A    
C78   C79   S    
C29   C37   A    
Cu2   O6    S    
C82   H41   S    
C66   C74   A    
C44   H84   S    
C65   C73   A    
C75   H15   S    
C30   C38   A    
C3    C18   A    
C60   C62   A    
C84   C85   S    
C69   C71   A    
O14   C78   S    
C51   N3    A    
C89   H57   S    
C91   C92   S    
C29   H29   S    
C94   C95   S    
C52   C54   A    
C97   H78   S    
C65   C67   A    
C32   O13   S    
C42   H32   S    
C80   H28   S    
C84   H46   S    
C22   H12   S    
C76   C77   S    
C45   N1    A    
C87   H54   S    
C48   C56   A    
C1    O3    A    
C20   H68   S    
C92   H66   S    
Cu2   O2    S    
C91   H63   S    
C28   C34   A    
C88   H56   S    
C24   O8    A    
C92   H65   S    
C29   C31   A    
C41   C43   A    
C1    C27   S    
C94   H71   S    
C42   C44   A    
C49   N3    A    
C28   C32   A    
C11   C67   A    
Cu1   O4    S    
C77   H19   S    
C39   C42   A    
C83   H44   S    
C78   H23   S    
C10   C21   A    
C98   H82   S    
C54   C56   A    
C59   C61   A    
C70   C72   A    
C13   C19   A    
C43   H83   S    
C95   H75   S    
C14   C20   A    
C36   C40   A    
C81   H39   S    
C85   C86   S    
C47   C49   A    
C70   H14   S    
C19   H67   S    
C39   C40   A    
C5    C7    A    
C53   C57   A    
C45   O9    S    
C15   C26   A    
C6    C8    A    
C58   C59   A    
C30   H30   S    
C27   C31   A    
C51   C53   A    
C95   H74   S    
C37   C43   A    
C96   C97   S    
C35   C39   A    
Cu1   Cu2   S    
C31   O14   S    
C38   C44   A    
C3    C9    A    
C83   H45   S    
C98   H81   S    
C51   H36   S    
C77   H20   S    
C48   H6    S    
C2    O2    A    
O13   C75   S    
C63   N1    A    
C76   H18   S    
C16   C18   A    
C78   H22   S    
C48   C50   A    
C85   H48   S    
C90   H61   S    
C25   O19   S    
Cu1   N4    S    
C68   O17   S    
C4    C17   A    
C72   C74   A    
C40   C41   A    
C23   O5    A    
C20   C22   A    
C96   H77   S    
C88   C89   S    
C80   H26   S    
C56   C62   A    
C52   N4    A    
C4    C6    A    
C4    C10   A    
C36   C38   A    
C7    O15   S    
C79   H25   S    
O18   C90   S    
Cu1   O1    S    
C47   C55   A    
C83   H43   S    
C54   C58   A    
C90   C91   S    
C50   N4    A    
C16   C25   A    
C82   H42   S    
C12   C70   A    
C91   H62   S    
C69   H13   S    
C6    C46   A    
C19   C21   A    
C9    C63   A    
C87   C88   S    
C85   H49   S    
C10   C64   A    
Cu1   O5    S    
C52   H35   S    
C81   H40   S    
O20   C96   S    
C3    C5    A    
C86   H51   S    
O15   C81   S    
C11   C69   A    
C15   C17   A    
C46   N2    A    
C67   O18   S    
C86   H52   S    
C12   C24   S    
C7    C25   A    
C75   C76   S    
C13   C17   A    
C89   H58   S    
C95   H73   S    
C62   H34   S    
C79   C80   S    
C2    O4    A    
C93   H69   S    
C73   N1    S    
C34   H1    S    
C30   C32   A    
C60   H8    S    
C74   N2    S    
C57   C58   A    
C47   H5    S    
C5    C45   A    
C93   C94   S    
C97   C98   S    
C55   C61   A    
C11   C23   S    
Cu1   O8    S    
C33   C35   A    
C75   H16   S    
C63   O12   S    
C34   C36   A    
C84   H47   S    
C96   H76   S    
C33   H2    S    
C77   H21   S    
Cu2   N3    S    
C92   H64   S    
C57   C60   A    
C41   H31   S    
C1    O1    A    
C13   C16   A    
C71   C73   A    
C80   H27   S    
C49   H4    S    
C14   C15   A    
C2    C28   S    
C89   H59   S    
C94   H72   S    
C79   H24   S    
C93   H70   S    
C97   H79   S    
O16   C84   S    
C46   O10   S    
