data_mof_unit_30133.cif
_audit_creation_date              2012-12-10T17:24:43-0500
_audit_creation_method            fapswitch 2.2
_symmetry_space_group_name_H-M    P1
_symmetry_Int_Tables_number       1
_space_group_crystal_system       triclinic
_cell_length_a                    23.501108
_cell_length_b                    10.899019
_cell_length_c                    9.679822
_cell_angle_alpha                 92.413395
_cell_angle_beta                  90.3337
_cell_angle_gamma                 97.64529
_cell_volume                      2454.99707387

loop_
_atom_site_label
_atom_site_type_symbol
_atom_type_description
_atom_site_fract_x
_atom_site_fract_y
_atom_site_fract_z
_atom_type_partial_charge
C1    C     C_R   0.500479 0.262002 0.497527 0.827872
C2    C     C_R   0.959234 0.284829 0.472993 -0.128504
C3    C     C_R   0.018662 0.285538 0.477544 0.432691
C4    C     C_R   0.055140 0.398164 0.510175 -0.133745
C5    C     C_R   0.030681 0.508955 0.531604 -0.086606
C6    C     C_R   0.066118 0.620276 0.570437 -0.095159
C7    C     C_R   0.040915 0.730269 0.595416 0.294481
C8    C     C_R   0.981513 0.727140 0.584298 -0.170019
C9    C     C_R   0.115221 0.404552 0.525334 0.636036
C10   C     C_R   0.125468 0.616024 0.584668 0.601463
C11   C     C_R   0.251201 0.632368 0.520440 0.456624
C12   C     C_R   0.391413 0.500276 0.499606 0.813662
C13   C     C_R   0.309247 0.620837 0.538738 0.372613
C14   C     C_R   0.329542 0.508084 0.497676 -0.373962
C15   C     C_R   0.291246 0.413065 0.429175 0.350117
C16   C     C_R   0.232911 0.426392 0.418113 0.313197
C17   C     C_R   0.210739 0.525134 0.490968 -0.095778
C18   C     C_R   0.760997 0.508617 0.631802 -0.101187
C19   C     C_R   0.701695 0.508082 0.629208 -0.207625
C20   C     C_R   0.671553 0.499295 0.502451 -0.057520
C21   C     C_R   0.701904 0.490406 0.378437 -0.204517
C22   C     C_R   0.761296 0.490364 0.381429 -0.092554
C23   C     C_R   0.494898 0.735676 0.503087 0.847516
C24   C     C_R   0.790961 0.499817 0.508106 0.349585
C25   C     C_R   0.549809 0.137783 0.723740 -0.263023
C26   C     C_R   0.546012 0.094862 0.858550 0.368761
C27   C     C_R   0.513319 0.979475 0.880056 0.461864
C28   C     C_R   0.494085 0.901987 0.765811 -0.163674
C29   C     C_R   0.500722 0.943622 0.630029 -0.023349
C30   C     C_R   0.518403 0.070083 0.613929 0.019317
C31   C     C_R   0.499804 0.126051 0.494709 -0.185587
C32   C     C_R   0.469687 0.049483 0.388383 0.223862
C33   C     C_R   0.464830 0.920206 0.393672 0.247035
C34   C     C_R   0.608879 0.499512 0.500441 0.835588
C35   C     C_R   0.485552 0.866993 0.510515 -0.221066
C36   C     C_R   0.573450 0.693115 0.152110 0.367918
C37   C     C_R   0.595281 0.800049 0.085148 0.336488
C38   C     C_R   0.598817 0.794885 0.946022 -0.309057
C39   C     C_R   0.574469 0.691203 0.867703 0.370054
C40   C     C_R   0.536661 0.592352 0.929572 0.021608
C41   C     C_R   0.536720 0.592223 0.079804 -0.014760
C42   C     C_R   0.460434 0.425436 0.071244 0.504908
C43   C     C_R   0.462142 0.420773 0.922832 0.230146
C44   C     C_R   0.886086 0.611983 0.542394 0.562848
C45   C     C_R   0.875029 0.394383 0.488071 0.565566
C46   C     C_R   0.934756 0.394376 0.494652 -0.096443
C47   C     C_R   0.970501 0.506681 0.524380 -0.012274
C48   C     C_R   0.945966 0.616244 0.550226 -0.055635
Cu1   Cu    Cu3+1 0.500000 0.499990 0.640660 1.034004
Cu2   Cu    Cu3+1 0.500000 0.500010 0.359340 1.097607
H1    H     H_    0.932326 0.197823 0.448703 0.214641
H2    H     H_    0.679591 0.515133 0.726502 0.171668
H3    H     H_    0.679846 0.483458 0.279303 0.169172
H4    H     H_    0.784358 0.483850 0.285452 0.145445
H5    H     H_    0.574853 0.226512 0.707011 0.158379
H6    H     H_    0.469984 0.813251 0.786165 0.203313
H7    H     H_    0.622261 0.873889 0.897473 0.185991
H8    H     H_    0.963252 0.812482 0.602526 0.217473
H9    H     H_    0.783788 0.515962 0.729981 0.144250
N1    N     N_R   0.852066 0.502222 0.511616 -0.470427
N2    N     N_R   0.149559 0.517158 0.528429 -0.429977
N3    N     N_R   0.500540 0.501210 0.147910 -0.187178
N4    N     N_R   0.500560 0.501290 0.852040 -0.210243
O1    O     O_R   0.500000 0.319640 0.618810 -0.557412
O2    O     O_2   0.840137 0.287521 0.459589 -0.517949
O3    O     O_2   0.138558 0.300679 0.548560 -0.434110
O4    O     O_2   0.156805 0.701519 0.667938 -0.408224
O5    O     O_R   0.500000 0.319660 0.381240 -0.526684
O6    O     O_R   0.417880 0.499950 0.618810 -0.554275
O7    O     O_R   0.417880 0.499980 0.381240 -0.507834
O8    O     O_R   0.500000 0.680340 0.618760 -0.557606
O9    O     O_R   0.500000 0.680360 0.381190 -0.497134
O10   O     O_R   0.582120 0.500020 0.618760 -0.536408
O11   O     O_R   0.582120 0.500050 0.381190 -0.531183
O12   O     O_2   0.861966 0.716552 0.565377 -0.517061
Br1   Br    Br    0.429010 0.115147 0.241776 -0.295224
O13   O     O_3   0.571319 0.165651 0.969770 -0.715115
H10   H     H_    0.591219 0.244736 0.936449 0.323699
O14   O     O_3   0.500162 0.937773 0.010021 -0.678912
H11   H     H_    0.517210 0.000338 0.080743 0.392586
Br2   Br    Br    0.419797 0.816731 0.253398 -0.322132
O15   O     O_3   0.416778 0.359674 0.142046 -0.630817
H12   H     H_    0.382699 0.338844 0.081103 0.370455
O16   O     O_3   0.039021 0.175332 0.444168 -0.643371
H13   H     H_    0.072961 0.193918 0.384779 0.381665
O17   O     O_3   0.592822 0.688190 0.284326 -0.699813
H14   H     H_    0.633019 0.729754 0.294069 0.315151
O18   O     O_3   0.618980 0.908069 0.155165 -0.692272
H15   H     H_    0.602064 0.910642 0.248715 0.338722
O19   O     O_3   0.589665 0.689732 0.732002 -0.673685
H16   H     H_    0.617820 0.762060 0.709004 0.305577
Br3   Br    Br    0.409071 0.298435 0.822441 -0.372989
Br4   Br    Br    0.084129 0.891398 0.631546 -0.258254
O20   O     O_3   0.237934 0.751085 0.509398 -0.557480
H17   H     H_    0.205177 0.747315 0.443535 0.344523
O21   O     O_3   0.344919 0.726284 0.584223 -0.619667
H18   H     H_    0.382944 0.705198 0.610211 0.314903
O22   O     O_3   0.308954 0.307411 0.368727 -0.594283
H19   H     H_    0.347379 0.296523 0.404478 0.358186
Br5   Br    Br    0.188938 0.326671 0.274568 -0.309465

loop_
_geom_bond_atom_site_label_1
_geom_bond_atom_site_label_2
_ccdc_geom_bond_type
C12   O6    A    
C45   N1    A    
Cu1   N4    S    
C37   O18   S    
C19   C20   A    
C42   O15   S    
C28   H6    S    
C43   N4    A    
C7    C8    A    
C22   H4    S    
O13   H10   S    
C2    C46   A    
C5    C47   A    
C26   C27   A    
C29   C30   A    
C40   N4    A    
C18   C24   A    
C5    C6    A    
C22   C24   A    
C28   C29   A    
C27   O14   S    
Cu2   O11   S    
C38   C39   A    
C15   C16   A    
C1    C31   S    
C1    O5    A    
C18   C19   A    
Cu1   Cu2   S    
Cu2   O9    S    
C9    O3    S    
C8    H8    S    
C19   H2    S    
C11   C17   A    
C31   C32   A    
C16   C17   A    
C42   N3    A    
C39   O19   S    
C17   N2    S    
Cu1   O1    S    
Cu1   O6    S    
C21   C22   A    
C36   C41   A    
C41   N3    A    
C7    Br4   S    
C26   O13   S    
C13   O21   S    
C23   O8    A    
O16   H13   S    
C39   C40   A    
O17   H14   S    
C16   Br5   S    
C36   O17   S    
C25   C26   A    
C10   O4    S    
C44   O12   S    
C8    C48   A    
C6    C10   A    
C37   C38   A    
C38   H7    S    
C47   C48   A    
C24   N1    S    
O21   H18   S    
C20   C21   A    
C34   O11   A    
C11   O20   S    
C40   C41   A    
C12   C14   S    
O22   H19   S    
C23   C35   S    
C45   O2    S    
Cu2   N3    S    
C9    N2    A    
C10   N2    A    
C42   C43   A    
C15   O22   S    
C3    C4    A    
C1    O1    A    
C27   C28   A    
C25   C30   A    
C12   O7    A    
C46   C47   A    
C36   C37   A    
C23   O9    A    
C25   H5    S    
C4    C5    A    
C32   Br1   S    
C6    C7    A    
C29   C35   A    
C43   Br3   S    
C32   C33   A    
C2    C3    A    
Cu2   O7    S    
C20   C34   S    
C21   H3    S    
C11   C13   A    
O19   H16   S    
C30   C31   A    
Cu2   O5    S    
C44   N1    A    
C33   C35   A    
Cu1   O10   S    
O20   H17   S    
C2    H1    S    
C34   O10   A    
O14   H11   S    
C45   C46   A    
C18   H9    S    
O18   H15   S    
O15   H12   S    
Cu1   O8    S    
C3    O16   S    
C14   C15   A    
C4    C9    A    
C13   C14   A    
C33   Br2   S    
C44   C48   A    
