data_mof_unit_48502.cif
_audit_creation_date              2012-12-10T18:47:48-0500
_audit_creation_method            fapswitch 2.2
_symmetry_space_group_name_H-M    P1
_symmetry_Int_Tables_number       1
_space_group_crystal_system       triclinic
_cell_length_a                    9.861157
_cell_length_b                    10.670858
_cell_length_c                    15.378541
_cell_angle_alpha                 89.218546
_cell_angle_beta                  68.674127
_cell_angle_gamma                 89.735615
_cell_volume                      1507.292081

loop_
_atom_site_label
_atom_site_type_symbol
_atom_type_description
_atom_site_fract_x
_atom_site_fract_y
_atom_site_fract_z
_atom_type_partial_charge
C1    C     C_R   0.501989 0.739654 0.496012 0.851097
C2    C     C_R   0.449639 0.940281 0.434150 -0.017152
C3    C     C_R   0.498773 0.127499 0.503085 -0.147183
C4    C     C_R   0.503343 0.872120 0.493686 -0.151450
C5    C     C_R   0.943092 0.395811 0.474631 0.031147
C6    C     C_R   0.056441 0.603816 0.526188 -0.062053
C7    C     C_R   0.086804 0.395907 0.474498 -0.001695
C8    C     C_R   0.912817 0.603779 0.526191 -0.046031
C9    C     C_R   0.409580 0.498811 0.676274 0.859815
C10   C     C_R   0.590299 0.498038 0.323793 0.851946
C11   C     C_R   0.353415 0.485265 0.777935 -0.062389
C12   C     C_R   0.498866 0.260145 0.502439 0.850479
C13   C     C_R   0.642397 0.470439 0.224281 -0.058181
C14   C     C_R   0.156162 0.489778 0.927612 -0.198992
C15   C     C_R   0.807822 0.361151 0.090814 -0.222524
C16   C     C_R   0.205763 0.503024 0.830927 -0.163758
C17   C     C_R   0.776004 0.410717 0.179573 -0.180935
C18   C     C_R   0.449281 0.449425 0.821954 -0.280801
C19   C     C_R   0.542779 0.480846 0.179476 -0.264520
C20   C     C_R   0.399288 0.424469 0.918027 0.088408
C21   C     C_R   0.563825 0.416150 0.097369 0.091257
C22   C     C_R   0.252582 0.453419 0.971608 0.136228
C23   C     C_R   0.301488 0.423234 0.113850 -0.008596
C24   C     C_R   0.702805 0.364827 0.048911 0.145310
C25   C     C_R   0.495129 0.384712 0.963141 -0.032611
C26   C     C_R   0.452715 0.408359 0.059717 -0.028778
C27   C     C_2   0.239354 0.397434 0.216003 0.378081
C28   C     C_2   0.661220 0.252335 0.830009 0.426945
C29   C     C_2   0.605644 0.118561 0.630683 0.402560
C30   C     C_2   0.404197 0.879661 0.362429 0.406650
C31   C     C_R   0.631673 0.324300 0.916651 -0.049816
C32   C     C_R   0.204027 0.446718 0.068443 -0.211603
C33   C     C_R   0.733530 0.315335 0.960570 -0.205185
C34   C     C_R   0.556497 0.930308 0.555368 -0.142037
C35   C     C_R   0.446342 0.069324 0.440786 -0.138860
C36   C     C_R   0.554741 0.059032 0.561268 -0.019612
H1    H     H_    0.089902 0.461985 0.108727 0.179215
H2    H     H_    0.407513 0.125498 0.395236 0.179774
H3    H     H_    0.901446 0.312543 0.453701 0.141382
H4    H     H_    0.097988 0.686973 0.547328 0.147596
H5    H     H_    0.153127 0.312734 0.453341 0.134152
H6    H     H_    0.846436 0.686905 0.547424 0.147528
H7    H     H_    0.301486 0.345433 0.249943 0.084570
H8    H     H_    0.571383 0.221821 0.810809 0.077722
H9    H     H_    0.578891 0.215136 0.650822 0.066231
H10   H     H_    0.428400 0.781889 0.345148 0.077797
H11   H     H_    0.837222 0.269319 0.925939 0.186825
H12   H     H_    0.445813 0.536586 0.211307 0.165277
H13   H     H_    0.564264 0.445223 0.780918 0.165981
H14   H     H_    0.852982 0.398718 0.214366 0.190090
H15   H     H_    0.129801 0.530564 0.798021 0.166044
H16   H     H_    0.043157 0.510138 0.967980 0.150633
H17   H     H_    0.912258 0.316517 0.056296 0.145663
H18   H     H_    0.595269 0.874282 0.601036 0.184419
N1    N     N_R   0.142780 0.500030 0.500020 -0.092844
N2    N     N_R   0.857220 0.499970 0.499980 -0.091653
O1    O     O_R   0.385370 0.683250 0.500010 -0.631595
O2    O     O_2   0.785409 0.225246 0.780037 -0.530407
O3    O     O_2   0.678017 0.059431 0.666843 -0.544494
O4    O     O_2   0.340292 0.939030 0.320608 -0.568808
O5    O     O_R   0.614630 0.316750 0.499990 -0.634409
O6    O     O_R   0.614700 0.683220 0.500000 -0.613445
O7    O     O_R   0.385300 0.316780 0.500000 -0.615552
O8    O     O_R   0.319830 0.500020 0.632250 -0.603491
O9    O     O_R   0.680170 0.499980 0.367750 -0.587967
O10   O     O_R   0.549160 0.499990 0.632240 -0.618981
O11   O     O_R   0.450840 0.500010 0.367760 -0.620270
O12   O     O_2   0.116920 0.432475 0.263244 -0.595400
Zn1   Zn    Zn3+2 0.346870 0.500020 0.500000 0.960224
Zn2   Zn    Zn3+2 0.653130 0.499980 0.500000 0.973034

loop_
_geom_bond_atom_site_label_1
_geom_bond_atom_site_label_2
_ccdc_geom_bond_type
C17   H14   S    
C25   C31   A    
C2    C4    A    
C21   C26   A    
C31   C33   A    
C11   C18   A    
C27   O12   D    
C13   C17   A    
C9    O8    A    
C11   C16   A    
C5    N2    A    
N2    Zn2   S    
C24   C33   A    
C16   H15   S    
C3    C35   A    
C6    N1    A    
C2    C30   S    
C1    C4    S    
C23   C32   A    
C14   C22   A    
C7    H5    S    
C9    O10   A    
O5    Zn2   S    
N1    Zn1   S    
O8    Zn1   S    
C1    O6    A    
C28   O2    D    
C12   O5    A    
C9    C11   S    
C29   C36   S    
C8    N2    A    
O10   Zn2   S    
C22   C32   A    
C3    C36   A    
C7    N1    A    
C15   H17   S    
C14   H16   S    
C15   C24   A    
C19   C21   A    
C20   C22   A    
C10   C13   S    
C34   H18   S    
C34   C36   A    
C23   C27   S    
C5    H3    S    
C4    C34   A    
C33   H11   S    
C14   C16   A    
C21   C24   A    
C32   H1    S    
C20   C25   A    
C13   C19   A    
O9    Zn2   S    
C27   H7    S    
C28   C31   S    
C6    H4    S    
C30   O4    D    
O6    Zn2   S    
C18   C20   A    
C5    C7    A    
C23   C26   A    
C29   H9    S    
C15   C17   A    
C12   O7    A    
C29   O3    D    
C35   H2    S    
C6    C8    A    
C3    C12   S    
C19   H12   S    
O1    Zn1   S    
C25   C26   A    
C10   O11   A    
C28   H8    S    
C2    C35   A    
C30   H10   S    
O7    Zn1   S    
C18   H13   S    
C8    H6    S    
O11   Zn1   S    
C10   O9    A    
C1    O1    A    
