data_mof_unit_24764.cif
_audit_creation_date              2012-12-11T14:25:00-0500
_audit_creation_method            fapswitch 2.2
_symmetry_space_group_name_H-M    P1
_symmetry_Int_Tables_number       1
_space_group_crystal_system       triclinic
_cell_length_a                    19.19155
_cell_length_b                    11.037178
_cell_length_c                    18.601432
_cell_angle_alpha                 90.190118
_cell_angle_beta                  92.166592
_cell_angle_gamma                 90.27581
_cell_volume                      3937.2791411

loop_
_atom_site_label
_atom_site_type_symbol
_atom_type_description
_atom_site_fract_x
_atom_site_fract_y
_atom_site_fract_z
_atom_type_partial_charge
C1    C     C_R   0.731390 0.380785 0.149080 0.547619
C2    C     C_R   0.270315 0.376421 0.853358 0.537867
C3    C     C_R   0.230735 0.878456 0.147758 0.532975
C4    C     C_R   0.769199 0.878749 0.852055 0.554116
C5    C     C_3   0.495000 0.059230 0.024183 -0.136241
C6    C     C_3   0.544650 0.069157 0.961295 -0.178087
C7    C     C_3   0.002578 0.556802 0.020883 -0.138055
C8    C     C_3   0.052702 0.575912 0.958835 -0.161901
C9    C     C_R   0.749408 0.919882 0.923032 -0.011483
C10   C     C_R   0.250688 0.920960 0.076865 -0.008605
C11   C     C_R   0.254511 0.409863 0.926873 -0.010249
C12   C     C_R   0.753902 0.431624 0.081090 -0.005829
C13   C     C_R   0.693400 0.866023 0.959054 0.016976
C14   C     C_R   0.305621 0.866877 0.039719 0.021404
C15   C     C_R   0.197082 0.359930 0.962244 0.018356
C16   C     C_R   0.810407 0.382175 0.045134 0.022829
C17   C     C_R   0.696049 0.863153 0.035282 0.026459
C18   C     C_R   0.301282 0.861078 0.963569 0.015528
C19   C     C_R   0.199172 0.354875 0.038377 0.023815
C20   C     C_R   0.807327 0.376805 0.968980 0.014758
C21   C     C_R   0.800012 0.989571 0.035393 -0.108138
C22   C     C_R   0.201587 0.995291 0.965306 -0.091556
C23   C     C_R   0.307512 0.468676 0.040468 -0.103405
C24   C     C_R   0.708096 0.511671 0.969623 -0.107092
C25   C     C_R   0.800101 0.985323 0.962068 -0.149329
C26   C     C_R   0.200970 0.988594 0.038655 -0.142926
C27   C     C_R   0.308952 0.463528 0.967340 -0.135375
C28   C     C_R   0.705639 0.501995 0.042894 -0.135493
C29   C     C_R   0.635679 0.812479 0.921510 -0.112050
C30   C     C_R   0.363874 0.816063 0.076054 -0.090797
C31   C     C_R   0.137638 0.314761 0.924235 -0.107099
C32   C     C_R   0.867615 0.331457 0.083076 -0.085968
C33   C     C_R   0.085642 0.255974 0.959842 -0.140185
C34   C     C_R   0.912759 0.256678 0.048165 -0.144518
C35   C     C_R   0.586128 0.747683 0.957766 -0.136095
C36   C     C_R   0.409955 0.745073 0.039316 -0.144027
C37   C     C_R   0.593349 0.734183 0.031630 -0.139040
C38   C     C_R   0.400509 0.725558 0.965820 -0.134044
C39   C     C_R   0.093166 0.234692 0.033137 -0.139302
C40   C     C_R   0.903885 0.236350 0.974694 -0.140900
C41   C     C_R   0.647245 0.791146 0.070443 -0.093441
C42   C     C_R   0.346988 0.783917 0.927698 -0.084339
C43   C     C_R   0.148747 0.285228 0.072782 -0.090435
C44   C     C_R   0.852785 0.297550 0.934661 -0.090996
C45   C     C_R   0.561925 0.151197 0.137938 0.580684
C46   C     C_R   0.468559 0.156154 0.854626 0.544756
C47   C     C_R   0.062278 0.651412 0.137810 0.581406
C48   C     C_R   0.970986 0.656557 0.853061 0.554613
C49   C     C_R   0.748289 0.930510 0.073487 0.010454
C50   C     C_R   0.250937 0.932019 0.926282 0.005852
C51   C     C_R   0.251985 0.419111 0.077237 0.000223
C52   C     C_R   0.756913 0.447084 0.930913 -0.012228
C53   C     C_R   0.457265 0.149460 0.563892 -0.005504
C54   C     C_R   0.511358 0.163792 0.427308 -0.003916
C55   C     C_R   0.988322 0.663057 0.572618 -0.001692
C56   C     C_R   0.042336 0.649725 0.436005 -0.005275
C57   C     C_R   0.497280 0.051837 0.536793 0.029581
C58   C     C_R   0.534622 0.073540 0.475870 0.020907
C59   C     C_R   0.965868 0.570926 0.524251 0.022535
C60   C     C_R   0.003002 0.550560 0.463048 0.030687
C61   C     C_R   0.461051 0.246945 0.447750 -0.136073
C62   C     C_R   0.438064 0.245324 0.518041 -0.138371
C63   C     C_R   0.060792 0.746750 0.481846 -0.139305
C64   C     C_R   0.037781 0.748216 0.552070 -0.137568
C65   C     C_R   0.501998 0.932933 0.566573 -0.089957
C66   C     C_R   0.589426 0.994859 0.461074 -0.070103
C67   C     C_R   0.911742 0.489960 0.539142 -0.068679
C68   C     C_R   0.998581 0.431458 0.432810 -0.089281
C69   C     C_R   0.913197 0.372328 0.513058 -0.114797
C70   C     C_R   0.954921 0.343686 0.458088 -0.130223
C71   C     C_R   0.546459 0.846866 0.541240 -0.131292
C72   C     C_R   0.588282 0.877199 0.486594 -0.115132
C73   C     C_R   0.792171 0.832282 0.557616 -0.004827
C74   C     C_R   0.265288 0.964670 0.408092 0.000407
C75   C     C_R   0.235591 0.464837 0.592036 -0.000749
C76   C     C_R   0.707461 0.332357 0.441899 -0.005433
C77   C     C_R   0.847010 0.893247 0.520414 -0.003665
C78   C     C_R   0.225889 0.060349 0.433597 0.004422
C79   C     C_R   0.276002 0.560004 0.566586 0.004583
C80   C     C_R   0.652739 0.393003 0.479106 -0.003393
C81   C     C_R   0.839723 0.907553 0.444825 0.027868
C82   C     C_R   0.219706 0.074961 0.508641 0.010171
C83   C     C_R   0.281476 0.575063 0.491501 0.011562
C84   C     C_R   0.659986 0.407539 0.554671 0.028104
C85   C     C_R   0.735936 0.788686 0.440268 -0.158875
C86   C     C_R   0.323372 0.951931 0.524011 -0.157427
C87   C     C_R   0.176595 0.453350 0.476376 -0.157728
C88   C     C_R   0.763746 0.289905 0.558924 -0.161064
C89   C     C_R   0.741096 0.970259 0.148050 0.530999
C90   C     C_R   0.258680 0.970674 0.851798 0.549052
C91   C     C_R   0.241888 0.467710 0.149334 0.543628
C92   C     C_R   0.760809 0.476959 0.854296 0.524367
C93   C     C_R   0.742401 0.767713 0.514926 -0.157097
C94   C     C_R   0.321228 0.925238 0.450663 -0.151259
C95   C     C_R   0.179038 0.426171 0.549594 -0.152020
C96   C     C_R   0.757112 0.268418 0.484321 -0.156738
C97   C     C_R   0.909367 0.939286 0.554117 -0.101671
C98   C     C_R   0.185116 0.128531 0.384794 -0.056048
C99   C     C_R   0.318233 0.627412 0.615255 -0.056745
C100  C     C_R   0.590619 0.438785 0.445400 -0.101902
C101  C     C_R   0.962437 0.991703 0.515113 0.216784
C102  C     C_R   0.124193 0.180602 0.406947 0.232817
C103  C     C_R   0.379504 0.678511 0.592578 0.231414
C104  C     C_R   0.537499 0.490383 0.484385 0.215493
C105  C     C_R   0.957281 0.990856 0.440620 -0.066913
C106  C     C_R   0.113279 0.188006 0.480404 -0.047892
C107  C     C_R   0.388980 0.687698 0.518961 -0.049190
C108  C     C_R   0.542576 0.489891 0.558805 -0.062748
C109  C     C_R   0.897156 0.947564 0.405617 -0.125770
C110  C     C_R   0.162193 0.142402 0.530966 -0.104587
C111  C     C_R   0.339055 0.642685 0.468851 -0.104854
C112  C     C_R   0.602617 0.447754 0.593769 -0.129654
C113  C     C_R   0.775094 0.879881 0.409847 0.003601
C114  C     C_R   0.269569 0.016321 0.555857 -0.008573
C115  C     C_R   0.230777 0.517001 0.444383 -0.008686
C116  C     C_R   0.724599 0.380426 0.589556 -0.000857
C117  C     C_R   0.709462 0.328089 0.361350 0.571654
C118  C     C_R   0.265670 0.388582 0.650821 0.524268
C119  C     C_R   0.234406 0.888368 0.349308 0.526922
C120  C     C_R   0.790391 0.827931 0.638351 0.570628
C121  C     C_R   0.534354 0.157487 0.353659 0.534210
C122  C     C_R   0.436786 0.151189 0.638777 0.532238
C123  C     C_R   0.063128 0.651662 0.361236 0.540749
C124  C     C_R   0.965335 0.657360 0.646197 0.524469
C125  C     C_R   0.747451 0.958965 0.349918 0.519255
C126  C     C_R   0.271139 0.025545 0.636103 0.548243
C127  C     C_R   0.228973 0.525904 0.364079 0.550365
C128  C     C_R   0.752669 0.459964 0.649364 0.503748
C129  C     C_3   0.539418 0.266758 0.966122 0.275770
C130  C     C_3   0.490649 0.257380 0.029555 0.303713
C131  C     C_3   0.037730 0.771811 0.965839 0.259304
C132  C     C_3   0.989049 0.754240 0.028487 0.271527
C133  C     C_3   0.587542 0.169768 0.001310 -0.170104
C134  C     C_3   0.447593 0.157448 0.990035 -0.098810
C135  C     C_3   0.089771 0.680382 0.000822 -0.144244
C136  C     C_3   0.951463 0.649725 0.987132 -0.103943
C137  C     C_3   0.537166 0.159587 0.063562 0.018584
C138  C     C_3   0.497477 0.166635 0.927294 -0.000838
C139  C     C_3   0.039134 0.661106 0.062447 0.010008
C140  C     C_3   0.001955 0.667304 0.925144 0.014678
Cr1   Cr    Cr6+3 0.772820 0.169820 0.252640 0.993623
Cr2   Cr    Cr6+3 0.227180 0.169820 0.747360 0.976556
Cr3   Cr    Cr6+3 0.272820 0.669820 0.252640 0.975350
Cr4   Cr    Cr6+3 0.727180 0.669820 0.747360 0.991277
Cr5   Cr    Cr6+3 0.615040 0.323610 0.249150 0.958175
Cr6   Cr    Cr6+3 0.384960 0.323610 0.750850 0.986506
Cr7   Cr    Cr6+3 0.115040 0.823610 0.249150 0.964614
Cr8   Cr    Cr6+3 0.884960 0.823610 0.750850 0.954437
Cr9   Cr    Cr6+3 0.616720 0.011130 0.250660 0.990355
Cr10  Cr    Cr6+3 0.383280 0.011130 0.749340 1.004671
Cr11  Cr    Cr6+3 0.116720 0.511130 0.250660 0.997849
Cr12  Cr    Cr6+3 0.883280 0.511130 0.749340 0.993625
H1    H     H_    0.645328 0.173820 0.007204 0.119673
H2    H     H_    0.389771 0.153551 0.984435 0.132575
H3    H     H_    0.147092 0.693027 0.007861 0.128072
H4    H     H_    0.894052 0.637583 0.980552 0.137408
H5    H     H_    0.441167 0.314032 0.410088 0.158935
H6    H     H_    0.403639 0.316029 0.535807 0.158268
H7    H     H_    0.094662 0.818666 0.464096 0.158914
H8    H     H_    0.057039 0.816669 0.589661 0.157636
H9    H     H_    0.467756 0.897370 0.604476 0.217543
H10   H     H_    0.628590 0.022205 0.425464 0.163156
H11   H     H_    0.872333 0.516180 0.574527 0.165987
H12   H     H_    0.032306 0.397019 0.394265 0.218585
H13   H     H_    0.887410 0.299872 0.537878 0.121707
H14   H     H_    0.955344 0.252348 0.436751 0.160689
H15   H     H_    0.546291 0.755265 0.561852 0.164198
H16   H     H_    0.613642 0.805672 0.460821 0.122716
H17   H     H_    0.697688 0.740407 0.406807 0.124506
H18   H     H_    0.364503 0.914701 0.556911 0.144244
H19   H     H_    0.134890 0.416892 0.443563 0.145362
H20   H     H_    0.801842 0.242342 0.592371 0.122865
H21   H     H_    0.922353 0.931569 0.609930 0.168754
H22   H     H_    0.195377 0.125933 0.327854 0.111754
H23   H     H_    0.308601 0.625201 0.672323 0.113409
H24   H     H_    0.577719 0.431592 0.389559 0.169376
H25   H     H_    0.706298 0.706127 0.539531 0.146300
H26   H     H_    0.360357 0.868598 0.427890 0.119072
H27   H     H_    0.139629 0.369556 0.572283 0.118539
H28   H     H_    0.793032 0.207065 0.459525 0.145887
H29   H     H_    0.000172 0.022874 0.409612 0.172737
H30   H     H_    0.067650 0.232230 0.499409 0.152882
H31   H     H_    0.434609 0.731744 0.499436 0.152433
H32   H     H_    0.499669 0.521188 0.589827 0.178611
H33   H     H_    0.896235 0.943989 0.347405 0.139746
H34   H     H_    0.151292 0.158527 0.586262 0.174210
H35   H     H_    0.349221 0.659525 0.413509 0.173013
H36   H     H_    0.603294 0.445495 0.651856 0.130695
H37   H     H_    0.477511 0.973387 0.048505 0.160396
H38   H     H_    0.564324 0.996316 0.927653 0.147149
H39   H     H_    0.988641 0.467902 0.043775 0.165838
H40   H     H_    0.077974 0.510732 0.923958 0.139904
H41   H     H_    0.840492 0.043233 0.061834 0.161092
H42   H     H_    0.162574 0.051897 0.939343 0.181210
H43   H     H_    0.349302 0.517968 0.067511 0.167759
H44   H     H_    0.669593 0.567690 0.942972 0.176975
H45   H     H_    0.625732 0.824957 0.864488 0.137904
H46   H     H_    0.375070 0.831566 0.132739 0.137786
H47   H     H_    0.127701 0.331608 0.867615 0.132609
H48   H     H_    0.877019 0.346823 0.140102 0.144033
H49   H     H_    0.843227 0.027494 0.936059 0.135540
H50   H     H_    0.158493 0.031228 0.065229 0.140852
H51   H     H_    0.354994 0.498395 0.942815 0.157019
H52   H     H_    0.662425 0.542297 0.069225 0.137599
H53   H     H_    0.040820 0.225246 0.929014 0.107528
H54   H     H_    0.951913 0.210657 0.079783 0.098782
H55   H     H_    0.544745 0.702312 0.927507 0.116532
H56   H     H_    0.451388 0.702694 0.069255 0.098800
H57   H     H_    0.057501 0.176106 0.059198 0.085258
H58   H     H_    0.934713 0.170145 0.948723 0.079275
H59   H     H_    0.559899 0.673902 0.058909 0.091830
H60   H     H_    0.433755 0.663617 0.938308 0.101847
H61   H     H_    0.652323 0.771538 0.127250 0.131273
H62   H     H_    0.340339 0.764270 0.870876 0.127219
H63   H     H_    0.153332 0.264777 0.129578 0.124994
H64   H     H_    0.846841 0.275618 0.878137 0.130431
O1    O     O_R   0.788190 0.043000 0.172520 -0.540730
O2    O     O_R   0.211810 0.043000 0.827480 -0.531927
O3    O     O_R   0.288190 0.543000 0.172520 -0.527467
O4    O     O_R   0.711810 0.543000 0.827480 -0.554300
O5    O     O_R   0.556550 0.253260 0.323480 -0.544181
O6    O     O_R   0.443450 0.253260 0.676520 -0.503031
O7    O     O_R   0.056550 0.753260 0.323480 -0.488717
O8    O     O_R   0.943450 0.753260 0.676520 -0.548667
O9    O     O_R   0.545830 0.051610 0.330160 -0.513482
O10   O     O_R   0.454170 0.051610 0.669840 -0.536102
O11   O     O_R   0.045830 0.551610 0.330160 -0.527518
O12   O     O_R   0.954170 0.551610 0.669840 -0.519463
O13   O     O_R   0.681920 0.959720 0.327070 -0.521708
O14   O     O_R   0.318080 0.959720 0.672930 -0.509849
O15   O     O_R   0.181920 0.459720 0.327070 -0.510758
O16   O     O_R   0.818080 0.459720 0.672930 -0.520362
O17   O     O_3   0.668190 0.168190 0.250820 -0.287538
O18   O     O_3   0.331810 0.168190 0.749180 -0.279663
O19   O     O_3   0.168190 0.668190 0.250820 -0.299754
O20   O     O_3   0.831810 0.668190 0.749180 -0.263595
O21   O     O_R   0.766240 0.292300 0.176860 -0.501472
O22   O     O_R   0.233760 0.292300 0.823140 -0.510619
O23   O     O_R   0.266240 0.792300 0.176860 -0.506895
O24   O     O_R   0.733760 0.792300 0.823140 -0.501514
O25   O     O_R   0.670310 0.409160 0.168720 -0.555126
O26   O     O_R   0.329690 0.409160 0.831280 -0.530153
O27   O     O_R   0.170310 0.909160 0.168720 -0.563633
O28   O     O_R   0.829690 0.909160 0.831280 -0.546913
O29   O     O_R   0.556160 0.251900 0.173380 -0.499287
O30   O     O_R   0.443840 0.251900 0.826620 -0.507977
O31   O     O_R   0.056160 0.751900 0.173380 -0.498451
O32   O     O_R   0.943840 0.751900 0.826620 -0.514050
O33   O     O_R   0.545410 0.050140 0.168240 -0.515495
O34   O     O_R   0.454590 0.050140 0.831760 -0.510052
O35   O     O_R   0.045410 0.550140 0.168240 -0.507206
O36   O     O_R   0.954590 0.550140 0.831760 -0.513068
O37   O     O_R   0.681530 0.958350 0.176970 -0.522062
O38   O     O_R   0.318470 0.958350 0.823030 -0.502836
O39   O     O_R   0.181530 0.458350 0.176970 -0.519304
O40   O     O_R   0.818470 0.458350 0.823030 -0.504431
O41   O     O_R   0.788610 0.044480 0.334450 -0.535652
O42   O     O_R   0.211390 0.044480 0.665550 -0.523587
O43   O     O_R   0.288610 0.544480 0.334450 -0.520802
O44   O     O_R   0.711390 0.544480 0.665550 -0.539577
O45   O     O_R   0.766630 0.293670 0.326970 -0.481302
O46   O     O_R   0.233370 0.293670 0.673030 -0.532138
O47   O     O_R   0.266630 0.793670 0.326970 -0.529676
O48   O     O_R   0.733370 0.793670 0.673030 -0.483286
O49   O     O_R   0.670730 0.410640 0.330640 -0.542404
O50   O     O_R   0.329270 0.410640 0.669360 -0.529601
O51   O     O_R   0.170730 0.910640 0.330640 -0.532979
O52   O     O_R   0.829270 0.910640 0.669360 -0.549429
O53   O     O_3   0.022523 0.035076 0.548889 -0.746132
H65   H     H_    0.017406 0.035578 0.601729 0.307070
O54   O     O_3   0.073187 0.216913 0.357820 -0.772802
H66   H     H_    0.091280 0.212108 0.308665 0.317852
O55   O     O_3   0.432152 0.711968 0.641104 -0.768346
H67   H     H_    0.416971 0.697793 0.690775 0.317772
O56   O     O_3   0.477407 0.532425 0.450628 -0.744882
H68   H     H_    0.482558 0.532875 0.397791 0.307285
O57   O     O_3   0.567133 0.376464 0.940374 -0.604370
C141  C     C_3   0.582605 0.371000 0.866449 0.007413
H69   H     H_    0.606834 0.457883 0.853698 0.170846
H70   H     H_    0.535422 0.375728 0.831685 0.161349
C142  C     C_3   0.631779 0.266870 0.844817 -0.275149
H71   H     H_    0.681071 0.270356 0.877462 0.159624
H72   H     H_    0.608812 0.176803 0.853729 0.151590
C143  C     C_3   0.647080 0.271351 0.765114 -0.466851
H73   H     H_    0.598207 0.257920 0.732050 0.167829
H74   H     H_    0.684207 0.198394 0.751959 0.154138
H75   H     H_    0.670574 0.359428 0.751563 0.173377
O58   O     O_3   0.454412 0.346375 0.067964 -0.574622
C144  C     C_3   0.497581 0.445571 0.088114 0.030479
H76   H     H_    0.488734 0.516691 0.047268 0.131656
H77   H     H_    0.554131 0.423774 0.089497 0.179620
C145  C     C_3   0.476793 0.490992 0.162949 -0.252281
H78   H     H_    0.423893 0.530150 0.159799 0.165298
H79   H     H_    0.474421 0.413322 0.200480 0.211104
C146  C     C_3   0.526349 0.586302 0.196378 -0.474687
H80   H     H_    0.581495 0.562521 0.189117 0.181176
H81   H     H_    0.517815 0.593041 0.254980 0.127822
H82   H     H_    0.516136 0.676837 0.172927 0.122103
O59   O     O_3   0.065853 0.876504 0.934941 -0.595059
C147  C     C_3   0.013746 0.954853 0.907553 0.005598
H83   H     H_    0.015266 0.034775 0.942560 0.111249
H84   H     H_    0.959702 0.918229 0.908417 0.175316
C148  C     C_3   0.032271 0.993723 0.831471 -0.245617
H85   H     H_    0.082761 0.042667 0.834363 0.186395
H86   H     H_    0.038351 0.912407 0.796977 0.191283
C149  C     C_3   0.978172 0.077394 0.795996 -0.478995
H87   H     H_    0.927290 0.030831 0.789068 0.199481
H88   H     H_    0.995505 0.103811 0.741937 0.121815
H89   H     H_    0.971898 0.160967 0.828210 0.122460
O60   O     O_3   0.948081 0.838895 0.065078 -0.573996
C150  C     C_3   0.988052 0.938752 0.090953 0.026962
H90   H     H_    0.977320 0.015706 0.054660 0.101454
H91   H     H_    0.045379 0.923422 0.092152 0.171540
C151  C     C_3   0.964045 0.972732 0.166229 -0.245306
H92   H     H_    0.912937 0.017643 0.161074 0.173479
H93   H     H_    0.957040 0.889997 0.199039 0.211544
C152  C     C_3   0.014180 0.058387 0.206912 -0.477982
H94   H     H_    0.065633 0.015453 0.216362 0.198758
H95   H     H_    0.992600 0.080109 0.259952 0.155734
H96   H     H_    0.020912 0.144142 0.177194 0.114159

loop_
_geom_bond_atom_site_label_1
_geom_bond_atom_site_label_2
_ccdc_geom_bond_type
C99   C103  A    
Cr6   O18   S    
C133  C137  S    
C55   C59   A    
Cr11  O11   S    
C73   C93   A    
C136  C140  S    
C47   O31   A    
C75   C95   A    
C148  H86   S    
C142  C143  S    
C135  C139  S    
C84   C112  A    
Cr10  O10   S    
C128  O44   A    
C79   C99   A    
C143  H73   S    
C5    C6    S    
Cr10  O38   S    
C123  O11   A    
O54   H66   S    
C100  C104  A    
C121  O9    A    
C39   H57   S    
Cr2   O42   S    
C9    C13   A    
C37   H59   S    
C131  C140  S    
C55   C124  S    
C11   C15   A    
C50   C90   S    
C66   C72   A    
C12   C16   A    
C87   C115  A    
C59   C60   A    
C128  O16   A    
C8    C135  S    
C130  C134  S    
C68   H12   S    
C97   H21   S    
C102  O54   S    
C126  O42   A    
C56   C123  S    
Cr3   O23   S    
C130  O58   S    
Cr12  O40   S    
C109  H33   S    
C151  H92   S    
Cr10  O18   S    
C123  O7    A    
C85   H17   S    
C32   C34   A    
C48   O36   A    
C152  H96   S    
C41   H61   S    
C78   C82   A    
C148  H85   S    
C11   C27   A    
C16   C20   A    
C87   H19   S    
C149  H87   S    
C96   H28   S    
C129  C133  S    
C147  H83   S    
C44   H64   S    
Cr1   O45   S    
C143  H75   S    
C5    C137  S    
Cr12  O20   S    
C54   C61   A    
Cr5   O29   S    
C29   C35   A    
Cr10  O14   S    
C30   C36   A    
C8    C140  S    
C145  H79   S    
C5    H37   S    
C48   O32   A    
C76   C96   A    
C91   O39   A    
C8    H40   S    
C69   C70   A    
Cr5   O5    S    
C26   H50   S    
Cr1   O17   S    
C122  O6    A    
C65   H9    S    
C73   C77   A    
C103  C107  A    
C67   C69   A    
C75   C79   A    
C88   C116  A    
C63   H7    S    
C21   C49   A    
C7    C8    S    
C146  H81   S    
C132  C139  S    
C33   H53   S    
C27   H51   S    
Cr4   O4    S    
C25   H49   S    
C53   C122  S    
C18   C42   A    
C94   H26   S    
C114  C126  S    
Cr9   O37   S    
Cr4   O24   S    
C36   H56   S    
C16   C32   A    
Cr2   O2    S    
C59   C67   A    
C85   C93   A    
C46   O34   A    
C124  O8    A    
C87   C95   A    
C77   C97   A    
C47   O35   A    
C147  C148  S    
Cr1   O1    S    
C90   O38   A    
C84   C116  A    
C71   H15   S    
O57   C141  S    
C72   H16   S    
C1    C12   S    
C2    C11   S    
C45   C137  S    
C20   C44   A    
Cr10  O34   S    
C48   C140  S    
C83   C115  A    
Cr3   O43   S    
C46   O30   A    
C10   C14   A    
C17   C49   A    
C93   H25   S    
C1    O21   A    
C101  O53   S    
Cr9   O17   S    
C132  C136  S    
Cr11  O19   S    
Cr6   O26   S    
C144  H76   S    
C2    O26   A    
C125  O13   A    
C30   H46   S    
C54   C121  S    
C150  H91   S    
C74   C78   A    
C127  O43   A    
C81   C113  A    
Cr12  O36   S    
C129  C130  S    
C21   C25   A    
C110  H34   S    
C86   H18   S    
C107  C111  A    
C24   C28   A    
C15   C31   A    
C142  H72   S    
C13   C17   A    
Cr9   O13   S    
C85   C113  A    
C71   C72   A    
C57   C58   A    
C37   C41   A    
C61   C62   A    
C69   H13   S    
C90   O2    A    
Cr3   O3    S    
C63   C64   A    
C67   H11   S    
C40   C44   A    
C99   H23   S    
C23   H43   S    
Cr8   O28   S    
Cr1   O41   S    
C141  H69   S    
Cr5   O49   S    
C105  H29   S    
C4    C9    S    
C4    O28   A    
C117  O49   A    
Cr12  O16   S    
C24   C52   A    
C88   C96   A    
C120  O52   A    
Cr5   O17   S    
C74   C94   A    
O56   H68   S    
C80   C84   A    
C7    H39   S    
C31   H47   S    
C9    C25   A    
C15   C19   A    
C12   C28   A    
C13   C29   A    
C6    C133  S    
C106  C110  A    
Cr6   O6    S    
C24   H44   S    
C151  H93   S    
C122  O10   A    
C40   H58   S    
C144  C145  S    
C66   H10   S    
C152  H95   S    
C105  C109  A    
C51   C91   S    
C147  H84   S    
C141  C142  S    
C100  H24   S    
C149  H88   S    
C62   H6    S    
C22   C50   A    
C117  O45   A    
C151  C152  S    
C73   C120  S    
O53   H65   S    
C131  O59   S    
C75   C118  S    
C19   C43   A    
C148  C149  S    
Cr9   O33   S    
C149  H89   S    
Cr4   O20   S    
C76   C80   A    
C103  O55   S    
C45   O29   A    
C146  H80   S    
C53   C57   A    
Cr11  O35   S    
C108  C112  A    
O59   C147  S    
C112  H36   S    
C61   H5    S    
C77   C81   A    
C64   H8    S    
C4    O24   A    
C92   O40   A    
C35   H55   S    
C81   C109  A    
C34   C40   A    
C52   C92   S    
Cr3   O47   S    
C131  C132  S    
Cr4   O48   S    
C104  C108  A    
Cr7   O7    S    
C18   C50   A    
Cr2   O22   S    
O60   C150  S    
C126  O14   A    
C57   C65   A    
Cr6   O30   S    
C111  H35   S    
C76   C117  S    
Cr8   O52   S    
C36   C38   A    
C32   H48   S    
C98   C102  A    
C79   C83   A    
C134  H2    S    
C136  H4    S    
C143  H74   S    
C56   C60   A    
C7    C136  S    
C60   C68   A    
C22   C26   A    
C47   C139  S    
C121  O5    A    
Cr2   O46   S    
C132  O60   S    
C130  C137  S    
C3    O23   A    
Cr7   O19   S    
C150  H90   S    
C88   H20   S    
Cr9   O9    S    
C14   C18   A    
C43   H63   S    
C135  H3    S    
C34   H54   S    
C74   C119  S    
C33   C39   A    
C133  H1    S    
C82   C110  A    
C145  H78   S    
C35   C37   A    
C38   C42   A    
C131  C135  S    
C70   H14   S    
C98   H22   S    
C113  C125  S    
C125  O41   A    
Cr8   O32   S    
C115  C127  S    
C92   O4    A    
Cr3   O19   S    
Cr6   O50   S    
C106  H30   S    
C86   C94   A    
Cr12  O12   S    
C58   C66   A    
C119  O47   A    
C129  C138  S    
C120  O48   A    
C78   C98   A    
C31   C33   A    
C129  O57   S    
C23   C27   A    
C46   C138  S    
C45   O33   A    
C10   C26   A    
Cr7   O31   S    
C118  O50   A    
C80   C100  A    
C14   C30   A    
C108  H32   S    
C124  O12   A    
C146  H82   S    
C101  C105  A    
C5    C134  S    
Cr11  O15   S    
C28   H52   S    
C82   C114  A    
Cr7   O51   S    
C2    O22   A    
C39   C43   A    
C142  H71   S    
C65   C71   A    
C107  H31   S    
Cr8   O20   S    
C6    C138  S    
C42   H62   S    
C53   C62   A    
C23   C51   A    
C118  O46   A    
C38   H60   S    
C119  O51   A    
C55   C64   A    
C6    H38   S    
C127  O15   A    
O55   H67   S    
C56   C63   A    
Cr5   O25   S    
C3    O27   A    
C104  O56   S    
C1    O25   A    
C95   H27   S    
Cr7   O27   S    
C29   H45   S    
C141  H70   S    
Cr11  O39   S    
C54   C58   A    
Cr1   O21   S    
C145  C146  S    
C49   C89   S    
C134  C138  S    
C86   C114  A    
C21   H41   S    
O58   C144  S    
Cr8   O8    S    
C20   C52   A    
C3    C10   S    
C7    C139  S    
C144  H77   S    
C102  C106  A    
C83   C111  A    
C91   O3    A    
C152  H94   S    
Cr4   O44   S    
C17   C41   A    
C89   O1    A    
C19   C51   A    
Cr2   O18   S    
C68   C70   A    
C116  C128  S    
C150  C151  S    
C22   H42   S    
C89   O37   A    
C97   C101  A    
