data_mof_unit_41790.cif
_audit_creation_date              2012-12-11T14:46:22-0500
_audit_creation_method            fapswitch 2.2
_symmetry_space_group_name_H-M    P1
_symmetry_Int_Tables_number       1
_space_group_crystal_system       triclinic
_cell_length_a                    17.433555
_cell_length_b                    17.556803
_cell_length_c                    6.940496
_cell_angle_alpha                 89.525967
_cell_angle_beta                  90.919172
_cell_angle_gamma                 90.130572
_cell_volume                      2123.97865421

loop_
_atom_site_label
_atom_site_type_symbol
_atom_type_description
_atom_site_fract_x
_atom_site_fract_y
_atom_site_fract_z
_atom_type_partial_charge
O1    O     O_R   0.796490 0.328940 0.373020 -0.524121
O2    O     O_R   0.203510 0.671060 0.626980 -0.524145
O3    O     O_R   0.203510 0.828940 0.626980 -0.522088
O4    O     O_R   0.796490 0.171060 0.373020 -0.522094
O5    O     O_R   0.805560 0.173330 0.702970 -0.512390
O6    O     O_R   0.194440 0.826670 0.297030 -0.512408
O7    O     O_R   0.194440 0.673330 0.297030 -0.527755
O8    O     O_R   0.805560 0.326670 0.702970 -0.527773
O9    O     O_R   0.658440 0.172360 0.870170 -0.529348
O10   O     O_R   0.341560 0.827640 0.129830 -0.529401
O11   O     O_R   0.341560 0.672360 0.129830 -0.539103
O12   O     O_R   0.658440 0.327640 0.870170 -0.539211
C1    C     C_R   0.823639 0.145920 0.536695 0.879167
C2    C     C_R   0.176360 0.854080 0.463305 0.879124
C3    C     C_R   0.176071 0.646076 0.464320 0.882884
C4    C     C_R   0.823929 0.353924 0.535680 0.882824
O13   O     O_3   0.679200 0.250000 0.537050 -0.383190
O14   O     O_3   0.320800 0.750000 0.462950 -0.383172
V1    V     V_3+5 0.736420 0.250000 0.813120 1.669472
V2    V     V_3+5 0.263580 0.750000 0.186880 1.669535
O15   O     O_R   0.649370 0.327980 0.199650 -0.531623
O16   O     O_R   0.350630 0.672020 0.800350 -0.531705
O17   O     O_R   0.350630 0.827980 0.800350 -0.540810
O18   O     O_R   0.649370 0.172020 0.199650 -0.540833
C5    C     C_R   0.630650 0.354419 0.029171 0.723655
C6    C     C_R   0.369350 0.645581 0.970829 0.723623
C7    C     C_R   0.369595 0.854213 0.969931 0.767137
C8    C     C_R   0.630406 0.145786 0.030069 0.767175
V3    V     V_3+5 0.718510 0.250000 0.312740 1.634244
V4    V     V_3+5 0.281490 0.750000 0.687260 1.634210
O19   O     O_3   0.775740 0.250000 0.038930 -0.351540
O20   O     O_3   0.224260 0.750000 0.961070 -0.351543
C9    C     C_1   0.574001 0.083353 0.018125 -0.138103
C10   C     C_1   0.426001 0.916645 0.981873 -0.138203
C11   C     C_1   0.425741 0.583156 0.984090 -0.114150
C12   C     C_1   0.574259 0.416843 0.015910 -0.114092
C13   C     C_1   0.527401 0.030954 0.006883 0.052984
C14   C     C_1   0.472601 0.969044 0.993115 0.052985
C15   C     C_1   0.472471 0.530877 0.994207 0.074852
C16   C     C_1   0.527529 0.469123 0.005792 0.074862
C17   C     C_R   0.880466 0.082943 0.535984 -0.287576
C18   C     C_R   0.119533 0.917056 0.464018 -0.287555
C19   C     C_R   0.121185 0.581400 0.470320 -0.311629
C20   C     C_R   0.878816 0.418599 0.529680 -0.311611
C21   C     C_R   0.067378 0.030337 0.305769 0.320234
C22   C     C_R   0.932621 0.969662 0.694234 0.320248
C23   C     C_R   0.907515 0.554143 0.493935 0.312000
C24   C     C_R   0.092488 0.445855 0.506077 0.312007
C25   C     C_R   0.129272 0.980569 0.341031 0.343952
C26   C     C_R   0.870727 0.019432 0.658974 0.343938
C27   C     C_R   0.852953 0.494200 0.501043 0.310054
C28   C     C_R   0.147049 0.505799 0.498963 0.310038
C29   C     C_R   0.051610 0.909731 0.570695 0.273709
C30   C     C_R   0.948389 0.090268 0.429306 0.273712
C31   C     C_R   0.957573 0.405123 0.564169 0.247957
C32   C     C_R   0.042428 0.594875 0.435832 0.247951
C33   C     C_R   0.996344 0.969626 0.568598 -0.109971
C34   C     C_R   0.003655 0.030373 0.431404 -0.109965
C35   C     C_R   0.012786 0.462185 0.518897 -0.134268
C36   C     C_R   0.987216 0.537813 0.481107 -0.134264
Br1   Br    Br    0.063721 0.079809 0.054634 -0.259538
Br2   Br    Br    0.936277 0.920188 0.945367 -0.259534
Br3   Br    Br    0.873232 0.656421 0.551467 -0.155761
Br4   Br    Br    0.126776 0.343575 0.448582 -0.155745
Br5   Br    Br    0.970078 0.189962 0.320332 -0.337845
Br6   Br    Br    0.029921 0.810037 0.679671 -0.337846
Br7   Br    Br    0.016061 0.682322 0.275980 -0.347947
Br8   Br    Br    0.983937 0.317677 0.724027 -0.347942
S1    S     S_3+6 0.780946 0.001420 0.770291 0.073477
O21   O     O_2   0.769530 0.917087 0.796912 -0.252105
O22   O     O_2   0.780408 0.039245 0.963740 -0.321972
O23   O     O_3   0.708297 0.035497 0.632502 -0.521459
H1    H     H_    0.661175 0.014663 0.691044 0.352749
S2    S     S_3+6 0.219054 0.998583 0.229729 0.073512
O24   O     O_2   0.219603 0.960744 0.036299 -0.322024
O25   O     O_2   0.230466 0.082914 0.203074 -0.252033
O26   O     O_3   0.291699 0.964523 0.367554 -0.521418
H2    H     H_    0.338830 0.985241 0.308808 0.352716
S3    S     S_3+6 0.247133 0.483017 0.501294 0.061650
O27   O     O_2   0.263432 0.428017 0.663944 -0.269177
O28   O     O_2   0.265678 0.445428 0.313899 -0.282622
O29   O     O_3   0.305306 0.558740 0.527835 -0.523672
H3    H     H_    0.357983 0.537974 0.521442 0.349730
S4    S     S_3+6 0.752870 0.516982 0.498743 0.061664
O30   O     O_2   0.734331 0.554529 0.686189 -0.282781
O31   O     O_2   0.736564 0.572014 0.336178 -0.269018
O32   O     O_3   0.694698 0.441266 0.472098 -0.523667
H4    H     H_    0.642026 0.461981 0.479319 0.349712

loop_
_geom_bond_atom_site_label_1
_geom_bond_atom_site_label_2
_ccdc_geom_bond_type
O10   C7    A    
O32   H4    S    
C31   C35   A    
S1    O23   S    
O13   V3    S    
S4    O32   S    
V1    O19   S    
C1    C17   S    
C31   Br8   S    
C30   Br5   S    
O26   H2    S    
S2    O25   D    
C22   Br2   S    
C26   S1    S    
S4    O31   D    
C18   C29   A    
C23   Br3   S    
C19   C28   A    
C24   Br4   S    
O4    C1    A    
S1    O22   D    
O18   V3    S    
C23   C36   A    
O9    V1    S    
O10   V2    S    
S2    O26   S    
O14   V4    S    
O17   C7    A    
C28   S3    S    
C4    C20   S    
O5    C1    A    
O4    V3    S    
C2    C18   S    
O7    C3    A    
C35   C36   A    
O8    C4    A    
C7    C10   S    
C21   C34   A    
O11   V2    S    
O8    V1    S    
S2    O24   D    
O17   V4    S    
C12   C16   T    
S4    O30   D    
C15   C16   S    
S3    O28   D    
C29   C33   A    
C23   C27   A    
C5    C12   S    
O11   C6    A    
O15   V3    S    
C9    C13   T    
C32   C36   A    
O3    V4    S    
C11   C15   T    
C13   C14   S    
C29   Br6   S    
O6    C2    A    
C19   C32   A    
C21   C25   A    
O1    V3    S    
O1    C4    A    
O2    C3    A    
O3    C2    A    
C20   C27   A    
C8    C9    S    
O7    V2    S    
C22   C33   A    
C30   C34   A    
C17   C26   A    
C24   C35   A    
V2    O20   S    
O15   C5    A    
O16   V4    S    
C10   C14   T    
O18   C8    A    
O23   H1    S    
S3    O29   S    
O5    V1    S    
C32   Br7   S    
O6    V2    S    
C22   C26   A    
O12   C5    A    
O2    V4    S    
C3    C19   S    
V3    O19   S    
V4    O20   S    
C20   C31   A    
C33   C34   A    
O12   V1    S    
C21   Br1   S    
O13   V1    S    
O14   V2    S    
S1    O21   D    
C17   C30   A    
C18   C25   A    
S3    O27   D    
C6    C11   S    
C24   C28   A    
O29   H3    S    
O16   C6    A    
C25   S2    S    
C27   S4    S    
O9    C8    A    
