data_mof_unit_53666.cif
_audit_creation_date              2012-10-26T19:00:15-0400
_audit_creation_method            fapswitch 2.2
_symmetry_space_group_name_H-M    P1
_symmetry_Int_Tables_number       1
_space_group_crystal_system       triclinic
_cell_length_a                    10.886837
_cell_length_b                    10.838726
_cell_length_c                    9.53893
_cell_angle_alpha                 90.439365
_cell_angle_beta                  90.351144
_cell_angle_gamma                 89.57153
_cell_volume                      1125.50311654

loop_
_atom_site_label
_atom_site_type_symbol
_atom_type_description
_atom_site_fract_x
_atom_site_fract_y
_atom_site_fract_z
_atom_type_partial_charge
C1    C     C_R   0.492383 0.262628 0.499211 0.544328
C2    C     C_R   0.883830 0.382551 0.999797 -0.121883
C3    C     C_R   0.844412 0.260714 0.991709 -0.097731
C4    C     C_R   0.262582 0.504127 0.499260 0.543254
C5    C     C_R   0.832651 0.202925 0.861241 -0.129037
C6    C     C_R   0.854210 0.268690 0.737829 -0.080157
C7    C     C_R   0.892995 0.391564 0.745085 0.062191
C8    C     C_R   0.474120 0.065849 0.623825 -0.039558
C9    C     C_R   0.471765 0.130253 0.498012 -0.003556
C10   C     C_R   0.454394 0.064111 0.371957 -0.174257
C11   C     C_R   0.457138 0.934912 0.372287 -0.181400
C12   C     C_R   0.229056 0.728894 0.034663 -0.101759
C13   C     C_R   0.477936 0.871065 0.498424 0.015729
C14   C     C_R   0.480690 0.938231 0.623252 0.019116
C15   C     C_3   0.576328 0.939671 0.736704 0.138752
C16   C     C_R   0.494607 0.737796 0.499864 0.558096
C17   C     C_3   0.565065 0.079352 0.740163 -0.240416
C18   C     C_R   0.541546 0.599804 0.075366 0.167755
C19   C     C_R   0.447698 0.406841 0.073206 -0.007889
C20   C     C_R   0.447919 0.406687 0.924363 -0.017223
C21   C     C_R   0.540315 0.600711 0.927766 0.147655
C22   C     C_3   0.666454 0.652855 0.925670 -0.277156
C23   C     C_R   0.933014 0.546048 0.387809 -0.168250
C24   C     C_3   0.667640 0.650384 0.084003 -0.289482
C25   C     C_R   0.738090 0.496078 0.501063 0.541848
C26   C     C_R   0.210265 0.794496 0.159559 -0.114069
C27   C     C_R   0.155924 0.736879 0.274033 -0.084795
C28   C     C_R   0.118437 0.613550 0.263252 0.052443
C29   C     C_R   0.138520 0.547815 0.138039 -0.082989
C30   C     C_R   0.193288 0.605603 0.023972 -0.111016
C31   C     C_3   0.753751 0.942821 0.584326 0.012610
C32   C     C_3   0.813238 0.842142 0.493745 -0.248371
C33   C     C_3   0.870001 0.895985 0.361926 -0.496417
C34   C     C_R   0.872601 0.495549 0.503393 -0.008132
C35   C     C_R   0.942789 0.451588 0.618988 -0.028628
C36   C     C_R   0.069830 0.457980 0.613863 -0.155105
C37   C     C_R   0.129190 0.506506 0.498084 -0.001727
C38   C     C_R   0.060506 0.552702 0.384061 -0.034359
C39   C     C_R   0.912423 0.446180 0.877497 -0.119558
Cu1   Cu    Cu3+1 0.499990 0.499980 0.640670 0.946064
Cu2   Cu    Cu3+1 0.500010 0.500020 0.359330 0.937816
H1    H     H_    0.271746 0.773400 0.946402 0.104066
H2    H     H_    0.406668 0.330618 0.127839 0.107096
H3    H     H_    0.237742 0.890037 0.167622 0.097424
H4    H     H_    0.406993 0.330367 0.867935 0.112756
H5    H     H_    0.732299 0.589914 0.874931 0.173678
H6    H     H_    0.669770 0.747509 0.886792 0.179909
H7    H     H_    0.734810 0.583160 0.126785 0.149440
H8    H     H_    0.669420 0.743638 0.133346 0.121298
H9    H     H_    0.142506 0.788286 0.370626 0.098955
H10   H     H_    0.113786 0.451537 0.129730 0.100423
H11   H     H_    0.208521 0.554647 0.927535 0.115620
H12   H     H_    0.825717 0.210201 0.086593 0.109281
H13   H     H_    0.880823 0.584276 0.301479 0.115183
H14   H     H_    0.123256 0.420890 0.700524 0.129295
H15   H     H_    0.949355 0.538508 0.885710 0.106945
H16   H     H_    0.895314 0.426378 0.101099 0.105893
H17   H     H_    0.827351 0.003153 0.626218 0.127161
H18   H     H_    0.693259 0.999385 0.516192 0.139977
H19   H     H_    0.885475 0.793431 0.555399 0.169650
H20   H     H_    0.743029 0.773709 0.461689 0.184809
H21   H     H_    0.799288 0.946166 0.299643 0.144956
H22   H     H_    0.907680 0.820333 0.295713 0.151776
H23   H     H_    0.808432 0.106436 0.856656 0.121428
H24   H     H_    0.945396 0.960111 0.390440 0.145021
H25   H     H_    0.846791 0.222568 0.637131 0.078460
H26   H     H_    0.446589 0.111476 0.272717 0.123396
H27   H     H_    0.450675 0.885856 0.273270 0.133031
H28   H     H_    0.539925 0.898428 0.834045 0.106681
H29   H     H_    0.521744 0.115560 0.837499 0.096481
H30   H     H_    0.646036 0.131162 0.705780 0.139277
N1    N     N_R   0.500790 0.500930 0.147930 -0.222449
N2    N     N_R   0.500790 0.500890 0.852020 -0.229806
O1    O     O_R   0.500000 0.319640 0.618810 -0.507206
O2    O     O_R   0.500010 0.319680 0.381230 -0.515390
O3    O     O_R   0.319640 0.499990 0.618790 -0.522079
O4    O     O_R   0.319650 0.500030 0.381210 -0.489253
O5    O     O_R   0.499990 0.680320 0.618770 -0.483115
O6    O     O_R   0.500000 0.680360 0.381190 -0.513295
O7    O     O_R   0.680350 0.499970 0.618790 -0.485776
O8    O     O_R   0.680360 0.500010 0.381210 -0.513695
O9    O     O_3   0.692821 0.887377 0.698728 -0.580039

loop_
_geom_bond_atom_site_label_1
_geom_bond_atom_site_label_2
_ccdc_geom_bond_type
C25   O7    A    
C11   C13   A    
C35   C36   A    
C2    H16   S    
C33   H24   S    
C10   H26   S    
C26   C27   A    
C29   C30   A    
C31   O9    S    
C18   C24   S    
C1    O1    A    
C31   H17   S    
C28   C29   A    
C32   H20   S    
Cu2   O4    S    
C5    C6    A    
C18   C21   A    
C21   N2    A    
Cu1   N2    S    
C34   C35   A    
C31   H18   S    
C12   H1    S    
C2    C39   A    
C19   C20   A    
C33   H21   S    
Cu1   O7    S    
C9    C10   A    
C20   H4    S    
C27   H9    S    
C25   C34   S    
C22   H6    S    
C17   H29   S    
C21   C22   S    
C25   O8    A    
C19   N1    A    
C19   H2    S    
C15   O9    S    
C18   N1    A    
C15   H28   S    
C26   H3    S    
C1    O2    A    
C1    C9    S    
C8    C9    A    
Cu1   O3    S    
C5    H23   S    
C12   C26   A    
C24   H7    S    
C37   C38   A    
Cu2   O2    S    
C39   H15   S    
C28   C38   S    
C33   H22   S    
C23   C34   A    
Cu2   O8    S    
Cu2   N1    S    
Cu1   O5    S    
Cu1   Cu2   S    
C22   H5    S    
C17   H30   S    
C22   C24   S    
C32   H19   S    
C11   H27   S    
C23   H13   S    
C29   H10   S    
C24   H8    S    
C15   C17   S    
C30   H11   S    
C36   C37   A    
C8    C14   A    
C12   C30   A    
C7    C35   S    
C31   C32   S    
C3    C5    A    
Cu2   O6    S    
C6    C7    A    
C23   C38   A    
C8    C17   S    
C16   O6    A    
C32   C33   S    
C2    C3    A    
C4    O4    A    
C36   H14   S    
C3    H12   S    
Cu1   O1    S    
C20   N2    A    
C16   O5    A    
C4    O3    A    
C10   C11   A    
C6    H25   S    
C4    C37   S    
C13   C16   S    
C27   C28   A    
C7    C39   A    
C14   C15   S    
C13   C14   A    
