data_mof_unit_21146.cif
_audit_creation_date              2013-03-05T16:00:54-0500
_audit_creation_method            fapswitch 2.2
_symmetry_space_group_name_H-M    P1
_symmetry_Int_Tables_number       1
_space_group_crystal_system       triclinic
_cell_length_a                    6.920401
_cell_length_b                    34.330745
_cell_length_c                    38.32336
_cell_angle_alpha                 99.540478
_cell_angle_beta                  89.626613
_cell_angle_gamma                 90.528254
_cell_volume                      8978.53105139

loop_
_atom_site_label
_atom_site_type_symbol
_atom_site_description
_atom_site_fract_x
_atom_site_fract_y
_atom_site_fract_z
_atom_type_partial_charge
O1    O     O_R   0.494320 0.461440 0.460990 -0.585867
O2    O     O_R   0.821450 0.462560 0.532500 -0.606709
O3    O     O_R   0.994330 0.538560 0.539010 -0.590758
C1    C     C_R   0.651789 0.454090 0.544051 0.918766
O4    O     O_R   0.823870 0.456770 0.460860 -0.610521
O5    O     O_R   0.996760 0.532730 0.466860 -0.563655
C2    C     C_R   0.654226 0.445689 0.448052 0.993174
O6    O     O_R   0.491880 0.467270 0.533140 -0.585084
O7    O     O_3   0.661650 0.524930 0.502050 -0.234166
V1    V     V_3+5 0.935500 0.495380 0.499620 1.204501
O8    O     O_R   0.326630 0.537440 0.467500 -0.553497
C3    C     C_R   0.158664 0.546113 0.456244 1.119168
O9    O     O_R   0.324210 0.543230 0.539140 -0.598408
C4    C     C_R   0.155272 0.554015 0.552017 0.977885
V2    V     V_3+5 0.435810 0.504620 0.500380 1.240236
O10   O     O_3   0.159790 0.475070 0.497950 -0.296818
C5    C     C_R   0.172561 0.827726 0.798543 0.494162
N1    N     N_R   0.039120 0.824286 0.824512 -0.187140
C6    C     C_R   0.915996 0.792277 0.821432 0.544439
C7    C     C_R   0.916757 0.763028 0.790516 -0.217692
C8    C     C_R   0.060247 0.765620 0.764503 -0.017923
C9    C     C_R   0.188852 0.798133 0.768565 0.028566
C10   C     C_R   0.784068 0.730677 0.785053 0.392008
C11   C     C_R   0.804571 0.700940 0.755406 -0.206791
C12   C     C_R   0.949617 0.702996 0.730025 -0.089328
C13   C     C_R   0.076411 0.735597 0.734352 -0.001804
C14   C     C_R   0.219959 0.738174 0.708551 -0.033929
C15   C     C_R   0.347084 0.770734 0.713070 -0.125358
C16   C     C_R   0.331504 0.800350 0.742643 -0.107806
C17   C     C_R   0.969154 0.673271 0.700070 0.509737
N2    N     N_R   0.107717 0.676365 0.674789 -0.184637
C18   C     C_R   0.231907 0.708236 0.678618 0.476284
O11   O     O_2   0.289247 0.859808 0.801599 -0.568951
O12   O     O_2   0.798561 0.788161 0.848800 -0.486450
H1    H     H_    0.702057 0.676571 0.751841 0.204427
O13   O     O_2   0.851398 0.641323 0.696504 -0.556204
O14   O     O_2   0.364989 0.711367 0.653323 -0.544911
H2    H     H_    0.459241 0.773479 0.693761 0.175615
H3    H     H_    0.432607 0.824919 0.745200 0.168102
C19   C     C_R   0.295561 0.625998 0.634686 -0.041930
H4    H     H_    0.421892 0.632981 0.651144 0.148092
C20   C     C_R   0.307869 0.596652 0.604632 -0.180154
H5    H     H_    0.444165 0.581736 0.598525 0.134714
C21   C     C_R   0.144902 0.586092 0.583238 -0.139694
C22   C     C_R   0.970431 0.606099 0.592307 -0.126482
H6    H     H_    0.842449 0.598923 0.576327 0.156428
C23   C     C_R   0.959267 0.635921 0.621948 -0.062037
H7    H     H_    0.823881 0.651191 0.628055 0.144914
C24   C     C_R   0.121123 0.646004 0.643665 0.191387
C25   C     C_R   0.854336 0.874325 0.865353 -0.067503
H8    H     H_    0.726385 0.867093 0.849383 0.144891
C26   C     C_R   0.843923 0.903588 0.895471 -0.175711
H9    H     H_    0.707429 0.918250 0.902072 0.131145
C27   C     C_R   0.008586 0.914287 0.916372 -0.130829
C28   C     C_R   0.183270 0.894631 0.906594 -0.194096
H10   H     H_    0.312629 0.901964 0.922143 0.140330
C29   C     C_R   0.192758 0.864943 0.876790 -0.028531
H11   H     H_    0.328250 0.849913 0.870119 0.151891
C30   C     C_R   0.028767 0.854638 0.855690 0.187174
C31   C     C_R   0.022646 0.867100 0.183580 0.457309
O15   O     O_2   0.992199 0.906130 0.193599 -0.544160
N3    N     N_R   0.036330 0.851498 0.148287 -0.179017
C32   C     C_R   0.065133 0.811770 0.137753 0.486926
C33   C     C_R   0.875636 0.871439 0.095765 0.254804
C34   C     C_R   0.867848 0.896748 0.070387 -0.273051
C35   C     C_R   0.146187 0.933101 0.096743 -0.169326
C36   C     C_R   0.152646 0.908728 0.122479 -0.119525
C37   C     C_R   0.020766 0.877301 0.122073 0.176095
C38   C     C_R   0.058634 0.801637 0.199137 -0.057492
C39   C     C_R   0.037654 0.842651 0.209552 -0.054162
C40   C     C_R   0.029359 0.858344 0.245616 -0.075378
C41   C     C_R   0.070844 0.786069 0.162844 -0.059384
C42   C     C_R   0.003399 0.927490 0.070555 -0.132286
H12   H     H_    0.251152 0.956855 0.097679 0.136907
H13   H     H_    0.262291 0.914150 0.142758 0.147784
H14   H     H_    0.010838 0.889742 0.254418 0.175437
C43   C     C_R   0.151719 0.573487 0.429968 -0.463403
C44   C     C_R   0.090987 0.767381 0.287162 0.040291
C45   C     C_R   0.069146 0.709306 0.239888 0.040815
C46   C     C_R   0.084436 0.725775 0.276297 0.083628
C47   C     C_R   0.121454 0.782197 0.323431 -0.201165
C48   C     C_R   0.138123 0.757011 0.348228 -0.069798
C49   C     C_R   0.122361 0.716065 0.338029 -0.069866
C50   C     C_R   0.093575 0.700359 0.302118 -0.053129
C51   C     C_R   0.073879 0.659199 0.292075 -0.072320
C52   C     C_R   0.080414 0.634646 0.318092 0.500537
N4    N     N_R   0.116883 0.650297 0.352772 -0.166397
C53   C     C_R   0.137548 0.690358 0.362968 0.478253
C54   C     C_R   0.004347 0.628556 0.407553 -0.221298
C55   C     C_R   0.012475 0.603907 0.433194 0.371229
C56   C     C_R   0.284029 0.569132 0.401131 0.277145
C57   C     C_R   0.276684 0.595025 0.375939 0.116574
C58   C     C_R   0.133387 0.624446 0.378929 0.112185
O16   O     O_2   0.174998 0.705340 0.397091 -0.525639
C59   C     C_R   0.068792 0.792675 0.261520 0.041663
C60   C     C_R   0.067527 0.776241 0.224979 0.081656
C61   C     C_R   0.074830 0.734685 0.213996 0.041087
C62   C     C_R   0.045960 0.833991 0.271096 -0.202780
H15   H     H_    0.897366 0.651701 0.410095 0.184427
H16   H     H_    0.162712 0.769921 0.375613 0.177334
H17   H     H_    0.138899 0.813255 0.333420 0.133947
H18   H     H_    0.034595 0.848385 0.298230 0.133975
O17   O     O_2   0.089326 0.797108 0.103116 -0.553047
C63   C     C_R   0.089399 0.745259 0.152371 -0.079196
H19   H     H_    0.756868 0.892129 0.050271 0.140138
H20   H     H_    0.101809 0.732478 0.124649 0.174707
C64   C     C_R   0.046638 0.667866 0.230724 -0.199067
C65   C     C_R   0.047375 0.643438 0.256350 -0.080602
O18   O     O_2   0.049720 0.595441 0.308752 -0.543082
C66   C     C_R   0.089718 0.720019 0.177336 -0.201184
H21   H     H_    0.022624 0.653426 0.203907 0.132449
H22   H     H_    0.029027 0.611921 0.247895 0.174835
H23   H     H_    0.107415 0.689073 0.167087 0.132894
C67   C     C_R   0.481188 0.318938 0.643818 0.527671
O19   O     O_2   0.343943 0.316804 0.618697 -0.551292
N5    N     N_R   0.628332 0.346142 0.644795 -0.181292
C68   C     C_R   0.771870 0.347874 0.669541 0.480492
C69   C     C_R   0.477073 0.398702 0.617423 -0.157769
C70   C     C_R   0.479915 0.425515 0.593338 0.156529
C71   C     C_R   0.796034 0.400877 0.572757 -0.244000
C72   C     C_R   0.791306 0.374440 0.596853 -0.051273
C73   C     C_R   0.632192 0.373162 0.619490 0.189482
C74   C     C_R   0.617466 0.294458 0.694422 -0.047566
C75   C     C_R   0.473291 0.292729 0.668535 -0.115105
C76   C     C_R   0.330088 0.263544 0.666504 -0.167134
C77   C     C_R   0.769731 0.321970 0.694509 -0.030717
C78   C     C_R   0.641230 0.426665 0.570418 -0.163919
H24   H     H_    0.920960 0.400781 0.555568 0.151098
H25   H     H_    0.911834 0.354754 0.597808 0.159915
H26   H     H_    0.227272 0.259987 0.644982 0.211666
C79   C     C_R   0.514216 0.072063 0.929535 -0.118354
C80   C     C_R   0.435653 0.219210 0.748036 0.055486
C81   C     C_R   0.749319 0.245615 0.772000 0.046213
C82   C     C_R   0.586659 0.220310 0.773156 0.095482
C83   C     C_R   0.265238 0.198049 0.753780 -0.126251
C84   C     C_R   0.254962 0.173934 0.779564 -0.085667
C85   C     C_R   0.409252 0.172192 0.802533 -0.074765
C86   C     C_R   0.572846 0.196328 0.800184 -0.060583
C87   C     C_R   0.721410 0.196747 0.825169 -0.048939
C88   C     C_R   0.706494 0.172271 0.851206 0.461180
N6    N     N_R   0.549875 0.147751 0.852024 -0.181578
C89   C     C_R   0.401352 0.147694 0.828602 0.516497
C90   C     C_R   0.586159 0.081467 0.869046 0.222089
C91   C     C_R   0.574497 0.056952 0.894988 -0.259489
C92   C     C_R   0.464909 0.112007 0.938195 -0.162911
C93   C     C_R   0.479685 0.136816 0.912742 -0.066073
C94   C     C_R   0.540284 0.121895 0.878111 0.183334
O20   O     O_2   0.246357 0.124060 0.830560 -0.557190
C95   C     C_R   0.454739 0.241018 0.719450 -0.120895
C96   C     C_R   0.609802 0.268712 0.720075 0.084039
C97   C     C_R   0.758527 0.270744 0.745858 0.087449
C98   C     C_R   0.326120 0.236333 0.689926 0.303923
H27   H     H_    0.610529 0.025959 0.888086 0.117477
H28   H     H_    0.122825 0.157390 0.781983 0.174531
H29   H     H_    0.133894 0.200742 0.739472 0.166059
O21   O     O_2   0.915173 0.374940 0.670386 -0.559974
C99   C     C_R   0.916797 0.323108 0.719444 -0.081238
H30   H     H_    0.354762 0.398262 0.635154 0.156404
H31   H     H_    0.037191 0.343578 0.719831 0.167617
C100  C     C_R   0.894922 0.245548 0.797839 -0.235243
C101  C     C_R   0.881176 0.221557 0.823694 -0.088410
O22   O     O_2   0.848446 0.172638 0.875236 -0.536294
C102  C     C_R   0.912012 0.298067 0.744482 -0.219021
H32   H     H_    0.023972 0.263383 0.798785 0.133685
H33   H     H_    0.417228 0.124038 0.964742 0.130386
H34   H     H_    0.997822 0.222480 0.842547 0.172572
H35   H     H_    0.442305 0.167682 0.919833 0.133894
H36   H     H_    0.031175 0.301377 0.762639 0.125803
C103  C     C_R   0.537646 0.164738 0.208834 0.540459
N7    N     N_R   0.550554 0.174933 0.175755 -0.172754
C104  C     C_R   0.584986 0.213320 0.171576 0.595501
C105  C     C_R   0.604666 0.243300 0.201338 -0.071951
C106  C     C_R   0.589524 0.233324 0.235463 0.000413
C107  C     C_R   0.556343 0.193718 0.239334 -0.056539
C108  C     C_R   0.638541 0.282919 0.197827 -0.087459
C109  C     C_R   0.655648 0.312221 0.227742 -0.102534
C110  C     C_R   0.639481 0.302660 0.261947 -0.058743
C111  C     C_R   0.606962 0.263035 0.265790 -0.003949
C112  C     C_R   0.590793 0.253082 0.299893 -0.053012
C113  C     C_R   0.558837 0.213401 0.303417 -0.106408
C114  C     C_R   0.541829 0.184098 0.273523 -0.105016
C115  C     C_R   0.652674 0.331817 0.292471 0.475002
N8    N     N_R   0.634811 0.321791 0.325589 -0.183436
C116  C     C_R   0.605831 0.283163 0.329660 0.467764
O23   O     O_2   0.505372 0.126726 0.212213 -0.538573
O24   O     O_2   0.600249 0.222454 0.138760 -0.504875
H37   H     H_    0.651208 0.291463 0.171939 0.178218
H38   H     H_    0.680827 0.342423 0.223950 0.178570
O25   O     O_2   0.679968 0.369947 0.288997 -0.526602
O26   O     O_2   0.592066 0.273810 0.362423 -0.541583
H39   H     H_    0.546017 0.204850 0.329301 0.178320
H40   H     H_    0.516571 0.153898 0.277316 0.177276
C117  C     C_R   0.475013 0.359746 0.378075 -0.103052
H41   H     H_    0.345348 0.342220 0.371417 0.129944
C118  C     C_R   0.474377 0.389633 0.407901 0.157494
C119  C     C_R   0.643527 0.413222 0.416733 -0.193055
C120  C     C_R   0.807947 0.405294 0.394860 -0.158528
H42   H     H_    0.938469 0.422758 0.400373 0.147537
C121  C     C_R   0.805918 0.375352 0.365200 -0.049223
H43   H     H_    0.934449 0.370049 0.348897 0.128630
C122  C     C_R   0.639261 0.352397 0.356517 0.177314
C123  C     C_R   0.359691 0.139744 0.124639 0.400738
C124  C     C_R   0.351161 0.110106 0.094365 -0.289866
H44   H     H_    0.219477 0.106133 0.079020 0.179991
C125  C     C_R   0.509981 0.085510 0.083870 -0.180724
C126  C     C_R   0.679326 0.090985 0.104201 -0.146168
H45   H     H_    0.804189 0.072530 0.097011 0.139719
C127  C     C_R   0.689193 0.119958 0.134404 -0.033206
H46   H     H_    0.820924 0.123446 0.149736 0.164910
C128  C     C_R   0.531599 0.144604 0.144906 0.070168
O27   O     O_R   0.662230 0.032770 0.966890 -0.585249
O28   O     O_R   0.330090 0.043230 0.039150 -0.599587
O29   O     O_R   0.157350 0.967260 0.033130 -0.595041
C129  C     C_R   0.499029 0.053878 0.052205 0.965282
O30   O     O_R   0.332650 0.037450 0.967510 -0.588504
O31   O     O_R   0.159930 0.961430 0.960980 -0.594889
C130  C     C_R   0.502263 0.045905 0.956270 0.945833
O32   O     O_R   0.659640 0.038600 0.039040 -0.594455
O33   O     O_3   0.492510 0.975090 0.997960 -0.275536
V3    V     V_3+5 0.218600 0.004620 0.000380 1.166430
O34   O     O_R   0.830050 0.956730 0.960830 -0.599928
C131  C     C_R   0.998931 0.946100 0.947836 0.940068
O35   O     O_R   0.827490 0.962520 0.032470 -0.594759
C132  C     C_R   0.995490 0.954024 0.043836 0.948471
V4    V     V_3+5 0.718310 0.995320 0.999580 1.162900
O36   O     O_3   0.994270 0.024900 0.002040 -0.263360
N9    N     N_R   0.621897 0.728136 0.808107 0.267471
O37   O     O_R   0.493574 0.756015 0.812375 -0.376622
O38   O     O_R   0.580635 0.694760 0.818430 -0.342851
N10   N     N_R   0.882023 0.611101 0.462882 0.256458
O39   O     O_R   0.706133 0.622441 0.458528 -0.358133
O40   O     O_R   0.946020 0.612163 0.494884 -0.406439
N11   N     N_2   0.740669 0.839617 0.094085 -0.091572
H47   H     H_    0.685632 0.830092 0.069141 0.194886
C133  C     C_3   0.590735 0.845298 0.120816 -0.879485
H48   H     H_    0.497240 0.818532 0.118185 0.271324
H49   H     H_    0.501370 0.870898 0.117263 0.241502
H50   H     H_    0.653187 0.850360 0.147784 0.246491
N12   N     N_R   0.422500 0.537761 0.396796 0.238190
O41   O     O_R   0.364697 0.501174 0.393625 -0.422341
O42   O     O_R   0.606513 0.545645 0.395860 -0.386757
N13   N     N_2   0.405923 0.590316 0.346430 -0.086516
H51   H     H_    0.450119 0.561779 0.337566 0.234632
C134  C     C_3   0.562769 0.618743 0.349073 -0.789247
H52   H     H_    0.646907 0.614349 0.323992 0.254997
H53   H     H_    0.659698 0.614660 0.371037 0.269627
H54   H     H_    0.507203 0.649391 0.353690 0.233487
N14   N     N_2   0.636620 0.065048 0.833656 -0.125501
H55   H     H_    0.589274 0.036294 0.826259 0.179575
C135  C     C_3   0.838220 0.069594 0.824967 -0.781799
H56   H     H_    0.863996 0.056550 0.796845 0.250280
H57   H     H_    0.930747 0.054275 0.841963 0.250429
H58   H     H_    0.878961 0.101257 0.828469 0.287193
N15   N     N_R   0.210377 0.201381 0.679953 0.230910
O43   O     O_R   0.037319 0.203948 0.667470 -0.381101
O44   O     O_R   0.288075 0.166722 0.678190 -0.338398
N16   N     N_2   0.321329 0.451532 0.592937 -0.103524
H59   H     H_    0.190296 0.439335 0.598572 0.178611
C136  C     C_3   0.351129 0.490204 0.613852 -0.839873
H60   H     H_    0.369413 0.487727 0.642194 0.253631
H61   H     H_    0.223539 0.508892 0.611386 0.229721
H62   H     H_    0.480717 0.504808 0.604419 0.232296
N17   N     N_2   0.301128 0.394809 0.428212 -0.123384
H63   H     H_    0.243810 0.422750 0.431773 0.208293
C137  C     C_3   0.298070 0.376158 0.459379 -0.825720
H64   H     H_    0.153029 0.379727 0.472016 0.242856
H65   H     H_    0.407688 0.389893 0.478755 0.227225
H66   H     H_    0.327480 0.344075 0.452000 0.262398
N18   N     N_R   0.193783 0.164334 0.134289 0.230156
O45   O     O_R   0.160972 0.179896 0.167088 -0.427577
O46   O     O_R   0.067298 0.169342 0.110473 -0.378164

loop_
_geom_bond_atom_site_label_1
_geom_bond_atom_site_label_2
_geom_bond_distance
_ccdc_geom_bond_type
C63   C66   1.393220 A    
N4    C53   1.372437 A    
C9    C16   1.406467 A    
C49   C53   1.409269 A    
C103  N7    1.372058 A    
N4    C58   1.450444 S    
C118  N17   1.421565 S    
C59   C60   1.420427 A    
C81   C97   1.427108 A    
C28   H10   1.083035 S    
C136  H62   1.110805 S    
N18   O45   1.301104 A    
C63   H20   1.083319 S    
C47   C48   1.392702 A    
C59   C62   1.415070 A    
C83   H29   1.077143 S    
C74   C75   1.405526 A    
C23   C24   1.405942 A    
C47   H17   1.077485 S    
C22   H6    1.083158 S    
C134  H52   1.109919 S    
C90   C94   1.412305 A    
C124  C125  1.407674 A    
C13   C14   1.409582 A    
O34   C131  1.298894 A    
C5    O11   1.349443 S    
C54   H15   1.083146 S    
C49   C50   1.407141 A    
C25   C30   1.406192 A    
C33   C37   1.417035 A    
C15   C16   1.395791 A    
C123  N18   1.441017 S    
N2    C24   1.451205 S    
N1    C6    1.374265 A    
O30   C130  1.294671 A    
O5    C3    1.295568 A    
C17   N2    1.374614 A    
O29   C132  1.294586 A    
C44   C46   1.420397 A    
C27   C131  1.488282 S    
C93   H35   1.082722 S    
N7    C104  1.372164 A    
C120  H42   1.081889 S    
C88   O22   1.349449 S    
C19   C24   1.406747 A    
C35   H12   1.083347 S    
O34   V4    1.977423 S    
C87   C101  1.396038 A    
C34   C42   1.404787 A    
N5    C68   1.371893 A    
C31   N3    1.372696 A    
N16   H59   1.031818 S    
C69   C73   1.403175 A    
C91   H27   1.083984 S    
C120  C121  1.400544 A    
C115  N8    1.373536 A    
C111  C112  1.408126 A    
N15   O44   1.301587 A    
C105  C106  1.408736 A    
C69   C70   1.407416 A    
C57   N13   1.426137 S    
C76   H26   1.083565 S    
C43   C56   1.420088 A    
N12   O41   1.301257 A    
N14   C135  1.445295 S    
C127  H46   1.082731 S    
C117  C118  1.403763 A    
C1    O6    1.296999 A    
C25   C26   1.400915 A    
C103  C107  1.409601 A    
N11   C133  1.444898 S    
C11   C12   1.402617 A    
C109  H38   1.082989 S    
C39   C40   1.398712 A    
O1    V2    1.975233 S    
C115  O25   1.349005 S    
C31   C39   1.409240 A    
C104  C105  1.410355 A    
C51   C65   1.398808 A    
C137  H64   1.110537 S    
C99   C102  1.390449 A    
O32   V4    1.979321 S    
C101  H34   1.083611 S    
C104  O24   1.348905 S    
C105  C108  1.406213 A    
C46   C50   1.425700 A    
C67   C75   1.410985 A    
C38   C60   1.425721 A    
C135  H58   1.107054 S    
C19   C20   1.401614 A    
C35   C36   1.396347 A    
C74   C96   1.427246 A    
C121  H43   1.082917 S    
C99   H31   1.083593 S    
C106  C107  1.408601 A    
C8    C9    1.409998 A    
C3    C43   1.488196 S    
O30   V3    1.980239 S    
C80   C95   1.430469 A    
C133  H49   1.106434 S    
N10   O39   1.301520 A    
N6    C89   1.368793 A    
C20   C21   1.407681 A    
C123  C128  1.418388 A    
N14   H55   1.031823 S    
C107  C114  1.406063 A    
C34   H19   1.083633 S    
C32   C41   1.409633 A    
O29   V3    1.979050 S    
C26   C27   1.407713 A    
V4    O36   2.149918 S    
C22   C23   1.399741 A    
O27   C130  1.292451 A    
C40   C62   1.392667 A    
C53   O16   1.349386 S    
C43   C55   1.417277 A    
C71   C78   1.408743 A    
C11   H1    1.083640 S    
C123  C124  1.411855 A    
C93   C94   1.403952 A    
V3    O36   1.703776 S    
C36   C37   1.404884 A    
N8    C122  1.448061 S    
C23   H7    1.083028 S    
C89   O20   1.348173 S    
C83   C84   1.391390 A    
C52   O18   1.349359 S    
C88   N6    1.369632 A    
O35   C132  1.296717 A    
C32   O17   1.349274 S    
C129  O32   1.296453 A    
C95   C98   1.431260 A    
C54   C55   1.400764 A    
O33   V3    2.152095 S    
O4    C2    1.304348 A    
N18   O46   1.301535 A    
C126  H45   1.083111 S    
C119  C120  1.410356 A    
C74   C77   1.408248 A    
C92   H33   1.083223 S    
C118  C119  1.427394 A    
C41   C63   1.398842 A    
C25   H8    1.083027 S    
C12   C13   1.404421 A    
C51   C52   1.409461 A    
C35   C42   1.402183 A    
C113  H39   1.083000 S    
O33   V4    1.701459 S    
C112  C113  1.406403 A    
C31   O15   1.349381 S    
N16   C136  1.446354 S    
C38   C41   1.407202 A    
O2    C1    1.299495 A    
N8    C116  1.373480 A    
O5    V1    1.979090 S    
N3    C32   1.372698 A    
C76   C98   1.398705 A    
N15   O43   1.301668 A    
C84   H28   1.083591 S    
N13   C134  1.445665 S    
N9    O37   1.301270 A    
N7    C128  1.445860 S    
C7    C10   1.423804 A    
C15   H2    1.083146 S    
C44   C59   1.425005 A    
C64   C65   1.393186 A    
C60   C61   1.420219 A    
C16   H3    1.083137 S    
C68   O21   1.349586 S    
C71   H24   1.083182 S    
C5    N1    1.371934 A    
C45   C64   1.415112 A    
N12   O42   1.300945 A    
C18   O14   1.349276 S    
C50   C51   1.407227 A    
N10   O40   1.301390 A    
C137  H65   1.110801 S    
C66   H23   1.077691 S    
C121  C122  1.401170 A    
C72   C73   1.402227 A    
O3    C4    1.295837 A    
N5    C73   1.448819 S    
C70   N16   1.423119 S    
C127  C128  1.402048 A    
C109  C110  1.406655 A    
N9    O38   1.301432 A    
O28   C129  1.299969 A    
C125  C129  1.490128 S    
C117  H41   1.083743 S    
O6    V2    1.979929 S    
O8    V2    1.981652 S    
C28   C29   1.400718 A    
C81   C82   1.420526 A    
C86   C87   1.407874 A    
C133  H50   1.109078 S    
C116  O26   1.349160 S    
C69   H30   1.083551 S    
C36   H13   1.082347 S    
C20   H5    1.083035 S    
C136  H60   1.111582 S    
O2    V1    1.980288 S    
C100  H32   1.075544 S    
C92   C93   1.399941 A    
C56   C57   1.418028 A    
C113  C114  1.398535 A    
C52   N4    1.372586 A    
C4    C21   1.487598 S    
C110  C115  1.410751 A    
N11   H47   1.031832 S    
C77   C99   1.396453 A    
C12   C17   1.410582 A    
N17   C137  1.445679 S    
C125  C126  1.405396 A    
C27   C28   1.408005 A    
C19   H4    1.082960 S    
C42   C132  1.480576 S    
N13   H51   1.030826 S    
C14   C18   1.410187 A    
O1    C2    1.295316 A    
C64   H21   1.077695 S    
C45   C61   1.425029 A    
N2    C18   1.374189 A    
C21   C22   1.407512 A    
O31   V3    1.974350 S    
C72   H25   1.082974 S    
C84   C85   1.396213 A    
C136  H61   1.109875 S    
C6    O12   1.347752 S    
C82   C86   1.428211 A    
C67   N5    1.371840 A    
O8    C3    1.296668 A    
O35   V4    1.981472 S    
C67   O19   1.349650 S    
C17   O13   1.349449 S    
C90   N14   1.422379 S    
O28   V3    1.975623 S    
C85   C86   1.408016 A    
C97   C102  1.417104 A    
C5    C9    1.406499 A    
C96   C97   1.424647 A    
C134  H54   1.109557 S    
N3    C37   1.450441 S    
C79   C130  1.471604 S    
C81   C100  1.417627 A    
C10   N9    1.434779 S    
C85   C89   1.409052 A    
C6    C7    1.420457 A    
O9    V2    1.977662 S    
C102  H36   1.075505 S    
O7    V2    1.702747 S    
C103  O23   1.349024 S    
C33   N11   1.424316 S    
C108  C109  1.399150 A    
C62   H18   1.077484 S    
C95   C96   1.424786 A    
C100  C101  1.391785 A    
C98   N15   1.435867 S    
C61   C66   1.415128 A    
C87   C88   1.409729 A    
C44   C47   1.415121 A    
C29   H11   1.083000 S    
C40   H14   1.083334 S    
C117  C122  1.400785 A    
C106  C111  1.418597 A    
C80   C83   1.414543 A    
N17   H63   1.029106 S    
V2    O10   2.149847 S    
C8    C13   1.419744 A    
C33   C34   1.409052 A    
C48   H16   1.083336 S    
C57   C58   1.412582 A    
C114  H40   1.083010 S    
C134  H53   1.107412 S    
O7    V1    2.152037 S    
C126  C127  1.397107 A    
C54   C58   1.399628 A    
C38   C39   1.407000 A    
C137  H66   1.111166 S    
O31   C131  1.296437 A    
C135  H56   1.110334 S    
C29   C30   1.405971 A    
C133  H48   1.110097 S    
N6    C94   1.443602 S    
C10   C11   1.403319 A    
C108  H37   1.083001 S    
C45   C46   1.420262 A    
C112  C116  1.409881 A    
C65   H22   1.083325 S    
N1    C30   1.451225 S    
O4    V1    1.975756 S    
C7    C8    1.415156 A    
C80   C82   1.421488 A    
C110  C111  1.408242 A    
O27   V4    1.980539 S    
C56   N12   1.436466 S    
C14   C15   1.404702 A    
O3    V1    1.974111 S    
C71   C72   1.398023 A    
C55   N10   1.438054 S    
C68   C77   1.410082 A    
V1    O10   1.703931 S    
C124  H44   1.083056 S    
C48   C49   1.398661 A    
C2    C119  1.498204 S    
O9    C4    1.298989 A    
C135  H57   1.111794 S    
C1    C78   1.491979 S    
C79   C91   1.401837 A    
C90   C91   1.406526 A    
C26   H9    1.083079 S    
C75   C76   1.396024 A    
C79   C92   1.401186 A    
C70   C78   1.420298 A    
