data_mof_unit_67139.cif
_audit_creation_date              2012-12-11T17:48:24-0500
_audit_creation_method            fapswitch 2.2
_symmetry_space_group_name_H-M    P1
_symmetry_Int_Tables_number       1
_space_group_crystal_system       triclinic
_cell_length_a                    8.338076
_cell_length_b                    12.718528
_cell_length_c                    14.909046
_cell_angle_alpha                 96.832561
_cell_angle_beta                  97.166343
_cell_angle_gamma                 98.239197
_cell_volume                      1537.3821824

loop_
_atom_site_label
_atom_site_type_symbol
_atom_type_description
_atom_site_fract_x
_atom_site_fract_y
_atom_site_fract_z
_atom_type_partial_charge
Ba1   Ba    Ba6+2 0.843750 0.550210 0.455600 1.236064
Ba2   Ba    Ba6+2 0.346090 0.449880 0.544410 1.116792
C1    C     C_3   0.546817 0.925357 0.192470 0.360578
C2    C     C_3   0.538498 0.820218 0.233687 0.516626
C3    C     C_3   0.396341 0.261819 0.260825 0.263341
C4    C     C_3   0.318699 0.201855 0.166932 1.158671
C5    C     C_3   0.160642 0.245996 0.793500 0.311097
C6    C     C_3   0.173570 0.227988 0.893222 0.951565
C7    C     C_3   0.592309 0.166947 0.775044 0.415903
C8    C     C_3   0.636948 0.088077 0.840933 0.286746
C9    C     C_R   0.827853 0.437671 0.830626 0.198547
C10   C     C_R   0.896346 0.443183 0.923328 -0.014802
C11   C     C_R   0.037323 0.453274 0.109570 -0.066046
C12   C     C_3   0.993831 0.776109 0.213949 0.379504
C13   C     C_R   0.877708 0.399568 0.077194 0.168810
C14   C     C_R   0.807220 0.397638 0.987156 -0.302653
C15   C     C_R   0.105845 0.464605 0.203492 -0.020626
C16   C     C_R   0.266467 0.516371 0.230773 0.534930
C17   C     C_R   0.083431 0.532995 0.796097 -0.106726
C18   C     C_R   0.152434 0.542174 0.889814 -0.160047
C19   C     C_R   0.060284 0.493897 0.952746 -0.168845
C20   C     C_R   0.311261 0.596895 0.922737 0.201051
C21   C     C_R   0.383533 0.595747 0.012000 -0.040268
C22   C     C_R   0.295487 0.547983 0.075218 -0.116549
C23   C     C_3   0.954092 0.807771 0.118827 0.858318
C24   C     C_R   0.130956 0.498559 0.045949 0.095724
C25   C     C_R   0.364351 0.552382 0.167826 -0.012723
C26   C     C_R   0.924161 0.477705 0.768135 0.145101
C27   C     C_R   0.774530 0.181303 0.531647 0.356157
C28   C     C_R   0.426869 0.810767 0.466922 0.572562
C29   C     C_R   0.392448 0.988681 0.439797 -0.077806
C30   C     C_R   0.327885 0.880892 0.435018 0.054316
C31   C     C_R   0.583914 0.849187 0.515090 -0.130410
C32   C     C_R   0.649706 0.961141 0.524972 -0.248284
C33   C     C_R   0.552160 0.030687 0.483696 -0.189831
C34   C     C_3   0.286886 0.779287 0.657441 0.679197
C35   C     C_R   0.615679 0.141058 0.488328 0.079793
C36   C     C_R   0.873463 0.114169 0.569536 0.015416
C37   C     C_R   0.808941 0.006839 0.571935 0.597179
C38   C     C_3   0.350710 0.897650 0.686676 0.751724
C39   C     C_3   0.912187 0.216303 0.338351 0.267805
C40   C     C_3   0.916556 0.097196 0.316429 0.952322
C41   C     C_3   0.776014 0.698261 0.730406 0.054156
C42   C     C_3   0.815560 0.732091 0.833301 0.943052
H1    H     H_    0.611371 0.837301 0.302994 0.060479
H2    H     H_    0.466722 0.905390 0.733493 -0.053811
H3    H     H_    0.374462 0.938672 0.627212 -0.155924
H4    H     H_    0.785814 0.229327 0.343657 0.032610
H5    H     H_    0.993689 0.247882 0.403694 0.111321
H6    H     H_    0.885922 0.071811 0.241901 0.048837
H7    H     H_    0.887576 0.677682 0.704080 0.116940
H8    H     H_    0.677525 0.627234 0.716677 0.143345
H9    H     H_    0.674422 0.953996 0.183521 -0.008741
H10   H     H_    0.850701 0.664342 0.867348 0.068133
H11   H     H_    0.506519 0.987027 0.239965 0.154315
H12   H     H_    0.296652 0.290132 0.295893 0.138742
H13   H     H_    0.278390 0.287731 0.780323 0.113669
H14   H     H_    0.069678 0.299837 0.781046 0.007048
H15   H     H_    0.237343 0.303653 0.936445 -0.035749
H16   H     H_    0.483970 0.127747 0.725251 0.173172
H17   H     H_    0.721327 0.131547 0.901429 0.156336
H18   H     H_    0.698361 0.025810 0.806768 0.110095
H19   H     H_    0.879899 0.748909 0.240155 0.041839
H20   H     H_    0.803283 0.358996 0.120766 0.137733
H21   H     H_    0.681629 0.359265 0.969002 0.209053
H22   H     H_    0.509149 0.634339 0.030449 0.151813
H23   H     H_    0.383961 0.640079 0.879910 0.072201
H24   H     H_    0.315919 0.038951 0.409075 0.177474
H25   H     H_    0.064241 0.708383 0.209215 0.010831
H26   H     H_    0.885670 0.876331 0.123614 0.076604
H27   H     H_    0.387259 0.739332 0.635269 -0.096683
O1    O     O_2   0.827880 0.435260 0.277750 -0.468077
O2    O     O_3   0.724856 0.783985 0.690303 -0.534616
O3    O     O_3   0.081628 0.865075 0.273297 -0.534199
O4    O     O_2   0.361830 0.564780 0.722310 -0.545653
O5    O     O_3   0.089430 0.561130 0.608830 -0.260339
O6    O     O_3   0.564130 0.365960 0.666760 -0.253261
O7    O     O_3   0.230058 0.736366 0.731669 -0.559056
O8    O     O_3   0.601940 0.368240 0.453770 -0.408893
O9    O     O_3   0.133170 0.309040 0.621000 -0.383872
O10   O     O_2   0.214376 0.117011 0.575852 -0.459048
O11   O     O_3   0.118181 0.147091 0.736177 -0.469045
O12   O     O_3   0.100280 0.438960 0.391170 -0.369658
O13   O     O_3   0.587780 0.631850 0.546230 -0.374848
O14   O     O_2   0.332590 0.233690 0.456160 -0.411454
O15   O     O_3   0.475883 0.190704 0.308556 -0.575191
O16   O     O_2   0.500539 0.454348 0.826814 -0.551578
O17   O     O_3   0.550208 0.257583 0.826015 -0.580185
O18   O     O_3   0.625580 0.634130 0.333250 -0.317921
O19   O     O_2   0.703520 0.559483 0.171802 -0.403432
O20   O     O_3   0.964034 0.264380 0.265619 -0.683293
O21   O     O_3   0.607022 0.745883 0.178326 -0.649559
O22   O     O_2   0.857130 0.766340 0.543890 -0.302891
O23   O     O_3   0.056550 0.691050 0.379010 -0.369142
O24   O     O_2   0.992437 0.885615 0.435428 -0.356403
P1    P     P_3+3 0.998730 0.403530 0.291970 0.967011
P2    P     P_3+3 0.687380 0.751030 0.571310 1.182649
P3    P     P_3+3 0.113875 0.830020 0.383585 1.298087
P4    P     P_3+3 0.190990 0.596560 0.708040 1.123081
P5    P     P_3+3 0.085501 0.171064 0.622565 1.085950
P6    P     P_3+3 0.575414 0.618837 0.213936 0.855346
P7    P     P_3+3 0.507062 0.233077 0.426463 1.067845
P8    P     P_3+3 0.611816 0.379878 0.786227 0.889119
F1    F     F_    0.237892 0.945940 0.730531 -0.588501
F2    F     F_    0.807702 0.037563 0.360292 -0.815598
F3    F     F_    0.071874 0.077864 0.343105 -0.706032
F4    F     F_    0.944201 0.816866 0.852876 -0.582663
F5    F     F_    0.679842 0.763072 0.867170 -0.682513
O25   O     O_3   0.375298 0.782015 0.241163 -0.788323
H28   H     H_    0.317993 0.759296 0.178008 0.359174
O26   O     O_3   0.511056 0.348318 0.247752 -0.767942
H29   H     H_    0.519073 0.404382 0.300738 0.388446
O27   O     O_3   0.198759 0.117012 0.177826 -0.632122
H30   H     H_    0.145050 0.084366 0.115609 0.368213
F6    F     F_    0.246369 0.272002 0.116636 -0.839109
O28   O     O_3   0.438997 0.160468 0.121438 -0.710585
H31   H     H_    0.500709 0.220805 0.097046 0.311028
O29   O     O_3   0.445772 0.912116 0.107984 -0.594238
H32   H     H_    0.502715 0.874070 0.062574 0.392239
F7    F     F_    0.096794 0.839584 0.083896 -0.658988
O30   O     O_3   0.015719 0.200327 0.915099 -0.803578
H33   H     H_    0.023666 0.215418 0.982427 0.306842
O31   O     O_3   0.264189 0.145193 0.906374 -0.597340
H34   H     H_    0.254918 0.127600 0.968609 0.370194
O32   O     O_3   0.722637 0.192035 0.726332 -0.760575
H35   H     H_    0.820031 0.219808 0.772129 0.307084
F8    F     F_    0.499640 0.038754 0.871402 -0.519250
F9    F     F_    0.329842 0.531416 0.320368 -0.637434
F10   F     F_    0.858902 0.465987 0.678932 -0.614025
F11   F     F_    0.902374 0.951716 0.623618 -0.598079
F12   F     F_    0.834596 0.286934 0.536147 -0.678286
F13   F     F_    0.365318 0.704708 0.454955 -0.664572
O33   O     O_3   0.856816 0.722083 0.059667 -0.697990
H36   H     H_    0.928114 0.667664 0.046969 0.288187
F14   F     F_    0.161412 0.768102 0.585991 -0.630254

loop_
_geom_bond_atom_site_label_1
_geom_bond_atom_site_label_2
_ccdc_geom_bond_type
C41   O2    S    
C38   H3    S    
C19   C24   A    
C23   F7    S    
O31   H34   S    
C39   C40   S    
C3    H12   S    
Ba2   O13   S    
O26   H29   S    
C22   C25   A    
C2    O25   S    
O33   H36   S    
O24   P3    D    
C5    C6    S    
O3    P3    S    
C27   F12   S    
O5    P4    S    
C38   H2    S    
O19   P6    D    
O13   P2    S    
C12   O3    S    
C21   H22   S    
C33   C35   A    
C22   C24   A    
C32   C33   A    
C6    H15   S    
C35   P7    S    
C6    O30   S    
C12   H19   S    
C13   C14   A    
O28   H31   S    
Ba2   O14   S    
Ba1   Ba2   S    
O29   H32   S    
Ba2   O8    S    
C16   F9    S    
O20   P1    S    
C1    H11   S    
C10   C14   A    
Ba1   O23   S    
C27   C36   A    
C13   H20   S    
O8    P7    S    
C23   O33   S    
C7    C8    S    
C5    H14   S    
C34   H27   S    
O9    P5    S    
Ba2   O12   S    
C8    H18   S    
C39   H5    S    
C15   C16   A    
C2    H1    S    
C42   F5    S    
C36   C37   A    
C4    F6    S    
Ba1   O1    S    
C32   C37   A    
C34   C38   S    
C36   P5    S    
Ba1   P2    S    
C17   P4    S    
C3    O26   S    
C10   C19   A    
C25   P6    S    
C7    O32   S    
Ba1   O13   S    
O2    P2    S    
C41   C42   S    
C4    O27   S    
C1    O29   S    
C38   F1    S    
C29   C30   A    
C21   C22   A    
O4    P4    D    
C31   C32   A    
C15   P1    S    
C17   C26   A    
C40   F3    S    
C4    O28   S    
O30   H33   S    
O21   P6    S    
C40   H6    S    
O16   P8    D    
C3    O15   S    
C39   O20   S    
C18   C20   A    
Ba2   P4    S    
C11   C13   A    
O32   H35   S    
Ba1   O8    S    
C12   H25   S    
C29   C33   A    
C11   C24   A    
O6    P8    S    
C8    H17   S    
C8    F8    S    
O15   P7    S    
C34   F14   S    
O22   P2    D    
O17   P8    S    
Ba2   O5    S    
O27   H30   S    
C42   F4    S    
C26   F10   S    
Ba1   O18   S    
C28   C31   A    
O18   P6    S    
Ba1   O5    S    
O11   P5    S    
C29   H24   S    
C16   C25   A    
C9    C10   A    
C6    O31   S    
C14   H21   S    
O10   P5    D    
Ba1   O12   S    
C11   C15   A    
C7    H16   S    
C17   C18   A    
C7    O17   S    
Ba2   O6    S    
C34   O7    S    
O25   H28   S    
C28   C30   A    
C1    H9    S    
C41   H7    S    
C3    C4    S    
C9    C26   A    
Ba1   P1    S    
C28   F13   S    
O12   P1    S    
C39   H4    S    
C30   P3    S    
C31   P2    S    
C12   C23   S    
C41   H8    S    
C40   F2    S    
C20   H23   S    
Ba2   O9    S    
Ba2   O4    S    
O1    P1    D    
C42   H10   S    
C5    O11   S    
C18   C19   A    
Ba1   O22   S    
C27   C35   A    
O7    P4    S    
O23   P3    S    
C20   C21   A    
C9    P8    S    
C23   H26   S    
C37   F11   S    
C5    H13   S    
O14   P7    D    
C1    C2    S    
C2    O21   S    
