data_mof_unit_51467.cif
_audit_creation_date              2012-12-11T14:56:44-0500
_audit_creation_method            fapswitch 2.2
_symmetry_space_group_name_H-M    P1
_symmetry_Int_Tables_number       1
_space_group_crystal_system       triclinic
_cell_length_a                    10.535465
_cell_length_b                    10.685947
_cell_length_c                    17.114294
_cell_angle_alpha                 79.861977
_cell_angle_beta                  90.157945
_cell_angle_gamma                 119.217033
_cell_volume                      1647.59536068

loop_
_atom_site_label
_atom_site_type_symbol
_atom_type_description
_atom_site_fract_x
_atom_site_fract_y
_atom_site_fract_z
_atom_type_partial_charge
C1    C     C_R   0.222350 0.853839 0.128742 0.550187
C2    C     C_1   0.684405 0.401064 0.709707 -0.009470
C3    C     C_R   0.549057 0.727872 0.787048 -0.040647
C4    C     C_R   0.636707 0.282308 0.085579 0.532909
C5    C     C_R   0.534323 0.742825 0.706342 -0.127179
C6    C     C_R   0.650782 0.849822 0.652917 -0.051087
C7    C     C_R   0.764203 0.969241 0.678702 -0.089636
C8    C     C_R   0.766392 0.973186 0.759382 0.343713
C9    C     C_R   0.661354 0.851875 0.814866 0.026985
C10   C     C_R   0.214533 0.965997 0.755047 -0.011069
C11   C     C_R   0.232956 0.955493 0.676864 -0.158841
C12   C     C_R   0.793259 0.401125 0.266795 -0.198389
C13   C     C_R   0.174998 0.818750 0.657776 0.013563
C14   C     C_R   0.144271 0.696266 0.717367 0.348668
C15   C     C_R   0.158058 0.711676 0.796349 -0.115761
C16   C     C_R   0.601239 0.881492 0.130853 0.562690
C17   C     C_R   0.188908 0.844746 0.816623 -0.030027
C18   C     C_R   0.683334 0.813147 0.358473 0.546930
C19   C     C_R   0.688139 0.394620 0.394903 0.584991
C20   C     C_R   0.103963 0.810564 0.359194 0.557420
C21   C     C_R   0.674015 0.806555 0.581142 0.536562
C22   C     C_R   0.717288 0.445738 0.625907 0.574385
C23   C     C_R   0.786171 0.394429 0.187664 -0.168633
C24   C     C_R   0.104214 0.802543 0.584497 0.555184
C25   C     C_R   0.226135 0.866309 0.897418 0.554870
C26   C     C_R   0.639974 0.290303 0.861737 0.550364
C27   C     C_R   0.641679 0.867537 0.896526 0.576435
C28   C     C_R   0.531394 0.337950 0.198756 0.017147
C29   C     C_R   0.537575 0.334804 0.281046 0.371622
C30   C     C_R   0.668211 0.366023 0.314794 0.030317
C31   C     C_3   0.395857 0.324458 0.159812 -0.224958
C32   C     C_3   0.329525 0.408080 0.191038 -0.363948
C33   C     C_3   0.443954 0.581056 0.842007 -0.251102
C34   C     C_R   0.653547 0.350882 0.154501 -0.022543
C35   C     C_3   0.367515 0.449279 0.802766 -0.462882
C36   C     C_3   0.214504 0.102230 0.770225 -0.248633
C37   C     C_3   0.180294 0.187406 0.699203 -0.416873
C38   C     C_1   0.634864 0.871025 0.211078 -0.038221
C39   C     C_1   0.661624 0.855424 0.278796 -0.035030
C40   C     C_1   0.180727 0.825315 0.211384 -0.048638
C41   C     C_1   0.151616 0.820189 0.279830 -0.034274
C42   C     C_1   0.661392 0.356998 0.780210 -0.026368
Cr1   Cr    Cr6+3 0.402240 0.783890 0.019450 0.988009
Cr2   Cr    Cr6+3 0.382360 0.097900 0.991800 0.988482
Cr3   Cr    Cr6+3 0.715380 0.118170 0.988700 1.075492
Cr4   Cr    Cr6+3 0.936650 0.882420 0.465510 1.047102
Cr5   Cr    Cr6+3 0.605770 0.565620 0.493360 1.059577
Cr6   Cr    Cr6+3 0.921340 0.550490 0.496380 1.073256
F1    F     F_    0.094640 0.561654 0.700168 -0.623502
F2    F     F_    0.417779 0.301409 0.328540 -0.638954
F3    F     F_    0.871739 0.093747 0.783035 -0.631229
H1    H     H_    0.267792 0.049931 0.629099 0.159019
H2    H     H_    0.425231 0.371937 0.095029 0.147591
H3    H     H_    0.311421 0.207114 0.167716 0.182381
H4    H     H_    0.281301 0.456570 0.768362 0.195029
H5    H     H_    0.446560 0.442789 0.763366 0.155173
H6    H     H_    0.313474 0.348785 0.850054 0.151289
H7    H     H_    0.506572 0.554273 0.887977 0.164177
H8    H     H_    0.354932 0.589121 0.871198 0.188464
H9    H     H_    0.279476 0.259441 0.656768 0.148194
H10   H     H_    0.091391 0.111431 0.667974 0.180086
H11   H     H_    0.141809 0.256525 0.720081 0.217810
H12   H     H_    0.138884 0.618407 0.841926 0.143226
H13   H     H_    0.127320 0.068861 0.818504 0.213275
H14   H     H_    0.322504 0.175521 0.788750 0.170987
H15   H     H_    0.898210 0.433957 0.290194 0.158653
H16   H     H_    0.882905 0.413173 0.153933 0.153823
H17   H     H_    0.441753 0.658489 0.684257 0.181231
H18   H     H_    0.852793 0.056240 0.636801 0.151150
H19   H     H_    0.250938 0.339536 0.244359 0.207832
H20   H     H_    0.415937 0.511042 0.206396 0.203475
H21   H     H_    0.267996 0.435619 0.144789 0.116309
O1    O     O_R   0.521780 0.757110 0.108900 -0.524833
O2    O     O_R   0.805020 0.410040 0.421340 -0.539634
O3    O     O_R   0.049240 0.685450 0.403290 -0.511997
O4    O     O_R   0.275160 0.783810 0.101120 -0.512903
O5    O     O_R   0.077520 0.903010 0.551800 -0.528921
O6    O     O_R   0.802980 0.872780 0.546830 -0.507272
O7    O     O_R   0.578090 0.681300 0.569920 -0.527145
O8    O     O_R   0.608530 0.436370 0.586530 -0.517565
O9    O     O_R   0.798770 0.401880 0.597100 -0.454882
O10   O     O_R   0.043450 0.677890 0.566230 -0.449375
O11   O     O_3   0.821250 0.666180 0.485090 -0.296517
O12   O     O_R   0.513330 0.228330 0.898660 -0.526934
O13   O     O_R   0.237900 0.972600 0.090980 -0.513068
O14   O     O_R   0.511190 0.220540 0.061620 -0.523645
O15   O     O_R   0.736920 0.257720 0.063840 -0.525853
O16   O     O_R   0.710450 0.984050 0.081720 -0.490536
O17   O     O_R   0.524090 0.765520 0.933110 -0.556936
O18   O     O_R   0.277300 0.791600 0.938160 -0.507571
O19   O     O_R   0.240210 0.981010 0.915190 -0.525722
O20   O     O_R   0.739230 0.266130 0.888050 -0.456693
O21   O     O_R   0.712580 0.991850 0.918770 -0.420295
O22   O     O_3   0.499990 0.999980 0.999980 -0.271798
O23   O     O_R   0.083770 0.911170 0.376030 -0.474968
O24   O     O_R   0.808770 0.880340 0.383890 -0.494583
O25   O     O_R   0.584340 0.689460 0.394160 -0.494275
O26   O     O_R   0.614320 0.443940 0.423590 -0.434222

loop_
_geom_bond_atom_site_label_1
_geom_bond_atom_site_label_2
_ccdc_geom_bond_type
Cr1   O1    S    
C33   H7    S    
C18   O24   A    
Cr5   O7    S    
Cr3   O21   S    
C20   C41   S    
C7    C8    A    
C32   H21   S    
C4    O15   A    
C12   C23   A    
C9    C27   S    
C25   O18   A    
Cr1   O17   S    
Cr5   O26   S    
C36   C37   S    
Cr3   O15   S    
C38   C39   T    
C14   F1    S    
C4    O14   A    
C3    C33   S    
C10   C17   A    
C26   O20   A    
Cr1   O22   S    
Cr6   O9    S    
C23   H16   S    
Cr3   O20   S    
C24   O10   A    
C11   H1    S    
C1    C40   S    
Cr4   O23   S    
C8    C9    A    
C21   O6    A    
C2    C22   S    
C18   O25   A    
Cr5   O11   S    
C28   C34   A    
C33   H8    S    
C13   C14   A    
Cr6   O3    S    
Cr5   O8    S    
C5    H17   S    
Cr2   O14   S    
Cr3   O22   S    
C19   O26   A    
C37   H11   S    
C32   H20   S    
C29   F2    S    
C28   C31   S    
C1    O13   A    
C4    C34   S    
C25   O19   A    
Cr1   O18   S    
C35   H4    S    
C16   O1    A    
C22   O9    A    
Cr6   O2    S    
Cr3   O16   S    
Cr4   O6    S    
C36   H14   S    
C32   H19   S    
Cr2   O12   S    
C6    C21   S    
C12   H15   S    
C13   C24   S    
C18   C39   S    
C29   C30   A    
C3    C9    A    
C31   C32   S    
C23   C34   A    
C21   O7    A    
C31   H2    S    
C8    F3    S    
Cr2   O19   S    
C40   C41   T    
C20   O23   A    
C27   O21   A    
Cr2   O13   S    
C26   C42   S    
Cr1   O4    S    
C15   C17   A    
C28   C29   A    
C26   O12   A    
C12   C30   A    
C35   H5    S    
C1    O4    A    
C19   O2    A    
C3    C5    A    
C7    H18   S    
Cr4   O5    S    
C37   H10   S    
C6    C7    A    
Cr5   O25   S    
Cr6   O11   S    
C35   H6    S    
C17   C25   S    
C22   O8    A    
C11   C13   A    
C5    C6    A    
C2    C42   T    
C33   C35   S    
Cr6   O10   S    
C27   O17   A    
C31   H3    S    
C37   H9    S    
Cr2   O22   S    
C10   C11   A    
Cr4   O11   S    
C24   O5    A    
Cr4   O24   S    
C20   O3    A    
C16   O16   A    
C15   H12   S    
C14   C15   A    
C10   C36   S    
C36   H13   S    
C19   C30   S    
C16   C38   S    
