data_mof_unit_25537.cif
_audit_creation_date              2013-03-05T15:47:55-0500
_audit_creation_method            fapswitch 2.2
_symmetry_space_group_name_H-M    P1
_symmetry_Int_Tables_number       1
_space_group_crystal_system       triclinic
_cell_length_a                    11.703129
_cell_length_b                    13.014755
_cell_length_c                    13.454259
_cell_angle_alpha                 92.486353
_cell_angle_beta                  76.236073
_cell_angle_gamma                 99.437946
_cell_volume                      1963.45412242

loop_
_atom_site_label
_atom_site_type_symbol
_atom_site_description
_atom_site_fract_x
_atom_site_fract_y
_atom_site_fract_z
_atom_type_partial_charge
O1    O     O_R   0.419710 0.645650 0.494620 -0.497090
O2    O     O_R   0.611450 0.658430 0.507430 -0.597914
C1    C     C_R   0.519509 0.700221 0.503894 0.951379
O3    O     O_R   0.357340 0.490460 0.641450 -0.619392
O4    O     O_R   0.549080 0.503250 0.654260 -0.566363
C2    C     C_R   0.436105 0.485580 0.695340 0.846771
Cu1   Cu    Cu3+1 0.386470 0.492430 0.492410 1.003418
Cu2   Cu    Cu3+1 0.613530 0.507570 0.507590 0.997943
O5    O     O_R   0.388550 0.341570 0.492570 -0.605336
O6    O     O_R   0.580290 0.354350 0.505380 -0.562416
O7    O     O_R   0.450920 0.496750 0.345740 -0.573351
O8    O     O_R   0.642660 0.509540 0.358550 -0.573485
C3    C     C_R   0.479530 0.299702 0.499541 0.822405
C4    C     C_R   0.564128 0.505303 0.303956 0.836710
C5    C     C_R   0.746583 0.480289 0.034205 -0.221204
H1    H     H_    0.772605 0.425480 0.839378 0.163380
H2    H     H_    0.837487 0.475663 0.994627 0.211181
C6    C     C_R   0.601655 0.502730 0.191600 -0.167636
C7    C     C_R   0.277851 0.458387 0.855918 -0.275158
C8    C     C_R   0.239599 0.449574 0.962234 0.391985
C9    C     C_R   0.324705 0.456364 0.020864 -0.247671
C10   C     C_R   0.447503 0.462427 0.974133 0.047337
C11   C     C_R   0.481839 0.453373 0.866157 0.098548
C12   C     C_R   0.537276 0.473867 0.031096 0.100708
C13   C     C_R   0.656262 0.465234 0.980653 0.067369
C14   C     C_R   0.683740 0.439316 0.877454 -0.187351
C15   C     C_R   0.597343 0.430842 0.821754 -0.089936
C16   C     C_R   0.512965 0.495010 0.136385 -0.266695
C17   C     C_R   0.721160 0.501373 0.138859 0.452184
C18   C     C_R   0.398517 0.464333 0.806837 -0.134941
H3    H     H_    0.424914 0.505832 0.177468 0.191120
H4    H     H_    0.212691 0.459138 0.811197 0.178614
H5    H     H_    0.291982 0.451102 0.102599 0.173302
H6    H     H_    0.622604 0.402445 0.744653 0.220219
C19   C     C_R   0.472699 0.187328 0.493783 -0.150001
C20   C     C_R   0.527475 0.812877 0.513414 -0.344417
C21   C     C_R   0.600480 0.975725 0.588764 0.382800
C22   C     C_R   0.585602 0.866693 0.585315 0.178749
C23   C     C_R   0.475409 0.866229 0.451578 0.269197
C24   C     C_R   0.475782 0.973688 0.465469 -0.051361
C25   C     C_R   0.536523 0.029131 0.536197 -0.153995
C26   C     C_R   0.530891 0.136280 0.552542 0.343509
C27   C     C_R   0.415856 0.132549 0.423158 -0.258736
C28   C     C_R   0.417259 0.026902 0.408997 -0.085252
H7    H     H_    0.372314 0.172204 0.377063 0.163229
H8    H     H_    0.373018 0.987890 0.352577 0.195200
N1    N     N_R   0.215880 0.481050 0.481000 -0.223762
N2    N     N_R   0.784100 0.518950 0.519000 -0.203100
C29   C     C_R   0.956915 0.623729 0.557050 -0.293985
C30   C     C_R   0.835681 0.607717 0.558250 0.054730
C31   C     C_R   0.851129 0.444094 0.476492 0.123251
C32   C     C_R   0.973542 0.455657 0.476483 -0.000731
C33   C     C_R   0.026285 0.545610 0.520016 -0.018350
C34   C     C_R   0.147262 0.555577 0.525143 0.632621
C35   C     C_R   0.165818 0.395692 0.434750 0.002135
C36   C     C_R   0.044700 0.381053 0.432488 -0.294201
H9    H     H_    0.219358 0.337452 0.400358 0.151365
H10   H     H_    0.995841 0.698021 0.582928 0.187983
H11   H     H_    0.007109 0.311924 0.396359 0.160756
H12   H     H_    0.783610 0.667972 0.588371 0.196759
H13   H     H_    0.810045 0.376189 0.441196 0.146653
O9    O     O_3   0.812902 0.511539 0.189032 -0.562746
C37   C     C_3   0.849236 0.618122 0.209332 0.125954
H14   H     H_    0.885780 0.621936 0.278705 0.180634
H15   H     H_    0.774202 0.664141 0.227448 0.122665
C38   C     C_3   0.947320 0.668136 0.120196 -0.371636
H16   H     H_    0.021328 0.621751 0.102419 0.277562
H17   H     H_    0.910955 0.669335 0.051229 0.214113
C39   C     C_3   0.996145 0.779480 0.146225 -0.867008
H18   H     H_    0.924210 0.828188 0.161894 0.260640
H19   H     H_    0.067552 0.813537 0.080795 0.268399
H20   H     H_    0.034372 0.780321 0.214397 0.269842
O10   O     O_3   0.674890 0.028842 0.646342 -0.510020
C40   C     C_3   0.791337 0.050198 0.582797 0.134435
H21   H     H_    0.794152 0.105749 0.521221 0.134577
H22   H     H_    0.821706 0.977753 0.546179 0.134232
C41   C     C_3   0.877764 0.098502 0.647487 -0.248365
H23   H     H_    0.852191 0.173306 0.681087 0.252372
H24   H     H_    0.872615 0.044990 0.711144 0.249333
C42   C     C_3   0.005861 0.118571 0.583726 -0.927986
H25   H     H_    0.035215 0.044052 0.553293 0.266422
H26   H     H_    0.065790 0.156082 0.632193 0.274032
H27   H     H_    0.013160 0.171037 0.518921 0.252204
N3    N     N_R   0.620713 0.810721 0.660436 0.149671
O11   O     O_R   0.721265 0.841238 0.686223 -0.367953
O12   O     O_R   0.545165 0.736307 0.712503 -0.378642
N4    N     N_R   0.421665 0.810746 0.375208 0.134534
O13   O     O_R   0.486512 0.765271 0.299403 -0.383727
O14   O     O_R   0.306478 0.796075 0.387508 -0.338095
O15   O     O_3   0.196683 0.643681 0.571051 -0.577487
C43   C     C_3   0.180896 0.627844 0.677498 0.078304
H28   H     H_    0.270573 0.643080 0.694021 0.209216
H29   H     H_    0.137743 0.547620 0.704021 0.110920
C44   C     C_3   0.109020 0.706417 0.740960 -0.392508
H30   H     H_    0.139381 0.785040 0.706130 0.254269
H31   H     H_    0.012970 0.682630 0.743360 0.218004
C45   C     C_3   0.122988 0.711777 0.851131 -0.864725
H32   H     H_    0.092421 0.634073 0.887746 0.267965
H33   H     H_    0.068235 0.767940 0.895213 0.263765
H34   H     H_    0.217537 0.738422 0.853296 0.276248
N5    N     N_R   0.114320 0.433709 0.010472 0.113631
O16   O     O_R   0.077724 0.430166 0.109700 -0.357550
O17   O     O_R   0.035797 0.414328 0.955277 -0.408165
N6    N     N_R   0.571220 0.190858 0.635961 0.137259
O18   O     O_R   0.675997 0.247890 0.620663 -0.412378
O19   O     O_R   0.503542 0.181514 0.728039 -0.341893

loop_
_geom_bond_atom_site_label_1
_geom_bond_atom_site_label_2
_geom_bond_distance
_ccdc_geom_bond_type
C38   H17   1.110721 S    
C35   C36   1.406368 A    
C37   H15   1.116783 S    
N5    O16   1.301787 A    
O10   C40   1.416820 S    
C4    C6    1.470935 S    
C7    C8    1.397244 A    
C31   H13   1.081943 S    
C23   N4    1.437706 S    
N4    O13   1.301182 A    
N6    O19   1.300555 A    
C45   H32   1.110903 S    
Cu1   Cu2   2.687914 S    
C41   H23   1.111183 S    
Cu1   O7    1.937420 S    
C14   C15   1.383101 A    
O9    C37   1.417235 S    
C40   H22   1.115471 S    
N3    O12   1.301432 A    
C34   O15   1.386312 S    
C42   H27   1.109442 S    
O4    C2    1.292310 A    
O7    C4    1.298619 A    
C5    C13   1.398957 A    
C38   C39   1.526020 S    
C9    H5    1.076194 S    
C5    H2    1.080562 S    
C25   C26   1.412101 A    
C39   H19   1.109996 S    
C19   C26   1.407237 A    
O5    C3    1.296781 A    
N2    C31   1.371275 A    
C40   C41   1.529276 S    
C11   C15   1.414446 A    
C19   C27   1.392912 A    
N2    C30   1.359405 A    
C38   H16   1.110046 S    
C37   C38   1.532057 S    
N5    O17   1.300786 A    
C9    C10   1.415625 A    
C44   H30   1.111773 S    
O3    Cu1   1.952973 S    
C7    H4    1.079319 S    
N6    O18   1.300610 A    
C45   H33   1.109863 S    
C28   H8    1.081408 S    
C5    C17   1.392947 A    
C41   H24   1.111579 S    
C15   H6    1.075489 S    
H1    C14   1.084592 S    
C40   H21   1.114147 S    
C31   C32   1.415722 A    
C11   C18   1.426185 A    
C6    C16   1.401973 A    
N3    O11   1.300744 A    
C42   H26   1.110471 S    
C43   H28   1.108668 S    
C8    N5    1.439804 S    
C44   C45   1.526858 S    
C13   C14   1.388357 A    
C33   C34   1.418300 A    
C20   C23   1.405583 A    
C29   H10   1.079557 S    
O1    C1    1.293730 A    
Cu1   N1    2.019444 S    
C39   H20   1.110989 S    
C27   C28   1.382137 A    
Cu2   N2    2.019211 S    
C21   C22   1.401148 A    
C43   H29   1.116311 S    
Cu2   O8    1.952973 S    
C6    C17   1.412322 A    
C12   C13   1.416780 A    
C44   H31   1.109025 S    
C27   H7    1.083997 S    
N1    C34   1.384533 A    
O3    C2    1.311741 A    
C24   C25   1.423239 A    
C2    C18   1.484048 S    
O8    C4    1.299359 A    
C35   H9    1.081031 S    
C10   C12   1.426641 A    
C23   C24   1.402358 A    
C45   H34   1.110906 S    
C32   C33   1.403631 A    
N1    C35   1.365512 A    
C41   C42   1.526636 S    
Cu1   O5    1.967646 S    
C21   O10   1.383289 S    
C17   O9    1.384379 S    
C22   N3    1.442460 S    
O1    Cu1   1.968421 S    
C16   H3    1.075652 S    
O2    Cu2   1.967644 S    
C12   C16   1.401241 A    
C42   H25   1.110930 S    
O6    C3    1.291010 A    
C26   N6    1.435235 S    
O4    Cu2   1.937420 S    
C3    C19   1.451261 S    
C36   H11   1.083183 S    
C30   H12   1.078061 S    
C20   C22   1.409699 A    
O2    C1    1.293979 A    
C43   C44   1.531970 S    
O15   C43   1.419478 S    
C1    C20   1.455810 S    
C29   C33   1.405455 A    
C21   C25   1.417290 A    
C39   H18   1.110868 S    
C37   H14   1.111539 S    
C24   C28   1.405297 A    
C8    C9    1.400362 A    
Cu2   O6    1.968422 S    
C29   C30   1.396120 A    
N4    O14   1.301249 A    
C10   C11   1.417283 A    
C7    C18   1.400411 A    
C32   C36   1.402636 A    
