data_mof_unit_47677.cif
_audit_creation_date              2012-12-11T16:45:51-0500
_audit_creation_method            fapswitch 2.2
_symmetry_space_group_name_H-M    P1
_symmetry_Int_Tables_number       1
_space_group_crystal_system       triclinic
_cell_length_a                    20.101125
_cell_length_b                    17.094122
_cell_length_c                    15.369278
_cell_angle_alpha                 89.999969
_cell_angle_beta                  52.276273
_cell_angle_gamma                 89.999959
_cell_volume                      4177.15666588

loop_
_atom_site_label
_atom_site_type_symbol
_atom_type_description
_atom_site_fract_x
_atom_site_fract_y
_atom_site_fract_z
_atom_type_partial_charge
C1    C     C_R   0.876325 0.694233 0.992469 -0.136554
C2    C     C_R   0.163239 0.318046 0.053554 0.130460
C3    C     C_3   0.568606 0.595811 0.080882 -0.949458
C4    C     C_R   0.336760 0.818046 0.946448 0.130460
C5    C     C_R   0.695808 0.836134 0.004985 0.123882
C6    C     C_R   0.808233 0.637379 0.324183 0.072938
C7    C     C_R   0.113895 0.684937 0.694184 0.078361
C8    C     C_R   0.386105 0.184937 0.305816 0.078360
C9    C     C_R   0.691767 0.137380 0.675817 0.072938
C10   C     C_R   0.706921 0.635910 0.527937 0.169207
C11   C     C_R   0.145187 0.718936 0.515606 0.162771
C12   C     C_R   0.354812 0.218936 0.484394 0.162771
C13   C     C_R   0.140741 0.687336 0.983429 -0.122784
C14   C     C_R   0.793085 0.135907 0.472063 0.169214
C15   C     C_R   0.729896 0.663292 0.426909 0.033016
C16   C     C_R   0.130851 0.742810 0.612900 0.031015
C17   C     C_R   0.369149 0.242810 0.387100 0.031015
C18   C     C_R   0.770105 0.163292 0.573092 0.033014
C19   C     C_R   0.353787 0.321705 0.378355 -0.199310
C20   C     C_R   0.814780 0.227196 0.571928 -0.201103
C21   C     C_R   0.685218 0.727194 0.428074 -0.201103
C22   C     C_R   0.146213 0.821705 0.621645 -0.199309
C23   C     C_R   0.305140 0.367880 0.473269 -0.201625
C24   C     C_R   0.359260 0.187337 0.016569 -0.122787
C25   C     C_R   0.862831 0.274301 0.478020 -0.202933
C26   C     C_R   0.637167 0.774298 0.521982 -0.202936
C27   C     C_R   0.194860 0.867880 0.526731 -0.201626
C28   C     C_R   0.271360 0.334625 0.576496 0.030135
C29   C     C_R   0.866486 0.256547 0.385742 0.016616
C30   C     C_R   0.633515 0.756547 0.614259 0.016617
C31   C     C_R   0.228640 0.834625 0.423504 0.030134
C32   C     C_R   0.658990 0.681927 0.620578 0.169108
C33   C     C_R   0.193843 0.763987 0.421871 0.166560
C34   C     C_R   0.306157 0.263987 0.578129 0.166559
C35   C     C_R   0.623676 0.194233 0.007530 -0.136553
C36   C     C_R   0.841017 0.181925 0.379421 0.169099
C37   C     C_3   0.706215 0.656213 0.662109 -0.528080
C38   C     C_3   0.233195 0.692928 0.349950 -0.529001
C39   C     C_3   0.266804 0.192928 0.650051 -0.529000
C40   C     C_3   0.793799 0.156203 0.337883 -0.528082
C41   C     C_R   0.895207 0.303160 0.210839 -0.163903
C42   C     C_R   0.151704 0.332870 0.780248 -0.164786
C43   C     C_R   0.348295 0.832870 0.219752 -0.164788
C44   C     C_R   0.604792 0.803160 0.789161 -0.163898
C45   C     C_3   0.758994 0.606313 0.560802 -0.528629
C46   C     C_R   0.883685 0.316972 0.307385 0.075979
C47   C     C_3   0.179563 0.644014 0.452432 -0.522608
C48   C     C_3   0.320437 0.144014 0.547568 -0.522609
C49   C     C_3   0.741019 0.106304 0.439190 -0.528629
C50   C     C_2   0.694610 0.238855 0.084358 -0.200605
C51   C     C_2   0.267994 0.220754 0.968491 -0.205570
C52   C     C_2   0.232008 0.720752 0.031506 -0.205578
C53   C     C_2   0.805392 0.738856 0.915639 -0.200601
C54   C     C_2   0.281300 0.767749 0.945221 -0.225917
C55   C     C_2   0.763420 0.794949 0.991697 -0.215935
C56   C     C_2   0.736583 0.294947 0.008299 -0.215932
C57   C     C_R   0.192364 0.363874 0.676033 0.079430
C58   C     C_2   0.218700 0.267749 0.054779 -0.225922
C59   C     C_R   0.838138 0.405432 0.937476 -0.198161
C60   C     C_R   0.142001 0.393345 0.093088 -0.189510
C61   C     C_R   0.357998 0.893346 0.906913 -0.189511
C62   C     C_R   0.661863 0.905432 0.062524 -0.198162
C63   C     C_R   0.858122 0.577353 0.314774 -0.146952
C64   C     C_R   0.093010 0.607813 0.696468 -0.157070
C65   C     C_R   0.406990 0.107813 0.303532 -0.157070
C66   C     C_R   0.641878 0.077354 0.685226 -0.146952
C67   C     C_R   0.855324 0.308146 0.020414 0.157442
C68   C     C_R   0.307635 0.863874 0.323967 0.079430
C69   C     C_R   0.125311 0.299936 0.006116 0.139922
C70   C     C_R   0.374688 0.799936 0.993886 0.139920
C71   C     C_R   0.644677 0.808147 0.979585 0.157443
C72   C     C_R   0.850483 0.671251 0.220653 -0.124073
C73   C     C_R   0.104539 0.698001 0.790040 -0.127560
C74   C     C_R   0.395461 0.198001 0.209959 -0.127559
C75   C     C_R   0.649516 0.171251 0.779347 -0.124072
C76   C     C_R   0.904289 0.394352 0.305788 -0.136327
C77   C     C_R   0.140916 0.422191 0.683301 -0.124457
C78   C     C_R   0.359084 0.922191 0.316699 -0.124456
C79   C     C_R   0.616315 0.816972 0.692615 0.075978
C80   C     C_R   0.595711 0.894352 0.694212 -0.136329
C81   C     C_R   0.865669 0.603468 0.897386 -0.146275
C82   C     C_R   0.149365 0.596397 0.082442 -0.152522
C83   C     C_R   0.350635 0.096398 0.917557 -0.152519
C84   C     C_R   0.634332 0.103467 0.102613 -0.146280
C85   C     C_R   0.847647 0.680518 0.933204 0.145936
C86   C     C_R   0.178596 0.668194 0.029975 0.151348
C87   C     C_R   0.321406 0.168195 0.970023 0.151348
C88   C     C_R   0.652354 0.180517 0.066795 0.145938
C89   C     C_3   0.875423 0.223498 0.023731 -0.477424
C90   C     C_R   0.804193 0.336134 0.995013 0.123881
C91   C     C_3   0.898518 0.177196 0.922836 -0.213476
C92   C     C_3   0.931414 0.095818 0.919090 -0.949459
C93   C     C_3   0.101623 0.219357 0.991599 -0.469239
C94   C     C_3   0.063939 0.166519 0.092754 -0.205040
C95   C     C_3   0.023518 0.093621 0.086059 -0.971187
C96   C     C_3   0.398377 0.719357 0.008400 -0.469233
C97   C     C_3   0.436059 0.666519 0.907246 -0.205041
C98   C     C_3   0.476497 0.593629 0.913927 -0.971199
C99   C     C_3   0.624580 0.723499 0.976263 -0.477420
C100  C     C_3   0.601488 0.677192 0.077153 -0.213477
H1    H     H_    0.885112 0.750299 0.016725 0.090081
H2    H     H_    0.215899 0.686181 0.294089 0.183766
H3    H     H_    0.284100 0.186180 0.705911 0.183765
H4    H     H_    0.757054 0.203983 0.336137 0.201542
H5    H     H_    0.666884 0.621025 0.738678 0.197205
H6    H     H_    0.301339 0.686485 0.310186 0.203790
H7    H     H_    0.198660 0.186485 0.689813 0.203791
H8    H     H_    0.833135 0.121015 0.261314 0.197211
H9    H     H_    0.825521 0.626380 0.505827 0.200984
H10   H     H_    0.131116 0.609582 0.455779 0.187514
H11   H     H_    0.368883 0.109582 0.544221 0.187514
H12   H     H_    0.141877 0.742506 0.948060 0.094375
H13   H     H_    0.674491 0.126367 0.494160 0.200981
H14   H     H_    0.750049 0.542621 0.579417 0.192339
H15   H     H_    0.217539 0.610385 0.469969 0.199501
H16   H     H_    0.282461 0.110385 0.530031 0.199501
H17   H     H_    0.749970 0.042611 0.420577 0.192341
H18   H     H_    0.701129 0.229899 0.148568 0.134876
H19   H     H_    0.270014 0.221469 0.896417 0.128723
H20   H     H_    0.229989 0.721465 0.103580 0.128725
H21   H     H_    0.798873 0.729900 0.851430 0.134878
H22   H     H_    0.280515 0.769578 0.875179 0.134325
H23   H     H_    0.358124 0.242507 0.051937 0.094376
H24   H     H_    0.770853 0.805356 0.054946 0.126436
H25   H     H_    0.729151 0.305354 0.945049 0.126435
H26   H     H_    0.219484 0.269577 0.124821 0.134325
H27   H     H_    0.899863 0.246639 0.177687 0.114499
H28   H     H_    0.177018 0.291150 0.804574 0.113806
H29   H     H_    0.322982 0.791151 0.195426 0.113807
H30   H     H_    0.600135 0.746639 0.822313 0.114502
H31   H     H_    0.819107 0.438873 0.896325 0.112640
H32   H     H_    0.153498 0.422776 0.145024 0.106738
H33   H     H_    0.346501 0.922776 0.854976 0.106738
H34   H     H_    0.614889 0.250298 0.983274 0.090081
H35   H     H_    0.680894 0.938873 0.103673 0.112641
H36   H     H_    0.843556 0.535809 0.376650 0.112077
H37   H     H_    0.078580 0.580888 0.646276 0.100978
H38   H     H_    0.421420 0.080888 0.353724 0.100978
H39   H     H_    0.656444 0.035809 0.623350 0.112076
H40   H     H_    0.829927 0.719782 0.197629 0.089762
H41   H     H_    0.103640 0.754009 0.823299 0.083524
H42   H     H_    0.396360 0.254009 0.176701 0.083524
H43   H     H_    0.670072 0.219782 0.802372 0.089761
H44   H     H_    0.915256 0.421383 0.359544 0.083046
H45   H     H_    0.285406 0.425016 0.466744 0.126963
H46   H     H_    0.152939 0.459111 0.618077 0.091676
H47   H     H_    0.347061 0.959111 0.381922 0.091676
H48   H     H_    0.584744 0.921384 0.640455 0.083048
H49   H     H_    0.860176 0.576776 0.838242 0.091433
H50   H     H_    0.160651 0.568840 0.135665 0.095616
H51   H     H_    0.339350 0.068841 0.864333 0.095615
H52   H     H_    0.639825 0.076776 0.161757 0.091434
H53   H     H_    0.369670 0.345059 0.302369 0.126536
H54   H     H_    0.804023 0.247055 0.646437 0.124385
H55   H     H_    0.695972 0.747051 0.353566 0.124386
H56   H     H_    0.887507 0.328681 0.483532 0.123802
H57   H     H_    0.130330 0.845059 0.697631 0.126536
H58   H     H_    0.991219 0.100356 0.908229 0.264582
H59   H     H_    0.884299 0.063322 0.996084 0.264531
H60   H     H_    0.943704 0.062619 0.848472 0.256410
H61   H     H_    0.843018 0.170261 0.924348 0.213188
H62   H     H_    0.947998 0.209089 0.846364 0.195649
H63   H     H_    0.931577 0.222339 0.020246 0.188499
H64   H     H_    0.823954 0.194688 0.101447 0.178153
H65   H     H_    0.971049 0.110130 0.084236 0.261122
H66   H     H_    0.070804 0.059477 0.010953 0.269487
H67   H     H_    0.612487 0.828677 0.516472 0.123803
H68   H     H_    0.998048 0.056289 0.159371 0.257422
H69   H     H_    0.113851 0.147210 0.098414 0.212429
H70   H     H_    0.016313 0.198884 0.169193 0.195362
H71   H     H_    0.055673 0.226995 0.975338 0.190536
H72   H     H_    0.156320 0.189397 0.918196 0.172509
H73   H     H_    0.528969 0.610149 0.915737 0.261121
H74   H     H_    0.429222 0.559482 0.989035 0.269489
H75   H     H_    0.501964 0.556297 0.840616 0.257427
H76   H     H_    0.386143 0.647200 0.901599 0.212428
H77   H     H_    0.483675 0.698887 0.830805 0.195367
H78   H     H_    0.214594 0.925016 0.533256 0.126964
H79   H     H_    0.444329 0.726996 0.024658 0.190538
H80   H     H_    0.343682 0.689397 0.081805 0.172501
H81   H     H_    0.508801 0.600342 0.091744 0.264584
H82   H     H_    0.615727 0.563322 0.003882 0.264531
H83   H     H_    0.556321 0.562608 0.151495 0.256410
H84   H     H_    0.656987 0.670264 0.075646 0.213189
H85   H     H_    0.552001 0.709078 0.153629 0.195644
H86   H     H_    0.568425 0.722340 0.979752 0.188495
H87   H     H_    0.676049 0.694692 0.898544 0.178154
H88   H     H_    0.742958 0.703997 0.663850 0.201543
N1    N     N_R   0.908660 0.628630 0.995840 -0.042057
N2    N     N_R   0.096530 0.421430 0.063580 -0.045850
N3    N     N_R   0.403470 0.921430 0.936420 -0.045850
N4    N     N_R   0.596530 0.921430 0.063580 -0.049434
N5    N     N_R   0.927500 0.575670 0.211370 -0.040529
N6    N     N_R   0.072500 0.575670 0.788630 -0.036239
N7    N     N_R   0.427500 0.075670 0.211370 -0.036239
N8    N     N_R   0.572500 0.075670 0.788630 -0.040529
N9    N     N_R   0.908660 0.365680 0.995820 -0.065219
N10   N     N_R   0.091340 0.365680 0.004180 -0.062627
N11   N     N_R   0.408660 0.865680 0.995820 -0.062627
N12   N     N_R   0.091340 0.628630 0.004160 -0.045961
N13   N     N_R   0.591340 0.865680 0.004180 -0.065220
N14   N     N_R   0.922310 0.631420 0.151980 -0.041423
N15   N     N_R   0.077690 0.631420 0.848020 -0.038127
N16   N     N_R   0.422310 0.131420 0.151980 -0.038127
N17   N     N_R   0.577690 0.131420 0.848020 -0.041423
N18   N     N_R   0.927500 0.426330 0.211360 -0.036529
N19   N     N_R   0.072500 0.426330 0.788640 -0.040005
N20   N     N_R   0.427500 0.926330 0.211360 -0.040005
N21   N     N_R   0.572500 0.926330 0.788640 -0.036528
N22   N     N_R   0.903470 0.570760 0.936440 -0.036262
N23   N     N_R   0.408660 0.128630 0.995840 -0.045961
N24   N     N_R   0.096530 0.570760 0.063560 -0.039397
N25   N     N_R   0.403470 0.070760 0.936440 -0.039397
N26   N     N_R   0.596530 0.070760 0.063560 -0.036262
N27   N     N_R   0.591340 0.128630 0.004160 -0.042057
N28   N     N_R   0.922310 0.368460 0.151950 -0.040071
N29   N     N_R   0.077690 0.368460 0.848050 -0.046019
N30   N     N_R   0.422310 0.868460 0.151950 -0.046020
N31   N     N_R   0.577690 0.868460 0.848050 -0.040072
N32   N     N_R   0.903470 0.421430 0.936420 -0.049434
Ni1   Ni    Ni4+2 0.000000 0.630300 0.000000 0.207962
Ni2   Ni    Ni4+2 0.500000 0.130300 0.000000 0.207962
Ni3   Ni    Ni4+2 0.000000 0.369700 0.000000 0.197707
Ni4   Ni    Ni4+2 0.500000 0.869700 0.000000 0.197706
Ni5   Ni    Ni4+2 0.988090 0.497570 0.863760 0.205302
Ni6   Ni    Ni4+2 0.011910 0.497570 0.136240 0.205914
Ni7   Ni    Ni4+2 0.488090 0.997570 0.863760 0.205914
Ni8   Ni    Ni4+2 0.511910 0.997570 0.136240 0.205303

loop_
_geom_bond_atom_site_label_1
_geom_bond_atom_site_label_2
_ccdc_geom_bond_type
C24   C87   A    
N29   Ni3   S    
C83   C87   A    
C21   C26   A    
N27   Ni2   S    
C93   H72   S    
C93   C94   S    
C5    C71   A    
C13   N12   A    
C22   H57   S    
C41   H27   S    
C11   C47   S    
N32   Ni5   S    
C27   H78   S    
C12   C48   S    
C42   N29   A    
C95   H68   S    
C60   H32   S    
C46   C76   A    
C97   C98   S    
C61   H33   S    
C7    C73   A    
C73   H41   S    
C28   C57   S    
C47   H15   S    
C23   H45   S    
C29   C36   A    
C59   H31   S    
N12   N24   A    
C20   H54   S    
N7    Ni8   S    
C92   H59   S    
N12   Ni1   S    
N6    Ni5   S    
C68   C78   A    
N3    N11   A    
N5    Ni6   S    
C13   H12   S    
C69   C93   S    
C59   N32   A    
C77   N19   A    
C94   H69   S    
C14   C36   A    
C98   H74   S    
C45   H9    S    
C37   H88   S    
C20   C25   A    
C44   H30   S    
C40   C49   S    
C95   H65   S    
N17   Ni2   S    
C67   C89   S    
C42   C57   A    
C18   C20   A    
C92   H58   S    
C11   C16   A    
N8    N17   A    
N3    Ni7   S    
C14   C18   A    
C9    C66   A    
C52   H20   S    
N31   Ni4   S    
C3    C100  S    
N19   Ni5   S    
C49   H17   S    
C66   H39   S    
C76   N18   A    
C43   C68   A    
C64   N6    A    
C13   C86   A    
N18   Ni6   S    
C51   H19   S    
C41   C46   A    
C31   C33   A    
C91   H62   S    
C89   C91   S    
C2    C69   A    
N26   Ni8   S    
C89   H64   S    
C82   N24   A    
N2    N10   A    
C50   C88   S    
C40   H8    S    
C39   C48   S    
N24   Ni6   S    
C56   C90   S    
C81   N22   A    
C74   H42   S    
N8    Ni7   S    
C28   C34   A    
C8    C65   A    
C97   H76   S    
N2    Ni6   S    
C26   C30   A    
C25   H56   S    
C25   C29   A    
N14   Ni1   S    
N20   Ni8   S    
C44   N31   A    
C5    C55   S    
C45   H14   S    
C35   H34   S    
C99   H87   S    
C83   N25   A    
C24   N23   A    
C52   C54   D    
N1    Ni1   S    
C83   H51   S    
C64   H37   S    
C53   C55   D    
C1    C85   A    
C31   C68   S    
C26   H67   S    
C4    C70   A    
N19   N29   A    
C27   C31   A    
C34   C39   S    
N21   N31   A    
C57   C77   A    
C43   H29   S    
C51   C87   S    
C91   C92   S    
C41   N28   A    
N26   N27   A    
C62   N4    A    
N7    N16   A    
N9    Ni3   S    
C82   C86   A    
N23   Ni2   S    
C71   C99   S    
C4    C61   A    
C24   H23   S    
C50   C56   D    
N5    N14   A    
C59   C90   A    
C62   H35   S    
C38   H6    S    
C80   H48   S    
C70   C96   S    
C37   H5    S    
N25   Ni7   S    
C40   H4    S    
C6    C63   A    
C73   N15   A    
C35   C88   A    
C9    C18   S    
C97   H77   S    
C99   C100  S    
C36   C40   S    
N4    N13   A    
C96   C97   S    
C10   C45   S    
C8    C74   A    
C49   H13   S    
C21   H55   S    
C6    C72   A    
C51   C58   D    
C32   C37   S    
C96   H80   S    
C12   C34   A    
C39   H3    S    
C6    C15   S    
C3    H81   S    
C38   C47   S    
C82   H50   S    
C75   H43   S    
C78   H47   S    
C30   C79   S    
C76   H44   S    
C60   N2    A    
C7    C16   S    
N23   N25   A    
C58   H26   S    
C22   C27   A    
C69   N10   A    
C19   H53   S    
N22   Ni5   S    
C43   N30   A    
C23   C28   A    
C65   H38   S    
C72   H40   S    
C37   C45   S    
N9    N32   A    
C95   H66   S    
C1    H1    S    
C84   N26   A    
C72   N14   A    
N18   N28   A    
C98   H73   S    
C55   H24   S    
C93   H71   S    
C16   C22   A    
C4    C54   S    
C50   H18   S    
N16   Ni2   S    
C84   H52   S    
C44   C79   A    
C84   C88   A    
C67   N9    A    
C92   H60   S    
C39   H7    S    
C66   N8    A    
C2    C58   S    
N30   Ni4   S    
C11   C33   A    
C42   H28   S    
C47   H10   S    
C9    C75   A    
C63   N5    A    
C8    C17   S    
C48   H16   S    
C29   C46   S    
C10   C15   A    
C63   H36   S    
N15   Ni1   S    
C52   C86   S    
C100  H85   S    
N28   Ni3   S    
C38   H2    S    
C53   H21   S    
C94   H70   S    
C12   C17   A    
C30   C32   A    
C98   H75   S    
C75   N17   A    
C15   C21   A    
C3    H83   S    
C81   H49   S    
N6    N15   A    
C17   C19   A    
C5    C62   A    
N10   Ni3   S    
C2    C60   A    
C67   C90   A    
C96   H79   S    
C54   H22   S    
C94   C95   S    
C100  H84   S    
C3    H82   S    
C78   N20   A    
C7    C64   A    
N1    N22   A    
C79   C80   A    
C14   C49   S    
C10   C32   A    
C19   C23   A    
N4    Ni8   S    
C48   H11   S    
C74   N16   A    
C56   H25   S    
C61   N3    A    
C70   N11   A    
C71   N13   A    
C91   H61   S    
C33   C38   S    
C53   C85   S    
N11   Ni4   S    
N21   Ni7   S    
N13   Ni4   S    
C35   N27   A    
C77   H46   S    
C89   H63   S    
C99   H86   S    
C81   C85   A    
C80   N21   A    
C65   N7    A    
N20   N30   A    
C1    N1    A    
