data_mof_unit_37712.cif
_audit_creation_date              2012-12-10T18:18:23-0500
_audit_creation_method            fapswitch 2.2
_symmetry_space_group_name_H-M    P1
_symmetry_Int_Tables_number       1
_space_group_crystal_system       triclinic
_cell_length_a                    14.018801
_cell_length_b                    14.980396
_cell_length_c                    15.442662
_cell_angle_alpha                 89.742765
_cell_angle_beta                  67.635856
_cell_angle_gamma                 89.822904
_cell_volume                      2999.10678863

loop_
_atom_site_label
_atom_site_type_symbol
_atom_type_description
_atom_site_fract_x
_atom_site_fract_y
_atom_site_fract_z
_atom_type_partial_charge
C1    C     C_R   0.498819 0.673160 0.502453 0.903574
C2    C     C_R   0.501094 0.326813 0.497715 0.903244
C3    C     C_R   0.389032 0.590047 0.097573 -0.329166
C4    C     C_R   0.628742 0.548676 0.890903 -0.329775
C5    C     C_R   0.313233 0.590998 0.058934 0.469642
C6    C     C_R   0.703349 0.541556 0.930344 0.468466
C7    C     C_R   0.553438 0.186027 0.541767 -0.298351
C8    C     C_R   0.445658 0.813979 0.459521 -0.291984
C9    C     C_R   0.503210 0.231172 0.492780 -0.086500
C10   C     C_R   0.496193 0.768727 0.508144 -0.084645
C11   C     C_R   0.455917 0.185625 0.440150 0.133468
C12   C     C_R   0.542609 0.814083 0.561617 0.127178
C13   C     C_R   0.443037 0.092252 0.451971 0.086731
C14   C     C_R   0.554902 0.907593 0.550555 0.088208
C15   C     C_R   0.499186 0.046578 0.498911 -0.016876
C16   C     C_R   0.498795 0.953325 0.503594 -0.015822
C17   C     C_R   0.556011 0.094213 0.541359 0.090061
C18   C     C_R   0.442254 0.905732 0.460823 0.088758
C19   C     C_R   0.376886 0.042410 0.419559 0.197376
C20   C     C_R   0.620651 0.957479 0.583439 0.195242
C21   C     C_R   0.381460 0.949640 0.420684 -0.213684
C22   C     C_R   0.616372 0.050283 0.581947 -0.215599
C23   C     C_R   0.435729 0.501033 0.676520 0.863384
C24   C     C_R   0.564298 0.502268 0.323569 0.864448
C25   C     C_R   0.187593 0.427575 0.534223 -0.073325
C26   C     C_R   0.812450 0.572371 0.465595 -0.079637
C27   C     C_R   0.216173 0.572052 0.465034 -0.067310
C28   C     C_R   0.783873 0.427940 0.534890 -0.067538
C29   C     C_R   0.115728 0.574003 0.464631 0.012959
C30   C     C_R   0.884271 0.426054 0.535368 0.009369
C31   C     C_R   0.050606 0.499994 0.499913 0.087057
C32   C     C_R   0.949304 0.500154 0.500264 0.087633
C33   C     C_R   0.086823 0.425725 0.534640 0.008410
C34   C     C_R   0.913187 0.574307 0.465261 0.012150
C35   C     C_R   0.078973 0.647896 0.430082 -0.225221
C36   C     C_R   0.921178 0.352015 0.569551 -0.215715
C37   C     C_R   0.978547 0.648083 0.430488 -0.220625
C38   C     C_R   0.021721 0.351715 0.568800 -0.221406
C39   C     C_R   0.396906 0.515162 0.777625 -0.068718
C40   C     C_R   0.604392 0.515617 0.222227 -0.061804
C41   C     C_R   0.266731 0.565164 0.923566 -0.166818
C42   C     C_R   0.743499 0.526079 0.070460 -0.173740
C43   C     C_R   0.295075 0.540690 0.829871 -0.217409
C44   C     C_R   0.709997 0.514133 0.167140 -0.219335
C45   C     C_R   0.468959 0.513692 0.819487 -0.227774
C46   C     C_R   0.533616 0.534009 0.181084 -0.232934
C47   C     C_R   0.445044 0.545672 0.909783 0.055279
C48   C     C_R   0.565260 0.548597 0.085075 0.056141
C49   C     C_R   0.340995 0.567593 0.964593 0.062301
C50   C     C_R   0.671567 0.539707 0.028137 0.063067
C51   C     C_R   0.522163 0.552111 0.947433 0.004825
C52   C     C_R   0.491758 0.563709 0.044377 0.007304
H1    H     H_    0.216328 0.371294 0.561313 0.139618
H2    H     H_    0.783775 0.628534 0.438288 0.142569
H3    H     H_    0.267471 0.628135 0.437582 0.132588
H4    H     H_    0.732656 0.371783 0.562195 0.132298
H5    H     H_    0.127951 0.705436 0.402517 0.145240
H6    H     H_    0.872430 0.294252 0.596616 0.140394
H7    H     H_    0.952210 0.705751 0.403192 0.147242
H8    H     H_    0.048577 0.293584 0.594917 0.144281
H9    H     H_    0.452489 0.532293 0.224498 0.159053
H10   H     H_    0.544631 0.486796 0.780276 0.154814
H11   H     H_    0.766196 0.502000 0.198343 0.161635
H12   H     H_    0.238167 0.542855 0.798222 0.165396
H13   H     H_    0.187136 0.583190 0.963204 0.178709
H14   H     H_    0.825370 0.522128 0.028962 0.174147
H15   H     H_    0.367621 0.614479 0.168155 0.149354
H16   H     H_    0.656105 0.554607 0.815615 0.161629
H17   H     H_    0.592323 0.222873 0.579163 0.153277
H18   H     H_    0.407185 0.777243 0.421682 0.154489
H19   H     H_    0.334168 0.911046 0.392926 0.147589
H20   H     H_    0.663622 0.088898 0.609732 0.145084
N1    N     N_R   0.249980 0.499930 0.499960 -0.097425
N2    N     N_R   0.750020 0.500070 0.500040 -0.097820
O1    O     O_R   0.419720 0.632140 0.499980 -0.627484
O2    O     O_R   0.580280 0.367860 0.500020 -0.627590
O3    O     O_R   0.580270 0.632160 0.499970 -0.616384
O4    O     O_R   0.419730 0.367840 0.500030 -0.615846
O5    O     O_R   0.373870 0.499980 0.632250 -0.608139
O6    O     O_R   0.626130 0.500020 0.367750 -0.609094
O7    O     O_R   0.534420 0.500000 0.632240 -0.618459
O8    O     O_R   0.465580 0.500000 0.367760 -0.620333
Zn1   Zn    Zn3+2 0.392800 0.499980 0.500010 0.938231
Zn2   Zn    Zn3+2 0.607200 0.500020 0.499990 0.937011
O9    O     O_3   0.214236 0.622094 0.109859 -0.654874
C53   C     C_3   0.163003 0.567493 0.189117 0.081044
H21   H     H_    0.095348 0.605806 0.236065 0.187326
H22   H     H_    0.210613 0.552275 0.230821 0.131408
C54   C     C_3   0.123592 0.481011 0.161591 -0.392076
H23   H     H_    0.076537 0.497370 0.119723 0.226435
H24   H     H_    0.190070 0.439234 0.118124 0.216495
C55   C     C_3   0.057723 0.427711 0.248105 -0.913588
H25   H     H_    0.102580 0.411725 0.292017 0.267454
H26   H     H_    0.032911 0.364305 0.226173 0.263104
H27   H     H_    0.987863 0.466375 0.290265 0.266918
O10   O     O_3   0.807669 0.540387 0.873899 -0.651263
C56   C     C_3   0.834234 0.460727 0.820691 0.086947
H28   H     H_    0.909325 0.472404 0.761923 0.186940
H29   H     H_    0.778597 0.442952 0.787846 0.126800
C57   C     C_3   0.847061 0.382589 0.879997 -0.381338
H30   H     H_    0.902341 0.401471 0.912649 0.226319
H31   H     H_    0.771554 0.366882 0.936550 0.216705
C58   C     C_3   0.887121 0.299238 0.820814 -0.940845
H32   H     H_    0.834895 0.280245 0.784986 0.260354
H33   H     H_    0.890998 0.243049 0.866497 0.266900
H34   H     H_    0.965792 0.311413 0.767904 0.263925
C59   C     C_3   0.438980 0.234483 0.360758 -0.860307
H35   H     H_    0.458660 0.190810 0.298581 0.236596
H36   H     H_    0.358725 0.259725 0.383510 0.250447
H37   H     H_    0.491948 0.292254 0.335524 0.227288
C60   C     C_3   0.559161 0.764741 0.640947 -0.845001
H38   H     H_    0.538576 0.807902 0.703582 0.238833
H39   H     H_    0.506607 0.706606 0.665351 0.231192
H40   H     H_    0.639556 0.739926 0.618526 0.249928
C61   C     C_3   0.291300 0.083477 0.395570 -0.909752
H41   H     H_    0.253945 0.138817 0.444324 0.245409
H42   H     H_    0.320466 0.106403 0.321750 0.245916
H43   H     H_    0.229277 0.034226 0.403857 0.234704
C62   C     C_3   0.705654 0.916408 0.608287 -0.904645
H44   H     H_    0.675671 0.892926 0.681924 0.247858
H45   H     H_    0.743843 0.861479 0.559269 0.246282
H46   H     H_    0.767210 0.965786 0.601201 0.233529

loop_
_geom_bond_atom_site_label_1
_geom_bond_atom_site_label_2
_ccdc_geom_bond_type
O5    Zn1   S    
C27   C29   A    
C18   C21   A    
C1    O3    A    
C60   H38   S    
O6    Zn2   S    
C28   N2    A    
O2    Zn2   S    
C56   H28   S    
C28   H4    S    
C47   C49   A    
O9    C53   S    
C40   C46   A    
C21   H19   S    
C35   C37   A    
C25   H1    S    
C36   H6    S    
C27   H3    S    
C61   H41   S    
C34   C37   A    
C45   H10   S    
C15   C17   A    
C45   C47   A    
C41   C49   A    
C24   O8    A    
C57   H30   S    
C26   N2    A    
O4    Zn1   S    
C26   C34   A    
C61   H42   S    
C59   H35   S    
C31   C33   A    
C54   H24   S    
C40   C44   A    
C25   N1    A    
C39   C45   A    
C5    O9    S    
C48   C50   A    
C41   C43   A    
C5    C49   A    
C60   H40   S    
C42   C44   A    
C26   H2    S    
C22   H20   S    
C56   H29   S    
C24   O6    A    
C43   H12   S    
C62   H45   S    
C44   H11   S    
C39   C43   A    
C46   C48   A    
C13   C19   A    
C4    C51   A    
C51   C52   A    
C1    O1    A    
C14   C20   A    
C58   H33   S    
N2    Zn2   S    
C4    H16   S    
C53   H21   S    
C41   H13   S    
C46   H9    S    
O3    Zn2   S    
C7    C17   A    
C20   C62   S    
C57   C58   S    
C8    C18   A    
C32   C34   A    
C2    O4    A    
C31   C32   A    
C19   C61   S    
C62   H44   S    
C61   H43   S    
O10   C56   S    
C55   H26   S    
C60   H39   S    
C6    C50   A    
C54   C55   S    
C9    C11   A    
C37   H7    S    
C10   C12   A    
C42   C50   A    
C38   H8    S    
C4    C6    A    
C12   C14   A    
C6    O10   S    
C13   C15   A    
C11   C59   S    
C59   H37   S    
C14   C16   A    
O7    Zn2   S    
C2    O2    A    
C57   H31   S    
C62   H46   S    
C7    C9    A    
C56   C57   S    
C23   O7    A    
C19   C21   A    
C8    C10   A    
C3    H15   S    
C1    C10   S    
C33   C38   A    
C20   C22   A    
C3    C5    A    
C53   C54   S    
C7    H17   S    
C47   C51   A    
C3    C52   A    
C29   C35   A    
C8    H18   S    
C17   C22   A    
C30   C36   A    
C35   H5    S    
C36   C38   A    
C29   C31   A    
C30   C32   A    
C11   C13   A    
O1    Zn1   S    
C59   H36   S    
C23   C39   S    
C28   C30   A    
C55   H25   S    
C24   C40   S    
C58   H34   S    
C53   H22   S    
C55   H27   S    
C48   C52   A    
C16   C18   A    
O8    Zn1   S    
C58   H32   S    
C42   H14   S    
C23   O5    A    
C54   H23   S    
C27   N1    A    
C2    C9    S    
N1    Zn1   S    
C12   C60   S    
C15   C16   A    
C25   C33   A    
