data_mof_unit_27171.cif
_audit_creation_date              2012-12-11T15:06:39-0500
_audit_creation_method            fapswitch 2.2
_symmetry_space_group_name_H-M    P1
_symmetry_Int_Tables_number       1
_space_group_crystal_system       triclinic
_cell_length_a                    7.227738
_cell_length_b                    14.830426
_cell_length_c                    22.755235
_cell_angle_alpha                 89.961697
_cell_angle_beta                  90.157827
_cell_angle_gamma                 88.716611
_cell_volume                      2438.52173134

loop_
_atom_site_label
_atom_site_type_symbol
_atom_type_description
_atom_site_fract_x
_atom_site_fract_y
_atom_site_fract_z
_atom_type_partial_charge
O1    O     O_R   0.390810 0.844810 0.447340 -0.546775
O2    O     O_R   0.109190 0.155190 0.947340 -0.539605
O3    O     O_R   0.890810 0.655190 0.552660 -0.514350
O4    O     O_R   0.609190 0.344810 0.052660 -0.517598
O5    O     O_R   0.720550 0.655820 0.440420 -0.523305
O6    O     O_R   0.779450 0.344180 0.940420 -0.534560
O7    O     O_R   0.220550 0.844180 0.559580 -0.548112
O8    O     O_R   0.279450 0.155820 0.059580 -0.547606
C1    C     C_R   0.553347 0.627371 0.425728 0.697104
C2    C     C_R   0.946327 0.373562 0.926361 0.764508
C3    C     C_R   0.050742 0.873089 0.573734 0.695733
C4    C     C_R   0.449321 0.126537 0.073473 0.697526
O9    O     O_R   0.720530 0.844130 0.440420 -0.519801
O10   O     O_R   0.779470 0.155870 0.940420 -0.516613
O11   O     O_R   0.220530 0.655870 0.559580 -0.541743
O12   O     O_R   0.279470 0.344130 0.059580 -0.546539
O13   O     O_R   0.890830 0.844810 0.552660 -0.518546
O14   O     O_R   0.609170 0.155190 0.052660 -0.520549
O15   O     O_R   0.390830 0.655190 0.447340 -0.536499
O16   O     O_R   0.109170 0.344810 0.947340 -0.529302
C5    C     C_R   0.550050 0.872471 0.425835 0.842240
C6    C     C_R   0.949522 0.127558 0.925557 0.848514
C7    C     C_R   0.053539 0.628243 0.575069 0.827391
C8    C     C_R   0.447191 0.371944 0.074744 0.827718
O17   O     O_3   0.557310 0.749980 0.536820 -0.375923
O18   O     O_3   0.942690 0.250020 0.036820 -0.382733
O19   O     O_3   0.057310 0.750020 0.463180 -0.381545
O20   O     O_3   0.442690 0.249980 0.963180 -0.376833
V1    V     V_3+5 0.832160 0.749980 0.493170 1.563175
V2    V     V_3+5 0.667840 0.250020 0.993170 1.562020
V3    V     V_3+5 0.332160 0.750020 0.506830 1.496044
V4    V     V_3+5 0.167840 0.249980 0.006830 1.511714
C9    C     C_R   0.863204 0.603551 0.858965 -0.134278
C10   C     C_R   0.678725 0.405563 0.355037 -0.136393
C11   C     C_R   0.550061 0.896333 0.136448 -0.142390
C12   C     C_R   0.927117 0.099525 0.637249 -0.138483
C13   C     C_R   0.948627 0.449311 0.883823 -0.159971
C14   C     C_R   0.553883 0.552377 0.382578 -0.218203
C15   C     C_R   0.462821 0.051536 0.116300 -0.209070
C16   C     C_R   0.035918 0.947470 0.616912 -0.213175
C17   C     C_R   0.155019 0.475031 0.602564 0.357228
C18   C     C_R   0.380375 0.531141 0.097695 0.349445
C19   C     C_R   0.465766 0.030125 0.407124 0.342839
C20   C     C_R   0.049891 0.971466 0.907557 0.342378
C21   C     C_R   0.207010 0.411355 0.645122 -0.213065
C22   C     C_R   0.378592 0.605261 0.135523 -0.222412
C23   C     C_R   0.395055 0.097074 0.369789 -0.228346
C24   C     C_R   0.125468 0.906210 0.869983 -0.227908
C25   C     C_R   0.157508 0.423236 0.703444 -0.205059
C26   C     C_R   0.433502 0.596002 0.193724 -0.136575
C27   C     C_R   0.391974 0.084393 0.309452 -0.138952
C28   C     C_R   0.119166 0.917727 0.809540 -0.139455
C29   C     C_R   0.039715 0.495160 0.721296 0.038478
C30   C     C_R   0.489379 0.511619 0.217495 0.057393
C31   C     C_R   0.475613 0.007611 0.282696 0.053747
C32   C     C_R   0.019885 0.990495 0.783205 0.050226
C33   C     C_R   0.994235 0.564400 0.678961 -0.037788
C34   C     C_R   0.515718 0.437794 0.177157 -0.060547
C35   C     C_R   0.539951 0.935885 0.320845 -0.051759
C36   C     C_R   0.945095 0.059482 0.821474 -0.051348
C37   C     C_R   0.978272 0.503398 0.781219 -0.015004
C38   C     C_R   0.530975 0.499933 0.279179 0.052148
C39   C     C_R   0.488187 0.997732 0.219592 0.052062
C40   C     C_R   0.002183 0.999574 0.720188 0.050662
C41   C     C_R   0.902222 0.587351 0.799571 -0.032258
C42   C     C_R   0.623110 0.419031 0.296767 -0.054551
C43   C     C_R   0.545925 0.912630 0.197004 -0.046003
C44   C     C_R   0.930519 0.082375 0.697703 -0.045307
C45   C     C_R   0.860661 0.654784 0.758578 -0.197728
C46   C     C_R   0.661673 0.350765 0.256336 -0.201544
C47   C     C_R   0.603771 0.843248 0.234488 -0.217266
C48   C     C_R   0.855927 0.147759 0.735201 -0.230840
C49   C     C_R   0.895589 0.642644 0.698481 0.341620
C50   C     C_R   0.609144 0.358380 0.197328 0.346953
C51   C     C_R   0.606082 0.853930 0.295499 0.331537
C52   C     C_R   0.853831 0.135698 0.796139 0.362404
C53   C     C_R   0.986609 0.431703 0.823892 0.255602
C54   C     C_R   0.483129 0.564344 0.324175 0.260434
C55   C     C_R   0.451400 0.068865 0.177893 0.253309
C56   C     C_R   0.047137 0.929641 0.678541 0.253373
C57   C     C_R   0.890949 0.536922 0.901427 0.300129
C58   C     C_R   0.648238 0.470967 0.397651 0.340411
C59   C     C_R   0.506654 0.963665 0.096027 0.332518
C60   C     C_R   0.983123 0.034473 0.596855 0.332688
C61   C     C_R   0.056240 0.553943 0.619175 -0.125399
C62   C     C_R   0.451266 0.447402 0.117554 -0.120734
C63   C     C_R   0.530216 0.947797 0.383429 -0.116840
C64   C     C_R   0.968666 0.050675 0.883972 -0.116719
H1    H     H_    0.292736 0.353300 0.633416 0.126979
H2    H     H_    0.334562 0.671314 0.119791 0.129946
H3    H     H_    0.333628 0.158382 0.387736 0.135243
H4    H     H_    0.198791 0.847734 0.887736 0.135777
O21   O     O_3   0.852164 0.559800 0.959057 -0.627706
H5    H     H_    0.896034 0.511118 0.985737 0.289152
O22   O     O_3   0.712594 0.451779 0.453679 -0.626615
H6    H     H_    0.652417 0.492931 0.482393 0.291845
O23   O     O_3   0.515613 0.940795 0.037165 -0.631807
H7    H     H_    0.460608 0.989781 0.012819 0.292210
O24   O     O_3   0.974738 0.057842 0.538050 -0.627995
H8    H     H_    0.042405 0.012111 0.514272 0.291611
H9    H     H_    0.795077 0.717217 0.773366 0.130665
H10   H     H_    0.733757 0.289839 0.271037 0.128679
H11   H     H_    0.652995 0.779962 0.215755 0.114609
H12   H     H_    0.793015 0.208447 0.716563 0.109712
H13   H     H_    0.810112 0.669136 0.872793 0.155241
H14   H     H_    0.749727 0.343325 0.367801 0.154541
H15   H     H_    0.589915 0.830083 0.119962 0.152216
H16   H     H_    0.877592 0.164412 0.620828 0.154406
O25   O     O_3   0.010094 0.342594 0.808142 -0.649860
H17   H     H_    0.943337 0.334251 0.770525 0.285060
O26   O     O_3   0.358912 0.633807 0.311094 -0.653913
H18   H     H_    0.343053 0.675491 0.344498 0.308353
O27   O     O_3   0.424342 0.156129 0.197357 -0.660627
H19   H     H_    0.349801 0.191107 0.168404 0.292827
O28   O     O_3   0.079439 0.842643 0.698149 -0.661163
H20   H     H_    0.150555 0.807658 0.668533 0.290924
O29   O     O_3   0.208008 0.464089 0.544565 -0.640177
H21   H     H_    0.277255 0.405981 0.540251 0.295353
O30   O     O_3   0.319939 0.539616 0.040171 -0.644265
H22   H     H_    0.273948 0.602276 0.033347 0.302345
O31   O     O_3   0.462555 0.041200 0.467494 -0.643249
H23   H     H_    0.411687 0.102121 0.476980 0.301418
O32   O     O_3   0.063826 0.962074 0.967923 -0.644522
H24   H     H_    0.125406 0.903362 0.977323 0.304034
H25   H     H_    0.219373 0.376362 0.734396 0.181208
H26   H     H_    0.439488 0.657822 0.218110 0.183522
H27   H     H_    0.312949 0.134655 0.285809 0.192071
H28   H     H_    0.202664 0.870178 0.785164 0.190565
O33   O     O_3   0.833871 0.707177 0.658884 -0.642430
H29   H     H_    0.759070 0.754269 0.679447 0.302617
O34   O     O_3   0.658370 0.290413 0.158632 -0.642145
H30   H     H_    0.735768 0.243800 0.178879 0.304779
O35   O     O_3   0.673886 0.784508 0.330504 -0.658828
H31   H     H_    0.716085 0.733036 0.305767 0.287999
O36   O     O_3   0.759630 0.197361 0.831010 -0.635843
H32   H     H_    0.690010 0.241349 0.806084 0.287875

loop_
_geom_bond_atom_site_label_1
_geom_bond_atom_site_label_2
_ccdc_geom_bond_type
O17   V3    S    
C5    C63   S    
O1    C5    A    
O21   H5    S    
C31   C35   A    
O19   V1    S    
O13   V1    S    
C16   C60   A    
O3    C7    A    
O22   H6    S    
C48   C52   A    
O15   V3    S    
C10   C42   A    
O23   H7    S    
C28   H28   S    
C9    C41   A    
O32   H24   S    
C39   C55   A    
C12   C44   A    
O7    C3    A    
C26   C30   A    
C2    C13   S    
C40   C44   A    
O9    V1    S    
O27   H19   S    
C30   C34   A    
O4    C8    A    
C25   C29   A    
C18   O30   S    
C12   H16   S    
O28   H20   S    
O1    V3    S    
O2    V4    S    
C18   C22   A    
C33   C49   A    
O3    V1    S    
C46   C50   A    
C29   C37   A    
C1    O15   A    
O26   H18   S    
C2    O16   A    
C31   C39   A    
O2    C6    A    
C24   H4    S    
C16   C56   A    
C45   C49   A    
C54   O26   S    
C26   H26   S    
C11   C43   A    
C21   H1    S    
C19   O31   S    
C27   C31   A    
C44   C48   A    
O11   C7    A    
O12   C8    A    
C50   O34   S    
C14   C58   A    
C40   C56   A    
C13   C57   A    
O10   V2    S    
C34   C62   A    
C52   O36   S    
O5    V1    S    
C36   C64   A    
C39   C43   A    
O7    V3    S    
C38   C42   A    
C28   C32   A    
O8    V4    S    
O36   H32   S    
C9    H13   S    
C37   C53   A    
C11   C59   A    
O18   V4    S    
C23   C27   A    
C14   C54   A    
C13   C53   A    
C36   C52   A    
C32   C36   A    
C10   H14   S    
O5    C1    A    
C57   O21   S    
O24   H8    S    
C56   O28   S    
C21   C25   A    
O8    C4    A    
C32   C40   A    
O9    C5    A    
C53   O25   S    
O31   H23   S    
C18   C62   A    
O6    V2    S    
C6    C64   S    
C17   C61   A    
C55   O27   S    
C59   O23   S    
O35   H31   S    
O34   H30   S    
C35   C51   A    
C25   H25   S    
C34   C50   A    
O33   H29   S    
O16   V4    S    
C47   H11   S    
C3    O13   A    
C29   C33   A    
C58   O22   S    
C60   O24   S    
C23   H3    S    
C38   C54   A    
C19   C23   A    
O6    C2    A    
O30   H22   S    
C51   O35   S    
O11   V3    S    
C22   H2    S    
C45   H9    S    
O12   V4    S    
C48   H12   S    
C22   C26   A    
C20   O32   S    
C27   H27   S    
O10   C6    A    
C4    C15   S    
O20   V2    S    
C19   C63   A    
C20   C64   A    
O29   H21   S    
C47   C51   A    
C46   H10   S    
C42   C46   A    
C8    C62   S    
C12   C60   A    
C49   O33   S    
C41   C45   A    
C1    C14   S    
C33   C61   A    
C43   C47   A    
C3    C16   S    
C35   C63   A    
C11   H15   S    
O14   V2    S    
C15   C59   A    
C37   C41   A    
C24   C28   A    
C7    C61   S    
C4    O14   A    
C17   C21   A    
C30   C38   A    
C10   C58   A    
C17   O29   S    
O25   H17   S    
C9    C57   A    
O4    V2    S    
C20   C24   A    
C15   C55   A    
