data_mof_unit_63008.cif
_audit_creation_date              2012-12-10T19:16:31-0500
_audit_creation_method            fapswitch 2.2
_symmetry_space_group_name_H-M    P1
_symmetry_Int_Tables_number       1
_space_group_crystal_system       triclinic
_cell_length_a                    13.90332
_cell_length_b                    14.769086
_cell_length_c                    15.998865
_cell_angle_alpha                 90.011291
_cell_angle_beta                  89.97727
_cell_angle_gamma                 84.866134
_cell_volume                      3272.01679079

loop_
_atom_site_label
_atom_site_type_symbol
_atom_type_description
_atom_site_fract_x
_atom_site_fract_y
_atom_site_fract_z
_atom_type_partial_charge
C1    C     C_R   0.499973 0.500028 0.659167 0.827027
C2    C     C_R   0.500027 0.499972 0.340833 0.827027
C3    C     C_1   0.499977 0.500041 0.748292 -0.171859
C4    C     C_1   0.500023 0.499959 0.251708 -0.171859
C5    C     C_R   0.439079 0.053014 0.446126 -0.156582
C6    C     C_R   0.560921 0.946986 0.553873 -0.156582
C7    C     C_R   0.500017 0.097135 0.499988 0.051295
C8    C     C_R   0.499983 0.902865 0.500012 0.051295
C9    C     C_R   0.560937 0.042767 0.553862 -0.156412
C10   C     C_R   0.439063 0.957233 0.446138 -0.156412
C11   C     C_1   0.500028 0.197285 0.499982 0.116851
C12   C     C_1   0.499972 0.802715 0.500018 0.116852
C13   C     C_R   0.683476 0.485460 0.499972 0.818446
C14   C     C_R   0.316524 0.514540 0.500028 0.818446
C15   C     C_1   0.213509 0.523437 0.500046 -0.168416
C16   C     C_1   0.786491 0.476563 0.499954 -0.168417
C17   C     C_2   0.023299 0.537535 0.500075 -0.158803
C18   C     C_2   0.976701 0.462465 0.499925 -0.158803
C19   C     C_1   0.873216 0.469500 0.499939 0.008834
C20   C     C_1   0.126784 0.530500 0.500060 0.008834
C21   C     C_R   0.500404 0.417778 0.043589 -0.174765
C22   C     C_R   0.499596 0.582222 0.956410 -0.174765
C23   C     C_R   0.500008 0.499982 0.087210 0.154856
C24   C     C_R   0.499992 0.500018 0.912790 0.154856
C25   C     C_R   0.499604 0.582204 0.043647 -0.174745
C26   C     C_R   0.500396 0.417796 0.956353 -0.174745
C27   C     C_1   0.500017 0.499965 0.176663 -0.066632
C28   C     C_1   0.499983 0.500035 0.823337 -0.066632
Cu1   Cu    Cu3+1 0.499970 0.410780 0.500000 0.981018
Cu2   Cu    Cu3+1 0.500030 0.589220 0.500000 0.981018
H1    H     H_    0.015961 0.395446 0.499792 0.158337
H2    H     H_    0.984039 0.604554 0.500207 0.158337
H3    H     H_    0.500704 0.353946 0.922941 0.139121
H4    H     H_    0.499296 0.646054 0.077059 0.139121
H5    H     H_    0.500718 0.353914 0.076956 0.139120
H6    H     H_    0.499282 0.646086 0.923044 0.139120
H7    H     H_    0.391287 0.092699 0.403865 0.130811
H8    H     H_    0.608713 0.907301 0.596135 0.130811
N1    N     N_1   0.499970 0.723290 0.500020 -0.150439
N2    N     N_1   0.500030 0.276710 0.499980 -0.150438
O1    O     O_R   0.499950 0.424680 0.619690 -0.569921
O2    O     O_R   0.500050 0.575320 0.380310 -0.569921
O3    O     O_R   0.500000 0.575360 0.619690 -0.569930
O4    O     O_R   0.500000 0.424640 0.380310 -0.569930
O5    O     O_R   0.637820 0.414010 0.499980 -0.569141
O6    O     O_R   0.362180 0.585990 0.500020 -0.569141
O7    O     O_R   0.637870 0.564690 0.499980 -0.568994
O8    O     O_R   0.362130 0.435310 0.500020 -0.568994
H9    H     H_    0.391261 0.925585 0.403883 0.130923
H10   H     H_    0.608739 0.074415 0.596117 0.130923

loop_
_geom_bond_atom_site_label_1
_geom_bond_atom_site_label_2
_ccdc_geom_bond_type
C2    C4    S    
C21   C26   A    
C6    H8    S    
Cu1   Cu2   S    
C21   H5    S    
C23   C27   S    
C22   H6    S    
C26   H3    S    
C25   H4    S    
C8    C12   S    
C4    C27   T    
C12   N1    T    
C21   C23   A    
C17   C18   D    
C5    C10   A    
C14   O6    A    
C13   O5    A    
C15   C20   T    
C1    O3    A    
C2    O2    A    
C16   C19   T    
Cu1   N2    S    
C1    O1    A    
C3    C28   T    
C24   C26   A    
Cu2   N1    S    
C7    C11   S    
C5    H7    S    
C23   C25   A    
Cu1   O4    S    
C11   N2    T    
C22   C24   A    
Cu2   O3    S    
Cu1   O8    S    
C7    C9    A    
Cu2   O7    S    
C6    C9    A    
C17   C20   S    
C8    C10   A    
C18   C19   S    
C13   C16   S    
Cu1   O5    S    
C5    C7    A    
C17   H2    S    
C14   O8    A    
C14   C15   S    
Cu2   O2    S    
C6    C8    A    
C18   H1    S    
Cu1   O1    S    
C10   H9    S    
C13   O7    A    
Cu2   O6    S    
C9    H10   S    
C24   C28   S    
C2    O4    A    
C1    C3    S    
C22   C25   A    
