data_mof_unit_16734.cif
_audit_creation_date              2012-12-11T14:14:14-0500
_audit_creation_method            fapswitch 2.2
_symmetry_space_group_name_H-M    P1
_symmetry_Int_Tables_number       1
_space_group_crystal_system       triclinic
_cell_length_a                    17.138282
_cell_length_b                    7.242477
_cell_length_c                    16.907468
_cell_angle_alpha                 90.000016
_cell_angle_beta                  99.624842
_cell_angle_gamma                 90.0
_cell_volume                      2069.07513887

loop_
_atom_site_label
_atom_site_type_symbol
_atom_type_description
_atom_site_fract_x
_atom_site_fract_y
_atom_site_fract_z
_atom_type_partial_charge
O1    O     O_R   0.414560 0.494370 0.416770 -0.518800
O2    O     O_R   0.585440 0.994370 0.583230 -0.518801
O3    O     O_R   0.578370 0.819590 0.429320 -0.521044
O4    O     O_R   0.421630 0.319590 0.570680 -0.521045
C1    C     C_R   0.602121 0.654827 0.411068 0.713670
C2    C     C_R   0.397879 0.154827 0.588932 0.713670
O5    O     O_R   0.414740 0.823790 0.407360 -0.550656
O6    O     O_R   0.585260 0.323790 0.592640 -0.550656
O7    O     O_R   0.420650 0.998510 0.561120 -0.542476
O8    O     O_R   0.579350 0.498510 0.438880 -0.542475
C3    C     C_R   0.390891 0.655232 0.382935 0.615701
C4    C     C_R   0.609109 0.155232 0.617065 0.615698
O9    O     O_3   0.502130 0.662240 0.550470 -0.364399
O10   O     O_3   0.497870 0.162240 0.449530 -0.364398
V1    V     V_3+5 0.499600 0.935390 0.490640 1.514149
V2    V     V_3+5 0.500400 0.435390 0.509360 1.514150
C5    C     C_2   0.783444 0.257981 0.787122 -0.123537
C6    C     C_2   0.216557 0.757981 0.212877 -0.123539
C7    C     C_2   0.829384 0.109127 0.809460 0.095639
C8    C     C_2   0.170616 0.609127 0.190539 0.095639
H1    H     H_    0.791972 0.383238 0.822821 0.121588
H2    H     H_    0.208029 0.883238 0.177178 0.121588
C9    C     C_2   0.724270 0.266217 0.712129 -0.169422
C10   C     C_2   0.275730 0.766217 0.287871 -0.169422
C11   C     C_2   0.664602 0.143492 0.694371 0.356090
C12   C     C_2   0.335398 0.643492 0.305629 0.356088
H3    H     H_    0.727784 0.383130 0.672630 0.125354
H4    H     H_    0.272216 0.883130 0.327369 0.125354
C13   C     C_R   0.337709 0.139524 0.642688 -0.104696
C14   C     C_R   0.662291 0.639524 0.357311 -0.104697
C15   C     C_R   0.169007 0.123811 0.866209 -0.258247
C16   C     C_R   0.830993 0.623812 0.133790 -0.258247
C17   C     C_R   0.297684 0.253299 0.851090 0.429226
C18   C     C_R   0.702316 0.753299 0.148910 0.429227
C19   C     C_R   0.237881 0.224312 0.897506 0.352596
C20   C     C_R   0.762119 0.724312 0.102494 0.352597
C21   C     C_R   0.163323 0.039846 0.790103 0.064150
C22   C     C_R   0.836677 0.539846 0.209897 0.064151
C23   C     C_R   0.223425 0.069740 0.742862 0.013699
C24   C     C_R   0.776575 0.569740 0.257138 0.013698
C25   C     C_R   0.288823 0.188128 0.770609 -0.089908
C26   C     C_R   0.711177 0.688128 0.229390 -0.089909
C27   C     C_R   0.343295 0.233331 0.717319 0.145376
C28   C     C_R   0.656704 0.733330 0.282681 0.145378
C29   C     C_R   0.276023 0.014424 0.620020 -0.171175
C30   C     C_R   0.723977 0.514424 0.379979 -0.171176
C31   C     C_R   0.219008 0.983845 0.667752 -0.060998
C32   C     C_R   0.780992 0.483845 0.332247 -0.060998
H5    H     H_    0.270922 0.941215 0.563452 0.136168
H6    H     H_    0.729078 0.441216 0.436548 0.136168
H7    H     H_    0.172380 0.888286 0.644923 0.164656
H8    H     H_    0.827620 0.388287 0.355077 0.164656
O11   O     O_R   0.920750 0.773600 0.061260 -0.518319
O12   O     O_R   0.079250 0.273600 0.938740 -0.518319
O13   O     O_R   0.085340 0.439850 0.092570 -0.518068
O14   O     O_R   0.914660 0.939850 0.907430 -0.518068
C33   C     C_R   0.110618 0.607716 0.116227 0.691796
C34   C     C_R   0.889382 0.107716 0.883773 0.691796
O15   O     O_R   0.921720 0.444130 0.070790 -0.532700
O16   O     O_R   0.078280 0.944130 0.929210 -0.532700
O17   O     O_R   0.914480 0.269530 0.916840 -0.555595
O18   O     O_R   0.085520 0.769530 0.083160 -0.555595
C35   C     C_R   0.896606 0.612676 0.086536 0.775798
C36   C     C_R   0.103394 0.112676 0.913464 0.775798
O19   O     O_3   0.997840 0.601520 0.949550 -0.372557
O20   O     O_3   0.002160 0.101520 0.050450 -0.372557
V3    V     V_3+5 0.000400 0.328340 0.009360 1.543934
V4    V     V_3+5 0.999600 0.828340 0.990640 1.543934
I1    I     I_    0.059781 0.881053 0.744216 -0.330122
I2    I     I_    0.940219 0.381052 0.255784 -0.330121
I3    I     I_    0.827258 0.869619 0.734261 -0.316689
I4    I     I_    0.172742 0.369620 0.265739 -0.316688
O21   O     O_3   0.656858 0.001902 0.748015 -0.531411
C37   C     C_3   0.582264 0.013741 0.772516 -0.188898
H9    H     H_    0.533638 0.976377 0.723002 0.139666
H10   H     H_    0.572137 0.153382 0.796423 0.133585
H11   H     H_    0.580715 0.913379 0.821790 0.168692
O22   O     O_3   0.343142 0.501902 0.251985 -0.531412
C38   C     C_3   0.417735 0.513744 0.227482 -0.188895
H12   H     H_    0.466361 0.476388 0.276995 0.139663
H13   H     H_    0.427858 0.653382 0.203573 0.133588
H14   H     H_    0.419285 0.413380 0.178209 0.168691
I5    I     I_    0.429362 0.451709 0.742394 -0.403035
I6    I     I_    0.570636 0.951706 0.257605 -0.403035
O23   O     O_3   0.365267 0.343804 0.887210 -0.516172
C39   C     C_3   0.421720 0.210778 0.920293 -0.156808
H15   H     H_    0.436352 0.113805 0.873799 0.119847
H16   H     H_    0.401448 0.132393 0.969538 0.127042
H17   H     H_    0.477104 0.283358 0.946273 0.165961
O24   O     O_3   0.634733 0.843806 0.112790 -0.516172
C40   C     C_3   0.578280 0.710781 0.079706 -0.156813
H18   H     H_    0.563655 0.613788 0.126198 0.119842
H19   H     H_    0.598549 0.632418 0.030453 0.127054
H20   H     H_    0.522893 0.783362 0.053737 0.165962
O25   O     O_3   0.247003 0.305266 0.972945 -0.529246
C41   C     C_3   0.258394 0.168624 0.033656 -0.180985
H21   H     H_    0.281329 0.034469 0.014572 0.090170
H22   H     H_    0.202259 0.144433 0.056578 0.142490
H23   H     H_    0.302104 0.221110 0.084554 0.178922
O26   O     O_3   0.752997 0.805267 0.027055 -0.529246
C42   C     C_3   0.741606 0.668625 0.966343 -0.180992
H24   H     H_    0.718673 0.534469 0.985428 0.090171
H25   H     H_    0.797742 0.644437 0.943421 0.142494
H26   H     H_    0.697895 0.721111 0.915446 0.178921

loop_
_geom_bond_atom_site_label_1
_geom_bond_atom_site_label_2
_ccdc_geom_bond_type
C22   I2    S    
C42   H24   S    
C21   I1    S    
C27   I5    S    
O21   C37   S    
C7    I3    S    
O25   C41   S    
O1    C3    A    
O2    C4    A    
C2    O7    A    
C33   O18   A    
C23   C25   A    
O23   C39   S    
O5    C3    A    
C5    C9    S    
C37   H10   S    
C6    C10   S    
C16   C20   A    
C11   O21   S    
C10   C12   D    
C17   C19   A    
C39   H16   S    
C41   H23   S    
O11   V4    S    
C17   O23   S    
O15   V3    S    
O22   C38   S    
C18   C26   A    
C37   H11   S    
C41   H22   S    
C16   C22   A    
C6    C8    D    
C34   O17   A    
O5    V1    S    
O20   V3    S    
C42   H25   S    
C13   C27   A    
C25   C27   A    
C14   C28   A    
C26   C28   A    
C29   C31   A    
C7    C34   S    
C30   C32   A    
C37   H9    S    
O4    C2    A    
C40   H18   S    
C38   H13   S    
C39   H15   S    
C31   H7    S    
O12   V3    S    
C3    C12   S    
O3    C1    A    
O14   V4    S    
C5    H1    S    
C15   C21   A    
C13   C29   A    
O4    V2    S    
C18   O24   S    
C40   H19   S    
O17   V3    S    
C29   H5    S    
O6    C4    A    
O19   V4    S    
C41   H21   S    
C20   O26   S    
O1    V2    S    
C12   O22   S    
O2    V1    S    
C42   H26   S    
C9    H3    S    
O13   C33   A    
C15   C19   A    
O3    V1    S    
C23   C31   A    
C1    C14   S    
C24   C32   A    
C6    H2    S    
C15   C36   S    
C14   C30   A    
C10   H4    S    
C16   C35   S    
C28   I6    S    
C39   H17   S    
C38   H14   S    
O13   V3    S    
C19   O25   S    
C30   H6    S    
O15   C35   A    
O18   V4    S    
C4    C11   S    
O16   C36   A    
C17   C25   A    
O7    V1    S    
C1    O8    A    
C21   C23   A    
O8    V2    S    
C40   H20   S    
C22   C24   A    
O11   C35   A    
O24   C40   S    
O12   C36   A    
C24   C26   A    
O26   C42   S    
C5    C7    D    
O14   C34   A    
C18   C20   A    
C9    C11   D    
C38   H12   S    
C32   H8    S    
C2    C13   S    
O16   V4    S    
O6    V2    S    
O9    V2    S    
O10   V1    S    
C8    I4    S    
C8    C33   S    
