data_mof_unit_32413.cif
_audit_creation_date              2012-12-10T17:02:12-0500
_audit_creation_method            fapswitch 2.2
_symmetry_space_group_name_H-M    P1
_symmetry_Int_Tables_number       1
_space_group_crystal_system       triclinic
_cell_length_a                    10.626865
_cell_length_b                    10.725131
_cell_length_c                    10.074686
_cell_angle_alpha                 90.12572
_cell_angle_beta                  89.838708
_cell_angle_gamma                 89.771059
_cell_volume                      1148.24098434

loop_
_atom_site_label
_atom_site_type_symbol
_atom_type_description
_atom_site_fract_x
_atom_site_fract_y
_atom_site_fract_z
_atom_type_partial_charge
C1    C     C_R   0.503807 0.262864 0.499809 0.944025
C2    C     C_2   0.519384 0.131473 0.500313 -0.336411
C3    C     C_2   0.557079 0.583386 0.924801 -0.125880
C4    C     C_R   0.260828 0.502689 0.500210 0.880463
C5    C     C_2   0.537901 0.592681 0.072543 -0.018984
C6    C     C_R   0.498589 0.737211 0.499952 0.893007
C7    C     C_R   0.739226 0.500800 0.499779 0.904170
C8    C     C_R   0.129169 0.723579 0.411375 -0.163112
C9    C     C_R   0.062408 0.828391 0.369152 -0.137517
C10   C     C_R   0.931457 0.827488 0.369337 -0.143757
C11   C     C_R   0.866908 0.721652 0.411422 -0.164656
C12   C     C_R   0.065008 0.615485 0.454250 0.091431
C13   C     C_R   0.933231 0.614170 0.453992 0.046879
C14   C     C_3   0.636323 0.330218 0.099035 -0.689900
C15   C     C_3   0.846095 0.204023 0.487322 -0.801582
C16   C     C_R   0.128614 0.508982 0.500832 -0.123019
C17   C     C_R   0.066421 0.404860 0.549049 -0.280776
C18   C     C_R   0.937255 0.401457 0.546979 0.203249
C19   C     C_R   0.871766 0.505695 0.499175 -0.140592
C20   C     C_2   0.521525 0.932344 0.389766 -0.172878
C21   C     C_2   0.490857 0.869139 0.499231 -0.330497
C22   C     C_2   0.513796 0.066480 0.387538 -0.180157
H1    H     H_    0.118750 0.324518 0.584577 0.146563
H2    H     H_    0.549841 0.885359 0.298701 0.163723
H3    H     H_    0.456111 0.912790 0.589325 0.151007
H4    H     H_    0.503055 0.111468 0.291673 0.171372
H5    H     H_    0.445215 0.323399 0.136885 0.235083
H6    H     H_    0.702917 0.389879 0.042966 0.238317
H7    H     H_    0.635906 0.236359 0.052340 0.199520
H8    H     H_    0.669403 0.321083 0.202819 0.252156
H9    H     H_    0.915980 0.250570 0.671863 0.226922
H10   H     H_    0.934921 0.168685 0.442115 0.234186
H11   H     H_    0.787097 0.247841 0.409387 0.244027
H12   H     H_    0.539740 0.089303 0.595606 0.154307
H13   H     H_    0.793831 0.123809 0.529390 0.243991
H14   H     H_    0.616755 0.651802 0.876979 0.149220
H15   H     H_    0.428689 0.452444 0.894584 0.200457
H16   H     H_    0.558916 0.681425 0.119073 0.110003
H17   H     H_    0.230770 0.728597 0.411594 0.139541
H18   H     H_    0.112421 0.910795 0.337080 0.136656
H19   H     H_    0.879684 0.909212 0.337465 0.136644
H20   H     H_    0.765258 0.725529 0.411444 0.137922
N1    N     N_2   0.501340 0.501330 0.852150 -0.180970
N2    N     N_2   0.501380 0.501360 0.147810 -0.033812
N3    N     N_2   0.510500 0.382596 0.095509 -0.251217
N4    N     N_2   0.873332 0.292717 0.591649 -0.296408
O1    O     O_R   0.499980 0.319060 0.613040 -0.608497
O2    O     O_R   0.500020 0.319100 0.386900 -0.630223
O3    O     O_R   0.316750 0.499980 0.613090 -0.616431
O4    O     O_R   0.316790 0.500020 0.386950 -0.614293
O5    O     O_R   0.499980 0.680900 0.613100 -0.618641
O6    O     O_R   0.500020 0.680940 0.386960 -0.632140
O7    O     O_R   0.683210 0.499980 0.613050 -0.595552
O8    O     O_R   0.683250 0.500020 0.386910 -0.629044
Zn1   Zn    Zn3+2 0.499970 0.499970 0.650990 0.950264
Zn2   Zn    Zn3+2 0.500030 0.500030 0.349010 0.931839

loop_
_geom_bond_atom_site_label_1
_geom_bond_atom_site_label_2
_ccdc_geom_bond_type
H15   N1    S    
C1    O2    A    
C2    C22   D    
C8    H17   S    
C6    O5    A    
C9    C10   A    
N2    Zn2   S    
C7    C19   S    
C7    O8    A    
C4    O3    A    
C8    C12   A    
C6    O6    A    
C2    H12   S    
C17   C18   A    
C15   H10   S    
C5    H16   S    
N2    N3    S    
C10   H19   S    
C11   C13   A    
C3    N1    D    
C17   H1    S    
C3    H14   S    
C14   H8    S    
C12   C16   A    
C18   N4    S    
N1    Zn1   S    
C4    C16   S    
C5    N2    D    
C20   C22   S    
H5    N3    S    
C1    C2    S    
C14   N3    S    
O5    Zn1   S    
O7    Zn1   S    
O8    Zn2   S    
C16   C17   A    
C10   C11   A    
C7    O7    A    
C14   H7    S    
O6    Zn2   S    
C12   C13   A    
C11   H20   S    
O1    Zn1   S    
C18   C19   A    
C22   H4    S    
C15   H13   S    
O2    Zn2   S    
C13   C19   A    
C1    O1    A    
C21   H3    S    
C15   N4    S    
C14   H6    S    
C20   C21   D    
O3    Zn1   S    
C6    C21   S    
C15   H11   S    
C9    H18   S    
O4    Zn2   S    
C20   H2    S    
C4    O4    A    
C8    C9    A    
C3    C5    S    
H9    N4    S    
