data_mof_unit_45312.cif
_audit_creation_date              2013-03-05T16:40:04-0500
_audit_creation_method            fapswitch 2.2
_symmetry_space_group_name_H-M    P1
_symmetry_Int_Tables_number       1
_space_group_crystal_system       triclinic
_cell_length_a                    8.721706
_cell_length_b                    17.741317
_cell_length_c                    16.62733
_cell_angle_alpha                 90.362043
_cell_angle_beta                  97.763152
_cell_angle_gamma                 94.874756
_cell_volume                      2539.60850817

loop_
_atom_site_label
_atom_site_type_symbol
_atom_site_description
_atom_site_fract_x
_atom_site_fract_y
_atom_site_fract_z
_atom_type_partial_charge
O1    O     O_R   0.499990 0.391240 0.567930 -0.562707
O2    O     O_R   0.500010 0.608760 0.432070 -0.570545
O3    O     O_R   0.500000 0.391270 0.432120 -0.521938
O4    O     O_R   0.500000 0.608730 0.567880 -0.499883
C1    C     C_R   0.507077 0.355710 0.500087 0.853514
C2    C     C_R   0.493428 0.644344 0.499957 0.857702
O5    O     O_R   0.274830 0.499990 0.552240 -0.564700
O6    O     O_R   0.725170 0.500010 0.447760 -0.558420
O7    O     O_R   0.274840 0.500020 0.416420 -0.519291
O8    O     O_R   0.725160 0.499980 0.583580 -0.524956
C3    C     C_R   0.203515 0.498589 0.479455 0.915754
C4    C     C_R   0.796480 0.501370 0.520548 0.905638
Cu1   Cu    Cu3+1 0.499990 0.499980 0.580420 1.117954
Cu2   Cu    Cu3+1 0.500010 0.500020 0.419580 1.112499
C5    C     C_2   0.037218 0.492228 0.468911 -0.242371
C6    C     C_2   0.962772 0.507698 0.531113 -0.294672
H1    H     H_    0.975611 0.472072 0.410708 0.246523
H2    H     H_    0.024347 0.527856 0.589325 0.236098
C7    C     C_R   0.468099 0.846914 0.570238 -0.178900
C8    C     C_R   0.538998 0.153704 0.430186 -0.168906
H3    H     H_    0.450961 0.878210 0.624069 0.184810
H4    H     H_    0.559560 0.122733 0.376800 0.186407
C9    C     C_R   0.460174 0.767811 0.571164 0.344380
C10   C     C_R   0.546214 0.232809 0.429568 0.306849
C11   C     C_R   0.484239 0.727228 0.500531 -0.161364
C12   C     C_R   0.517447 0.272926 0.499573 -0.174153
C13   C     C_R   0.504350 0.767452 0.429494 -0.161915
C14   C     C_R   0.493753 0.232327 0.569907 -0.149937
H5    H     H_    0.517162 0.738420 0.373797 0.224182
H6    H     H_    0.477316 0.261027 0.625188 0.223344
C15   C     C_R   0.509257 0.846024 0.429252 -0.119909
C16   C     C_R   0.489656 0.153781 0.569911 -0.119526
H7    H     H_    0.526370 0.875912 0.374084 0.173704
H8    H     H_    0.469595 0.123583 0.624498 0.172890
C17   C     C_R   0.493150 0.885623 0.499811 0.055520
C18   C     C_R   0.510191 0.114592 0.499827 0.055897
C19   C     C_1   0.499309 0.966258 0.499657 0.014477
C20   C     C_1   0.504365 0.033963 0.499725 0.011898
C21   C     C_R   0.614869 0.538848 0.840472 0.143044
C22   C     C_R   0.385977 0.461087 0.159423 0.148142
C23   C     C_R   0.615611 0.541950 0.754506 0.429361
C24   C     C_R   0.384618 0.458016 0.245361 0.402430
N1    N     N_R   0.499960 0.499970 0.701210 -0.310435
N2    N     N_R   0.500040 0.500030 0.298790 -0.308583
C25   C     C_R   0.382437 0.458868 0.734653 0.361406
C26   C     C_R   0.617647 0.541232 0.265511 0.368832
C27   C     C_R   0.375874 0.459523 0.820129 0.163050
C28   C     C_R   0.624927 0.540435 0.180104 0.163928
C29   C     C_R   0.493224 0.499912 0.873469 -0.208728
C30   C     C_R   0.507973 0.499940 0.126634 -0.207275
C31   C     C_1   0.496968 0.499326 0.962926 0.240523
C32   C     C_1   0.504593 0.500555 0.037197 0.239018
N3    N     N_R   0.421003 0.730276 0.642770 0.146590
O9    O     O_R   0.488516 0.754485 0.713913 -0.272493
O10   O     O_R   0.297548 0.682916 0.638088 -0.340517
N4    N     N_R   0.589352 0.270866 0.359017 0.132689
O11   O     O_R   0.527133 0.246468 0.287020 -0.295474
O12   O     O_R   0.711208 0.319390 0.365933 -0.311949
N5    N     N_R   0.742635 0.573321 0.895820 0.189840
O13   O     O_R   0.722777 0.630774 0.941192 -0.238310
O14   O     O_R   0.872910 0.541772 0.907730 -0.188920
N6    N     N_R   0.258228 0.426990 0.103826 0.190253
O15   O     O_R   0.277651 0.369392 0.058554 -0.238635
O16   O     O_R   0.128386 0.458904 0.091742 -0.188819
S1    S     S_3+6 0.780483 0.599091 0.725048 0.129029
O17   O     O_2   0.822046 0.665209 0.783197 -0.178618
O18   O     O_2   0.914770 0.550643 0.733284 -0.228967
O19   O     O_3   0.765642 0.637223 0.632778 -0.525818
H9    H     H_    0.871268 0.660236 0.627473 0.368269
S2    S     S_3+6 0.218594 0.401623 0.274701 0.131910
O20   O     O_2   0.086134 0.451096 0.268072 -0.194839
O21   O     O_2   0.172328 0.336698 0.215280 -0.199766
O22   O     O_3   0.233142 0.362684 0.366768 -0.519361
H10   H     H_    0.245500 0.308381 0.357880 0.366967
N7    N     N_R   0.259877 0.416106 0.683639 0.172764
O23   O     O_R   0.117433 0.431354 0.686277 -0.297882
O24   O     O_R   0.283304 0.349464 0.657642 -0.341198
N8    N     N_R   0.739235 0.584517 0.316632 0.170527
O25   O     O_R   0.882016 0.569424 0.314816 -0.303700
O26   O     O_R   0.714922 0.651410 0.341547 -0.344169
N9    N     N_R   0.250885 0.417219 0.852398 0.189767
O27   O     O_R   0.216835 0.345923 0.833506 -0.234372
O28   O     O_R   0.171630 0.449727 0.901534 -0.214657
N10   N     N_R   0.750085 0.582788 0.148013 0.189152
O29   O     O_R   0.783778 0.654123 0.166812 -0.234594
O30   O     O_R   0.829417 0.550372 0.098844 -0.215356

loop_
_geom_bond_atom_site_label_1
_geom_bond_atom_site_label_2
_geom_bond_distance
_ccdc_geom_bond_type
C13   H5    1.080346 S    
O22   H10   0.990835 S    
N7    O23   1.300096 A    
N9    O27   1.301053 A    
C21   C23   1.431650 A    
N3    O9    1.301114 A    
O5    C3    1.282876 A    
C19   C20   1.198219 T    
O1    C1    1.300041 A    
C16   C18   1.393092 A    
C7    H3    1.084304 S    
C10   C12   1.422371 A    
N8    O26   1.298188 A    
C2    C11   1.479476 S    
C5    C6    1.332188 D    
C24   S2    1.812860 S    
C22   N6    1.435978 S    
N4    O11   1.301146 A    
C25   C27   1.430112 A    
O4    Cu1   1.941906 S    
N6    O16   1.300891 A    
C3    C5    1.431906 S    
C4    C6    1.431862 S    
O19   H9    0.990777 S    
S1    O18   1.502850 D    
C30   C32   1.483538 S    
C15   H7    1.083763 S    
S2    O20   1.502117 D    
C22   C24   1.431921 A    
N5    O13   1.301410 A    
Cu1   Cu2   2.674370 S    
C23   N1    1.407102 A    
O2    C2    1.300249 A    
C24   N2    1.407381 A    
C27   C29   1.403452 A    
N9    O28   1.300886 A    
N2    C26   1.386966 A    
C9    N3    1.434922 S    
N3    O10   1.301609 A    
C26   C28   1.430086 A    
N5    O14   1.300852 A    
C13   C15   1.391045 A    
C31   C32   1.227674 T    
C8    C10   1.399648 A    
C14   C16   1.390931 A    
N10   O29   1.301042 A    
O4    C2    1.294478 A    
C26   N8    1.430602 S    
N8    O25   1.300032 A    
C23   S1    1.812224 S    
C29   C31   1.483487 S    
C28   N10   1.436631 S    
C16   H8    1.083776 S    
C7    C9    1.399504 A    
O7    Cu2   1.957461 S    
N6    O15   1.301422 A    
N7    O24   1.298059 A    
O6    C4    1.282926 A    
S1    O19   1.674079 S    
C21   N5    1.436220 S    
S2    O22   1.677082 S    
C28   C30   1.403365 A    
N1    C25   1.386950 A    
O3    Cu2   1.941906 S    
O8    C4    1.288319 A    
C21   C29   1.393309 A    
C8    H4    1.084256 S    
O7    C3    1.288378 A    
C15   C17   1.393051 A    
C11   C13   1.407310 A    
Cu1   N1    2.008452 S    
Cu2   N2    2.008452 S    
C5    H1    1.084265 S    
O6    Cu2   1.956389 S    
C17   C19   1.427040 S    
N10   O30   1.300913 A    
O3    C1    1.294507 A    
O8    Cu1   1.957462 S    
C10   N4    1.435131 S    
C12   C14   1.407049 A    
C25   N7    1.430642 S    
C14   H6    1.080169 S    
C7    C17   1.394415 A    
C22   C30   1.393298 A    
C18   C20   1.427043 S    
N4    O12   1.301564 A    
C27   N9    1.436525 S    
O2    Cu2   1.939030 S    
C1    C12   1.479187 S    
C8    C18   1.394475 A    
O5    Cu1   1.956388 S    
C9    C11   1.422441 A    
O1    Cu1   1.939030 S    
C6    H2    1.084297 S    
S1    O17   1.503623 D    
S2    O21   1.504890 D    
