data_mof_unit_52107.cif
_audit_creation_date              2012-12-10T17:21:18-0500
_audit_creation_method            fapswitch 2.2
_symmetry_space_group_name_H-M    P1
_symmetry_Int_Tables_number       1
_space_group_crystal_system       triclinic
_cell_length_a                    9.657276
_cell_length_b                    10.867298
_cell_length_c                    13.883424
_cell_angle_alpha                 93.632705
_cell_angle_beta                  86.62131
_cell_angle_gamma                 88.648692
_cell_volume                      1451.04357331

loop_
_atom_site_label
_atom_site_type_symbol
_atom_type_description
_atom_site_fract_x
_atom_site_fract_y
_atom_site_fract_z
_atom_type_partial_charge
C1    C     C_R   0.497912 0.737116 0.498796 0.812769
C2    C     C_1   0.470708 0.519786 0.785030 -0.052219
C3    C     C_R   0.316844 0.868499 0.371289 -0.113321
C4    C     C_R   0.247953 0.929126 0.302339 -0.168499
C5    C     C_R   0.285623 0.046891 0.281306 -0.129745
C6    C     C_R   0.382713 0.108736 0.335458 0.242922
C7    C     C_R   0.431920 0.058255 0.419052 0.020795
C8    C     C_R   0.411619 0.931184 0.430093 0.057827
C9    C     C_R   0.492560 0.870662 0.495628 -0.129461
C10   C     C_R   0.576415 0.938040 0.556895 -0.165036
C11   C     C_R   0.580134 0.065200 0.556515 0.243206
C12   C     C_R   0.479306 0.502440 0.682467 0.863021
C13   C     C_R   0.507700 0.126982 0.488083 -0.157527
C14   C     C_R   0.877185 0.337548 0.367842 -0.066610
C15   C     C_R   0.961230 0.276594 0.293674 -0.227045
C16   C     C_R   0.095109 0.316699 0.274440 -0.189215
C17   C     C_R   0.144176 0.413891 0.332172 0.354116
C18   C     C_R   0.080182 0.440098 0.425025 0.073007
C19   C     C_R   0.933608 0.425195 0.433034 0.127051
C20   C     C_R   0.918727 0.572437 0.565221 0.321356
C21   C     C_R   0.066524 0.570465 0.566526 0.318849
C22   C     C_R   0.502121 0.262184 0.495591 0.867030
C23   C     C_R   0.520757 0.507403 0.318148 0.838054
C24   C     C_1   0.530419 0.508060 0.215353 -0.010615
C25   C     C_2   0.540574 0.494586 0.025089 -0.211622
C26   C     C_2   0.461949 0.566712 0.973750 -0.034131
C27   C     C_1   0.465545 0.539901 0.871071 0.023119
C28   C     C_1   0.536587 0.503750 0.128671 0.143223
Cu1   Cu    Cu3+1 0.359340 0.500010 0.500010 1.032767
Cu2   Cu    Cu3+1 0.640660 0.499990 0.499990 1.031111
H1    H     H_    0.770235 0.315013 0.370467 0.211884
H2    H     H_    0.917508 0.208768 0.244516 0.190289
H3    H     H_    0.147926 0.289591 0.205147 0.188430
H4    H     H_    0.604251 0.419902 0.988485 0.181446
H5    H     H_    0.635288 0.891731 0.608559 0.215870
H6    H     H_    0.294179 0.772697 0.375387 0.203464
H7    H     H_    0.174548 0.880441 0.258994 0.184045
H8    H     H_    0.248178 0.085403 0.217431 0.165993
N1    N     N_R   0.852210 0.498790 0.499090 -0.233253
N2    N     N_R   0.148080 0.498710 0.499060 -0.241458
O1    O     O_R   0.381190 0.680360 0.500010 -0.567843
O2    O     O_R   0.618760 0.680340 0.500000 -0.550732
O3    O     O_R   0.364420 0.499990 0.637850 -0.542202
O4    O     O_R   0.601990 0.499960 0.637840 -0.531363
O5    O     O_R   0.381240 0.319660 0.500000 -0.565303
O6    O     O_R   0.618810 0.319640 0.499990 -0.569761
O7    O     O_R   0.398010 0.500040 0.362160 -0.551276
O8    O     O_R   0.635580 0.500010 0.362150 -0.594189
C29   C     C_2   0.374715 0.673688 0.016157 0.936157
O9    O     O_2   0.284213 0.717033 0.969216 -0.539653
O10   O     O_R   0.398140 0.728003 0.107494 -0.748030
H9    H     H_    0.335041 0.802667 0.125440 0.342000
Br1   Br    Br    0.169228 0.555512 0.256705 -0.517480
Br2   Br    Br    0.149546 0.685580 0.655955 -0.352965
Br3   Br    Br    0.486735 0.224990 0.267489 -0.597295
Br4   Br    Br    0.682271 0.149214 0.654610 -0.435550
Br5   Br    Br    0.813906 0.681476 0.658641 -0.396404

loop_
_geom_bond_atom_site_label_1
_geom_bond_atom_site_label_2
_ccdc_geom_bond_type
Cu2   N1    S    
C23   C24   S    
Cu1   Cu2   S    
C16   H3    S    
C12   O3    A    
C24   C28   T    
C9    C10   A    
C25   H4    S    
C14   H1    S    
C2    C12   S    
C29   O9    D    
C17   C18   A    
C25   C26   D    
C15   H2    S    
C12   O4    A    
C5    H8    S    
Cu1   O3    S    
C25   C28   S    
C4    C5    A    
C11   C13   A    
Cu2   O4    S    
C26   C27   S    
C2    C27   T    
C21   N2    A    
C19   N1    A    
C3    H6    S    
Cu1   O7    S    
C6    Br3   S    
C5    C6    A    
Cu1   N2    S    
Cu2   O8    S    
C22   O6    A    
C13   C22   S    
C3    C8    A    
C6    C7    A    
C7    C8    A    
C21   Br2   S    
C10   H5    S    
C23   O7    A    
C10   C11   A    
O10   H9    S    
C17   Br1   S    
C1    O2    A    
C7    C13   A    
C22   O5    A    
C1    C9    S    
C20   C21   A    
C3    C4    A    
C18   C19   A    
C26   C29   S    
C1    O1    A    
C4    H7    S    
C20   N1    A    
C18   N2    A    
C14   C15   A    
C16   C17   A    
C23   O8    A    
Cu1   O1    S    
C20   Br5   S    
C14   C19   A    
Cu2   O6    S    
Cu2   O2    S    
C11   Br4   S    
C15   C16   A    
Cu1   O5    S    
C8    C9    A    
C29   O10   S    
