data_mof_unit_53599.cif
_audit_creation_date              2012-12-10T18:29:35-0500
_audit_creation_method            fapswitch 2.2
_symmetry_space_group_name_H-M    P1
_symmetry_Int_Tables_number       1
_space_group_crystal_system       triclinic
_cell_length_a                    11.518235
_cell_length_b                    14.88143
_cell_length_c                    15.302673
_cell_angle_alpha                 80.239401
_cell_angle_beta                  90.119133
_cell_angle_gamma                 102.69515
_cell_volume                      2520.14457037

loop_
_atom_site_label
_atom_site_type_symbol
_atom_type_description
_atom_site_fract_x
_atom_site_fract_y
_atom_site_fract_z
_atom_type_partial_charge
C1    C     C_R   0.481225 0.440623 0.662835 0.863364
C2    C     C_R   0.513940 0.559666 0.337220 0.865894
C3    C     C_R   0.512571 0.352939 0.938835 0.033897
C4    C     C_R   0.587480 0.655580 0.061385 0.021244
C5    C     C_R   0.531993 0.516481 0.953301 -0.055900
C6    C     C_R   0.525447 0.491388 0.045967 -0.059954
C7    C     C_R   0.530190 0.398768 0.084990 0.440156
C8    C     C_R   0.583303 0.610526 0.914620 0.450301
C9    C     C_R   0.528278 0.331458 0.030445 -0.334765
C10   C     C_R   0.613982 0.678504 0.969546 -0.346581
C11   C     C_R   0.714595 0.841188 0.614661 0.358140
C12   C     C_R   0.385695 0.186736 0.324718 0.361363
C13   C     C_R   0.665349 0.749973 0.600611 -0.137196
C14   C     C_R   0.387910 0.264296 0.365851 -0.107049
C15   C     C_R   0.510777 0.801053 0.517020 0.251387
C16   C     C_R   0.471917 0.194359 0.494253 0.269415
C17   C     C_R   0.571956 0.895353 0.512570 -0.076301
C18   C     C_R   0.496366 0.125165 0.448126 -0.042624
C19   C     C_R   0.666790 0.914761 0.570140 0.031969
C20   C     C_R   0.441752 0.116820 0.366045 0.014701
C21   C     C_R   0.537401 0.970899 0.457550 -0.034806
C22   C     C_R   0.563120 0.059154 0.484077 -0.019879
C23   C     C_R   0.717510 0.499929 0.500088 0.907696
C24   C     C_R   0.282465 0.499927 0.500033 0.876490
C25   C     C_R   0.658640 0.079731 0.541056 0.413466
C26   C     C_R   0.486129 0.963036 0.374153 0.397040
C27   C     C_R   0.711859 0.007411 0.581669 -0.267218
C28   C     C_R   0.442085 0.037664 0.327865 -0.266375
C29   C     C_1   0.838133 0.499677 0.500218 -0.164659
C30   C     C_1   0.161692 0.499458 0.500097 -0.189096
C31   C     C_1   0.940394 0.499272 0.500216 0.009037
C32   C     C_1   0.059197 0.499031 0.500126 -0.014573
C33   C     C_R   0.473127 0.402946 0.758016 -0.140244
C34   C     C_R   0.524685 0.599378 0.242398 -0.148922
C35   C     C_R   0.510593 0.287033 0.881381 0.141655
C36   C     C_R   0.618231 0.721719 0.119521 0.127991
C37   C     C_R   0.499522 0.315965 0.790068 -0.283177
C38   C     C_R   0.593726 0.689508 0.211383 -0.238588
C39   C     C_R   0.454559 0.460291 0.817909 0.163524
C40   C     C_R   0.475364 0.543318 0.181422 0.172847
C41   C     C_R   0.500937 0.444559 0.902639 0.060004
C42   C     C_R   0.530020 0.562368 0.096800 0.065274
H1    H     H_    0.538222 0.262684 0.060815 0.166965
H2    H     H_    0.658615 0.748712 0.939572 0.147708
H3    H     H_    0.627221 0.733519 0.259327 0.186099
H4    H     H_    0.511205 0.270651 0.744170 0.163907
H5    H     H_    0.786746 0.023599 0.623644 0.195718
H6    H     H_    0.403690 0.031791 0.263820 0.195970
H7    H     H_    0.352823 0.321922 0.332801 0.149908
H8    H     H_    0.705678 0.692901 0.628589 0.175907
N1    N     N_R   0.566020 0.731700 0.552730 -0.134139
N2    N     N_R   0.433980 0.268300 0.447270 -0.144493
O1    O     O_R   0.466720 0.383110 0.605620 -0.633902
O2    O     O_R   0.533280 0.616890 0.394380 -0.600050
O3    O     O_R   0.509090 0.531900 0.639510 -0.592269
O4    O     O_R   0.490910 0.468100 0.360490 -0.590854
O5    O     O_R   0.644370 0.425610 0.483050 -0.568022
O6    O     O_R   0.355630 0.574390 0.516950 -0.630638
O7    O     O_R   0.686740 0.574390 0.516930 -0.616261
O8    O     O_R   0.313260 0.425610 0.483070 -0.613449
Zn1   Zn    Zn3+2 0.471710 0.400660 0.477370 0.960809
Zn2   Zn    Zn3+2 0.528290 0.599340 0.522630 0.945098
O9    O     O_3   0.707293 0.171742 0.547804 -0.775043
H9    H     H_    0.773859 0.174003 0.589158 0.328019
O10   O     O_3   0.485947 0.884444 0.337158 -0.800666
H10   H     H_    0.445042 0.889459 0.280035 0.321379
C43   C     C_3   0.350937 0.480130 0.198461 -0.410745
C44   C     C_3   0.260279 0.522844 0.141466 -0.399915
C45   C     C_3   0.136306 0.458646 0.154377 -0.850563
H11   H     H_    0.137619 0.390442 0.134504 0.258699
H12   H     H_    0.105018 0.446634 0.224895 0.267295
H13   H     H_    0.072919 0.491595 0.112496 0.257594
H14   H     H_    0.256346 0.591268 0.159935 0.231680
H15   H     H_    0.287798 0.535273 0.070249 0.224858
H16   H     H_    0.348946 0.409400 0.184209 0.224456
H17   H     H_    0.319933 0.471766 0.268529 0.200590
C46   C     C_3   0.366253 0.523819 0.797734 -0.391605
C47   C     C_3   0.257104 0.490416 0.861839 -0.398633
C48   C     C_3   0.166941 0.551651 0.840556 -0.868484
H18   H     H_    0.208370 0.625502 0.844922 0.260816
H19   H     H_    0.133769 0.547843 0.772773 0.263625
H20   H     H_    0.090185 0.526700 0.888946 0.259419
H21   H     H_    0.213535 0.416990 0.857116 0.231218
H22   H     H_    0.284709 0.492447 0.931021 0.225141
H23   H     H_    0.407613 0.597688 0.800521 0.240285
H24   H     H_    0.332074 0.522433 0.730016 0.197779
C49   C     C_3   0.528271 0.189003 0.913545 -0.429181
C50   C     C_3   0.413266 0.124578 0.957722 -0.331783
C51   C     C_3   0.432075 0.027042 0.994238 -0.883824
H25   H     H_    0.464004 0.995762 0.940508 0.258339
H26   H     H_    0.498028 0.030626 0.047280 0.262911
H27   H     H_    0.346567 0.981282 0.022993 0.254990
H28   H     H_    0.381639 0.153805 0.013001 0.239284
H29   H     H_    0.342417 0.118801 0.908277 0.226833
H30   H     H_    0.554911 0.158996 0.856957 0.194546
H31   H     H_    0.603139 0.190851 0.959558 0.201681
C52   C     C_3   0.682091 0.822429 0.083277 -0.433913
C53   C     C_3   0.707929 0.888615 0.151401 -0.336958
C54   C     C_3   0.766974 0.987918 0.106760 -0.868246
H32   H     H_    0.853845 0.988932 0.074770 0.263888
H33   H     H_    0.708844 0.015374 0.055821 0.255699
H34   H     H_    0.782792 0.034343 0.157273 0.260833
H35   H     H_    0.623323 0.890425 0.185014 0.247325
H36   H     H_    0.768938 0.863938 0.201655 0.230828
H37   H     H_    0.768071 0.821511 0.050916 0.209702
H38   H     H_    0.625852 0.852067 0.031943 0.204902
O11   O     O_3   0.551295 0.378573 0.174440 -0.771741
H39   H     H_    0.557232 0.312362 0.190176 0.347729
O12   O     O_3   0.617375 0.631956 0.825551 -0.791181
H40   H     H_    0.651860 0.699995 0.809335 0.328914
C55   C     C_3   0.452079 0.174423 0.594526 -0.394707
C56   C     C_3   0.369568 0.078141 0.628241 -0.414981
C57   C     C_3   0.339477 0.065275 0.727244 -0.879323
H41   H     H_    0.421800 0.067315 0.765345 0.262220
H42   H     H_    0.295768 0.121012 0.741468 0.262994
H43   H     H_    0.277794 0.996350 0.749069 0.261057
H44   H     H_    0.285491 0.071526 0.591579 0.234849
H45   H     H_    0.412054 0.020649 0.617742 0.231069
H46   H     H_    0.404520 0.225329 0.613164 0.232870
H47   H     H_    0.536763 0.181938 0.629585 0.231659
C58   C     C_3   0.377242 0.777530 0.505509 -0.323824
C59   C     C_3   0.311868 0.739903 0.596279 -0.386508
C60   C     C_3   0.177192 0.725342 0.588326 -0.858956
H48   H     H_    0.152476 0.793504 0.566327 0.263179
H49   H     H_    0.145581 0.678852 0.539710 0.273318
H50   H     H_    0.132347 0.693054 0.653827 0.251907
H51   H     H_    0.334164 0.673131 0.627149 0.254492
H52   H     H_    0.340862 0.790986 0.641655 0.210011
H53   H     H_    0.343312 0.840032 0.477747 0.193992
H54   H     H_    0.354077 0.729014 0.457677 0.240171
O13   O     O_3   0.810659 0.859830 0.668137 -0.783710
H55   H     H_    0.832421 0.800172 0.693710 0.329917
O14   O     O_3   0.333891 0.179862 0.243859 -0.790333
H56   H     H_    0.298669 0.234843 0.224902 0.326904

loop_
_geom_bond_atom_site_label_1
_geom_bond_atom_site_label_2
_ccdc_geom_bond_type
O6    Zn2   S    
C56   H45   S    
C49   C50   S    
C4    C36   A    
C55   C56   S    
C58   H54   S    
C21   C26   A    
C52   C53   S    
C1    C33   S    
C60   H48   S    
C39   C41   A    
C46   C47   S    
C23   O7    A    
C11   C19   A    
C33   C39   A    
C34   C40   A    
C23   C29   S    
C35   C37   A    
N2    Zn1   S    
C5    C6    A    
C60   H49   S    
C14   H7    S    
C44   H15   S    
C53   H35   S    
O3    Zn2   S    
C55   H46   S    
C25   O9    S    
C59   H51   S    
C45   H12   S    
C1    O1    A    
C38   H3    S    
C13   N1    A    
C35   C49   S    
C47   H21   S    
C3    C41   A    
C54   H32   S    
C44   C45   S    
C22   C25   A    
C49   H30   S    
O11   H39   S    
C36   C52   S    
C15   N1    A    
C51   H26   S    
C19   C27   A    
C57   H43   S    
C52   H37   S    
C2    C34   S    
C40   C42   A    
C46   H23   S    
C34   C38   A    
C21   C22   A    
C59   H52   S    
N1    Zn2   S    
O1    Zn1   S    
C56   C57   S    
C7    C9    A    
C50   H29   S    
C9    H1    S    
C10   H2    S    
C43   C44   S    
C48   H18   S    
C2    O2    A    
C48   H19   S    
C47   C48   S    
C60   H50   S    
O2    Zn2   S    
C44   H14   S    
C40   C43   S    
C33   C37   A    
O9    H9    S    
O8    Zn1   S    
C45   H13   S    
C3    C9    A    
C5    C8    A    
C31   C32   S    
C3    C35   A    
C24   O8    A    
C49   H31   S    
C12   C20   A    
C16   C18   A    
C51   H27   S    
C58   C59   S    
C52   H38   S    
C8    C10   A    
C54   H33   S    
C12   C14   A    
C46   H24   S    
C53   C54   S    
C12   O14   S    
O14   H56   S    
C7    O11   S    
C43   H16   S    
C4    C10   A    
O13   H55   S    
C39   C46   S    
C57   H41   S    
C27   H5    S    
C23   O5    A    
C5    C41   A    
C50   H28   S    
C28   H6    S    
O7    Zn2   S    
C15   C58   S    
C18   C22   A    
C26   O10   S    
C16   N2    A    
C58   H53   S    
C11   O13   S    
C48   H20   S    
O5    Zn1   S    
C6    C7    A    
C25   C27   A    
C20   C28   A    
C26   C28   A    
C36   C38   A    
C51   H25   S    
C29   C31   T    
C2    O4    A    
C8    O12   S    
C30   C32   T    
C11   C13   A    
C56   H44   S    
C4    C42   A    
C53   H36   S    
C14   N2    A    
C17   C19   A    
C18   C20   A    
C1    O3    A    
C45   H11   S    
C24   C30   S    
C13   H8    S    
C47   H22   S    
C54   H34   S    
C50   C51   S    
C24   O6    A    
O10   H10   S    
C6    C42   A    
O12   H40   S    
C59   C60   S    
O4    Zn1   S    
C55   H47   S    
C43   H17   S    
C37   H4    S    
C15   C17   A    
C16   C55   S    
C57   H42   S    
C17   C21   A    
