data_mof_unit_20297.cif
_audit_creation_date              2013-03-05T15:55:22-0500
_audit_creation_method            fapswitch 2.2
_symmetry_space_group_name_H-M    P1
_symmetry_Int_Tables_number       1
_space_group_crystal_system       triclinic
_cell_length_a                    27.644782
_cell_length_b                    10.6563
_cell_length_c                    9.870025
_cell_angle_alpha                 89.775165
_cell_angle_beta                  89.625076
_cell_angle_gamma                 91.795659
_cell_volume                      2906.10658227

loop_
_atom_site_label
_atom_site_type_symbol
_atom_site_description
_atom_site_fract_x
_atom_site_fract_y
_atom_site_fract_z
_atom_type_partial_charge
O1    O     O_R   0.500000 0.316780 0.614690 -0.659927
O2    O     O_R   0.500000 0.316750 0.385360 -0.611536
C1    C     C_R   0.503018 0.259472 0.500926 0.915732
O3    O     O_R   0.428760 0.500030 0.614650 -0.638299
O4    O     O_R   0.428750 0.500010 0.385320 -0.646932
C2    C     C_R   0.405660 0.502239 0.499997 0.845992
Zn1   Zn    Zn3+2 0.500000 0.500020 0.653130 0.924658
Zn2   Zn    Zn3+2 0.500000 0.499980 0.346870 0.961417
O5    O     O_R   0.500000 0.683250 0.614640 -0.610637
O6    O     O_R   0.500000 0.683220 0.385310 -0.625320
O7    O     O_R   0.571250 0.499990 0.614680 -0.623658
O8    O     O_R   0.571240 0.499970 0.385350 -0.582870
C3    C     C_R   0.493466 0.738254 0.500414 0.901232
C4    C     C_R   0.593845 0.495223 0.499343 0.932939
C5    C     C_R   0.176388 0.416779 0.468335 0.515921
O9    O     O_2   0.200528 0.314596 0.507277 -0.548412
N1    N     N_R   0.200999 0.527462 0.443529 -0.358565
C6    C     C_R   0.178215 0.632221 0.400474 0.538257
C7    C     C_R   0.282590 0.541936 0.349747 -0.103100
C8    C     C_R   0.332076 0.533176 0.365519 -0.259460
C9    C     C_R   0.321334 0.508159 0.609903 0.155474
C10   C     C_R   0.271390 0.518163 0.591669 -0.081128
C11   C     C_R   0.252181 0.532615 0.462251 0.262570
C12   C     C_R   0.101690 0.514830 0.408141 -0.070397
C13   C     C_R   0.126273 0.409106 0.454495 -0.020397
C14   C     C_R   0.100322 0.299355 0.490911 -0.133152
C15   C     C_R   0.127982 0.627044 0.374505 -0.043020
C16   C     C_R   0.352451 0.514043 0.494492 -0.060399
H1    H     H_    0.246816 0.510657 0.677536 0.145896
H2    H     H_    0.118356 0.218746 0.531543 0.192262
C17   C     C_R   0.646428 0.484737 0.496283 -0.066932
C18   C     C_R   0.973999 0.387236 0.411283 0.028384
C19   C     C_R   0.974555 0.617689 0.386214 0.064847
C20   C     C_R   0.949075 0.501498 0.407354 0.045086
C21   C     C_R   0.946475 0.271852 0.406055 -0.021817
C22   C     C_R   0.896807 0.271945 0.431809 -0.227797
C23   C     C_R   0.872782 0.384732 0.445212 -0.020156
C24   C     C_R   0.898381 0.499609 0.426459 -0.053818
C25   C     C_R   0.873301 0.612605 0.428476 -0.013935
C26   C     C_R   0.823110 0.608360 0.449178 0.504852
N2    N     N_R   0.799063 0.495627 0.469324 -0.353533
C27   C     C_R   0.822908 0.385030 0.469559 0.519733
C28   C     C_R   0.720265 0.426599 0.382609 -0.193697
C29   C     C_R   0.669982 0.418161 0.391832 -0.040774
C30   C     C_R   0.673962 0.548686 0.594728 -0.250960
C31   C     C_R   0.724240 0.551424 0.587174 -0.083142
C32   C     C_R   0.747416 0.491865 0.479971 0.307569
O10   O     O_2   0.798282 0.275582 0.493020 -0.548539
C33   C     C_R   0.024918 0.393985 0.426390 0.071095
C34   C     C_R   0.050617 0.508771 0.399273 0.068197
C35   C     C_R   0.025449 0.618639 0.369178 0.051539
C36   C     C_R   0.050429 0.292793 0.479559 -0.132001
H3    H     H_    0.738823 0.379228 0.301306 0.143447
H4    H     H_    0.876398 0.183338 0.433557 0.187360
H5    H     H_    0.032077 0.209217 0.518726 0.146227
O11   O     O_2   0.203966 0.741333 0.389269 -0.507464
C37   C     C_R   0.102587 0.730120 0.322083 -0.004889
H6    H     H_    0.354283 0.539744 0.274808 0.182339
H7    H     H_    0.267675 0.552627 0.249297 0.158847
C38   C     C_R   0.948435 0.729577 0.388276 -0.209808
C39   C     C_R   0.898675 0.726836 0.408958 -0.136075
O12   O     O_2   0.798414 0.715622 0.446972 -0.554306
C40   C     C_R   0.052050 0.726223 0.325062 -0.290435
H8    H     H_    0.965862 0.821290 0.379899 0.145401
H9    H     H_    0.656527 0.599131 0.675671 0.163047
H10   H     H_    0.880247 0.815070 0.411067 0.187494
H11   H     H_    0.745189 0.601158 0.663445 0.154317
H12   H     H_    0.033950 0.806698 0.285198 0.149869
H13   H     H_    0.497688 0.111581 0.284311 0.179958
C41   C     C_R   0.519032 0.106197 0.752951 -0.144547
H14   H     H_    0.542046 0.189887 0.757932 0.177761
C42   C     C_R   0.507827 0.044867 0.874620 -0.179535
H15   H     H_    0.520156 0.084491 0.969644 0.158074
C43   C     C_R   0.478118 0.937206 0.874321 -0.169208
H16   H     H_    0.465849 0.896806 0.969921 0.142579
C44   C     C_R   0.463493 0.883305 0.751371 0.224610
C45   C     C_R   0.481848 0.935380 0.627203 0.088417
C46   C     C_R   0.501907 0.057295 0.628301 0.042533
C47   C     C_R   0.503501 0.124545 0.503849 -0.089001
C48   C     C_R   0.496267 0.062488 0.380700 -0.181240
H17   H     H_    0.487571 0.887401 0.283116 0.169006
C49   C     C_R   0.488393 0.935171 0.379863 -0.218739
C50   C     C_R   0.483865 0.870219 0.502529 -0.131992
H18   H     H_    0.552014 0.647171 0.124154 0.149165
C51   C     C_R   0.438385 0.330463 0.142454 -0.226780
H19   H     H_    0.434772 0.328030 0.249704 0.215921
C52   C     C_R   0.409269 0.243827 0.073388 -0.212415
H20   H     H_    0.385879 0.178883 0.130083 0.169972
C53   C     C_R   0.409771 0.241411 0.932808 0.208370
C54   C     C_R   0.439408 0.327999 0.861709 -0.177284
H21   H     H_    0.436528 0.326834 0.754502 0.212319
C55   C     C_R   0.470095 0.415184 0.928703 0.110326
C56   C     C_R   0.469861 0.415795 0.073390 0.178198
N3    N     N_R   0.499540 0.498800 0.142780 -0.113110
C57   C     C_R   0.528648 0.581076 0.070741 -0.117249
H22   H     H_    0.551802 0.647550 0.872400 0.155495
C58   C     C_R   0.528563 0.581214 0.927324 -0.119390
N4    N     N_R   0.499520 0.498720 0.857170 -0.124766
C59   C     C_3   0.339065 0.484592 0.750984 -0.868568
H23   H     H_    0.309219 0.483808 0.826923 0.235374
H24   H     H_    0.355118 0.391178 0.753794 0.253250
H25   H     H_    0.365716 0.558595 0.781630 0.257679
C60   C     C_2   0.126178 0.841906 0.256931 0.523895
H26   H     H_    0.111059 0.933770 0.271271 0.059731
O13   O     O_2   0.160244 0.831413 0.178868 -0.512317
C61   C     C_3   0.423870 0.783069 0.756863 -0.864098
H27   H     H_    0.410721 0.757074 0.654486 0.234602
H28   H     H_    0.436919 0.698772 0.809917 0.257940
H29   H     H_    0.392413 0.818347 0.814150 0.225691
C62   C     C_3   0.377702 0.148044 0.859588 -0.884933
H30   H     H_    0.385292 0.051624 0.894569 0.250749
H31   H     H_    0.339201 0.167264 0.881499 0.255019
H32   H     H_    0.383619 0.152567 0.748204 0.236782
C63   C     C_2   0.644523 0.334295 0.293994 0.427237
H33   H     H_    0.660714 0.317526 0.195466 0.057168
O14   O     O_2   0.607035 0.277271 0.324640 -0.567942
C64   C     C_2   0.965826 0.152102 0.355734 0.367370
H34   H     H_    0.948332 0.063354 0.384943 0.049340
O15   O     O_2   0.999613 0.151510 0.275419 -0.556129

loop_
_geom_bond_atom_site_label_1
_geom_bond_atom_site_label_2
_geom_bond_distance
_ccdc_geom_bond_type
C52   H20   1.083686 S    
C56   N3    1.375227 A    
C10   H1    1.083841 S    
C41   C46   1.416513 A    
N2    C27   1.368294 A    
C7    C8    1.383881 A    
C12   C15   1.416908 A    
C4    C17   1.461542 S    
C1    C47   1.438482 S    
H17   C49   1.083903 S    
C55   N4    1.376508 A    
C45   C46   1.396588 A    
Zn1   O7    2.003487 S    
N1    C11   1.427506 S    
C43   C44   1.401197 A    
C22   C23   1.397592 A    
Zn1   N4    2.013826 S    
C64   O15   1.221301 D    
C51   H19   1.062752 S    
O4    C2    1.296462 A    
C9    C59   1.502072 S    
O7    C4    1.296847 A    
C5    C13   1.392889 A    
C61   H27   1.109324 S    
C45   C50   1.416944 A    
C5    O9    1.350698 S    
C58   N4    1.365535 A    
C26   O12   1.349800 S    
N1    C6    1.366525 A    
C23   C27   1.398107 A    
O5    C3    1.285052 A    
C62   H30   1.109336 S    
C31   C32   1.398123 A    
C51   C56   1.409430 A    
C39   H10   1.083535 S    
C28   H3    1.084436 S    
C2    C16   1.481585 S    
C21   C22   1.394802 A    
C41   H14   1.080626 S    
C36   H5    1.080024 S    
C6    O11   1.347978 S    
C29   C63   1.484184 S    
O1    Zn1   1.990639 S    
C9    C10   1.400841 A    
O3    Zn1   2.008147 S    
C37   C60   1.482448 S    
C37   C40   1.396519 A    
C51   C52   1.389393 A    
C12   C34   1.414662 A    
C25   C39   1.397780 A    
C17   C29   1.419868 A    
C18   C21   1.426832 A    
Zn2   N3    2.014583 S    
C12   C13   1.410137 A    
C42   C43   1.389889 A    
C15   C37   1.419747 A    
C25   C26   1.400450 A    
C46   C47   1.419418 A    
C8    C16   1.412023 A    
C7    H7    1.083223 S    
C13   C14   1.397302 A    
C30   C31   1.390819 A    
C53   C62   1.502288 S    
C49   C50   1.395199 A    
C38   C39   1.388749 A    
O1    C1    1.283758 A    
H18   C57   1.081726 S    
C18   C20   1.418244 A    
C7    C11   1.389701 A    
C28   C29   1.392502 A    
C23   C24   1.405642 A    
C14   C36   1.384147 A    
C54   C55   1.408126 A    
C59   H23   1.110892 S    
Zn2   O8    2.008144 S    
C33   C36   1.408423 A    
H22   C58   1.081787 S    
C34   C35   1.412130 A    
N2    C32   1.430251 S    
C35   C40   1.408462 A    
C60   O13   1.221006 D    
C27   O10   1.350341 S    
C44   C45   1.426977 A    
C62   H32   1.111042 S    
C48   C49   1.367393 A    
C26   N2    1.367842 A    
C59   H24   1.102840 S    
C9    C16   1.422931 A    
O8    C4    1.292168 A    
C14   H2    1.083520 S    
C19   C38   1.413281 A    
C52   C53   1.387851 A    
C30   H9    1.083560 S    
C21   C64   1.485096 S    
O3    C2    1.303499 A    
C8    H6    1.083042 S    
C5    N1    1.363551 A    
C40   H12   1.080475 S    
C44   C61   1.506361 S    
C20   C24   1.412350 A    
O2    Zn2   1.987703 S    
C6    C15   1.413212 A    
C42   H15   1.082751 S    
O6    C3    1.294773 A    
O4    Zn2   2.003490 S    
C63   O14   1.220576 D    
C57   C58   1.415539 A    
C63   H33   1.085661 S    
C19   C35   1.415575 A    
C3    C50   1.439441 S    
C38   H8    1.078627 S    
O2    C1    1.295975 A    
C31   H11   1.082845 S    
C64   H34   1.085708 S    
C54   H21   1.061740 S    
C24   C25   1.408307 A    
C61   H28   1.109210 S    
C55   C56   1.428076 A    
C19   C20   1.419206 A    
N3    C57   1.365718 A    
C62   H31   1.110213 S    
C18   C33   1.416086 A    
C22   H4    1.084674 S    
C47   C48   1.398540 A    
Zn1   O5    1.987705 S    
C59   H25   1.106593 S    
C43   H16   1.083596 S    
Zn2   O6    1.990639 S    
C33   C34   1.418818 A    
C17   C30   1.403654 A    
C60   H26   1.085809 S    
C10   C11   1.396361 A    
H13   C48   1.083808 S    
C41   C42   1.393371 A    
C53   C54   1.398272 A    
C28   C32   1.397322 A    
C61   H29   1.110405 S    
