data_mof_unit_11227.cif
_audit_creation_date              2012-12-11T16:45:54-0500
_audit_creation_method            fapswitch 2.2
_symmetry_space_group_name_H-M    P1
_symmetry_Int_Tables_number       1
_space_group_crystal_system       monoclinic
_cell_length_a                    20.386551
_cell_length_b                    16.974092
_cell_length_c                    15.702864
_cell_angle_alpha                 90.0
_cell_angle_beta                  50.561744
_cell_angle_gamma                 90.0
_cell_volume                      4196.62931594

loop_
_atom_site_label
_atom_site_type_symbol
_atom_type_description
_atom_site_fract_x
_atom_site_fract_y
_atom_site_fract_z
_atom_type_partial_charge
C1    C     C_R   0.875887 0.695633 0.993083 -0.087969
C2    C     C_R   0.212863 0.347842 0.966523 -0.145940
C3    C     C_2   0.665654 0.744308 0.898629 0.981098
C4    C     C_2   0.868451 0.572878 0.810599 1.049765
C5    C     C_2   0.131548 0.572878 0.189401 1.049765
C6    C     C_2   0.368452 0.072878 0.810599 1.049764
C7    C     C_2   0.631550 0.072877 0.189399 1.049762
C8    C     C_R   0.287137 0.847841 0.033477 -0.145939
C9    C     C_R   0.712863 0.847841 0.966523 -0.145936
C10   C     C_R   0.809746 0.642025 0.331040 -0.309420
C11   C     C_R   0.190254 0.642025 0.668960 -0.309422
C12   C     C_R   0.309746 0.142025 0.331040 -0.309422
C13   C     C_R   0.690254 0.142025 0.668960 -0.309420
C14   C     C_R   0.709636 0.638172 0.534797 0.072932
C15   C     C_R   0.290364 0.638172 0.465203 0.072932
C16   C     C_R   0.209636 0.138172 0.534797 0.072930
C17   C     C_R   0.124113 0.695633 0.006918 -0.087966
C18   C     C_R   0.790364 0.138171 0.465203 0.072931
C19   C     C_R   0.730575 0.667517 0.436727 0.031077
C20   C     C_R   0.269425 0.667516 0.563273 0.031078
C21   C     C_R   0.230575 0.167516 0.436727 0.031078
C22   C     C_R   0.769425 0.167516 0.563273 0.031077
C23   C     C_R   0.176339 0.222914 0.443474 -0.163209
C24   C     C_R   0.823662 0.222914 0.556526 -0.163210
C25   C     C_R   0.676339 0.722915 0.443474 -0.163209
C26   C     C_R   0.323661 0.722915 0.556526 -0.163209
C27   C     C_R   0.113656 0.259469 0.544449 -0.176220
C28   C     C_R   0.375887 0.195633 0.993082 -0.087967
C29   C     C_R   0.886344 0.259469 0.455551 -0.176219
C30   C     C_R   0.613655 0.759469 0.544449 -0.176220
C31   C     C_R   0.386345 0.759469 0.455551 -0.176220
C32   C     C_R   0.111845 0.246136 0.634107 -0.021857
C33   C     C_R   0.888154 0.246136 0.365894 -0.021858
C34   C     C_R   0.611845 0.746136 0.634107 -0.021857
C35   C     C_R   0.388155 0.746136 0.365893 -0.021857
C36   C     C_R   0.650080 0.677932 0.634077 -0.052277
C37   C     C_R   0.349920 0.677932 0.365923 -0.052277
C38   C     C_R   0.150080 0.177932 0.634077 -0.052275
C39   C     C_R   0.624113 0.195633 0.006917 -0.087962
C40   C     C_R   0.849920 0.177932 0.365924 -0.052275
C41   C     C_3   0.602377 0.603487 0.690949 0.508145
C42   C     C_3   0.397623 0.603487 0.309051 0.508144
C43   C     C_3   0.102377 0.103487 0.690950 0.508141
C44   C     C_3   0.897623 0.103487 0.309050 0.508141
C45   C     C_R   0.907577 0.299740 0.202956 -0.179794
C46   C     C_R   0.092423 0.299740 0.797044 -0.179793
C47   C     C_R   0.407577 0.799740 0.202956 -0.179793
C48   C     C_R   0.592423 0.799740 0.797044 -0.179793
C49   C     C_3   0.666771 0.560561 0.585042 0.648749
C50   C     C_R   0.899446 0.311103 0.295512 -0.099787
C51   C     C_3   0.333229 0.560561 0.414958 0.648748
C52   C     C_3   0.166771 0.060561 0.585042 0.648752
C53   C     C_3   0.833230 0.060561 0.414957 0.648753
C54   C     C_2   0.720433 0.228343 0.045454 -0.308160
C55   C     C_2   0.279567 0.228343 0.954546 -0.308159
C56   C     C_2   0.220432 0.728343 0.045454 -0.308159
C57   C     C_2   0.779567 0.728343 0.954546 -0.308161
C58   C     C_2   0.212670 0.805796 0.065756 0.794546
C59   C     C_2   0.787329 0.805796 0.934244 0.794547
C60   C     C_2   0.712671 0.305796 0.065756 0.794544
C61   C     C_R   0.100554 0.311103 0.704488 -0.099787
C62   C     C_2   0.287330 0.305796 0.934244 0.794547
C63   C     C_R   0.827336 0.411435 0.961017 0.004359
C64   C     C_R   0.172664 0.411435 0.038983 0.004360
C65   C     C_R   0.327336 0.911435 0.961017 0.004360
C66   C     C_R   0.672663 0.911435 0.038983 0.004356
C67   C     C_R   0.862747 0.584597 0.318354 0.702122
C68   C     C_R   0.137253 0.584598 0.681646 0.702123
C69   C     C_R   0.362747 0.084597 0.318354 0.702124
C70   C     C_R   0.637253 0.084597 0.681646 0.702122
C71   C     C_R   0.840739 0.319883 0.051311 -0.121503
C72   C     C_R   0.399446 0.811103 0.295512 -0.099786
C73   C     C_R   0.159261 0.319883 0.948689 -0.121500
C74   C     C_R   0.340739 0.819883 0.051310 -0.121500
C75   C     C_R   0.659261 0.819883 0.948689 -0.121500
C76   C     C_R   0.849812 0.671838 0.225953 0.693625
C77   C     C_R   0.150188 0.671838 0.774047 0.693626
C78   C     C_R   0.349812 0.171838 0.225953 0.693626
C79   C     C_R   0.650188 0.171838 0.774047 0.693626
C80   C     C_R   0.909831 0.391314 0.300093 0.856530
C81   C     C_R   0.090169 0.391314 0.699907 0.856530
C82   C     C_R   0.409832 0.891314 0.300093 0.856530
C83   C     C_R   0.600554 0.811103 0.704488 -0.099786
C84   C     C_R   0.590168 0.891314 0.699907 0.856532
C85   C     C_R   0.863904 0.603495 0.902102 -0.133068
C86   C     C_R   0.136096 0.603495 0.097898 -0.133069
C87   C     C_R   0.363904 0.103495 0.902102 -0.133069
C88   C     C_R   0.636097 0.103494 0.097897 -0.133066
C89   C     C_R   0.844700 0.680886 0.939011 0.036177
C90   C     C_R   0.155299 0.680886 0.060989 0.036176
C91   C     C_R   0.344701 0.180886 0.939011 0.036176
C92   C     C_R   0.655300 0.180886 0.060988 0.036174
C93   C     C_2   0.908270 0.773753 0.991569 1.266310
C94   C     C_R   0.787137 0.347842 0.033477 -0.145937
C95   C     C_2   0.091729 0.773753 0.008432 1.266309
C96   C     C_2   0.408270 0.273754 0.991569 1.266309
C97   C     C_2   0.591729 0.273753 0.008432 1.266307
C98   C     C_2   0.050150 0.310377 0.557407 1.159611
C99   C     C_2   0.949850 0.310377 0.442593 1.159611
C100  C     C_2   0.550150 0.810377 0.557407 1.159611
C101  C     C_2   0.449850 0.810377 0.442593 1.159612
C102  C     C_2   0.834346 0.244308 0.101371 0.981100
C103  C     C_2   0.165654 0.244308 0.898629 0.981099
C104  C     C_2   0.334346 0.744308 0.101371 0.981098
F1    F     F_    0.605789 0.583452 0.773483 -0.594130
F2    F     F_    0.862916 0.844120 0.877555 -0.670722
F3    F     F_    0.637083 0.344120 0.122445 -0.670722
F4    F     F_    0.362916 0.344120 0.877555 -0.670723
F5    F     F_    0.857163 0.550367 0.400101 -0.563783
F6    F     F_    0.142837 0.550367 0.599899 -0.563783
F7    F     F_    0.357163 0.050367 0.400101 -0.563783
F8    F     F_    0.642837 0.050366 0.599899 -0.563785
F9    F     F_    0.823116 0.734604 0.203271 -0.676537
F10   F     F_    0.176885 0.734603 0.796730 -0.676538
F11   F     F_    0.323115 0.234603 0.203270 -0.676539
F12   F     F_    0.394211 0.583452 0.226517 -0.594129
F13   F     F_    0.676885 0.234603 0.796730 -0.676539
F14   F     F_    0.925933 0.426511 0.361741 -0.601429
F15   F     F_    0.074067 0.426511 0.638259 -0.601430
F16   F     F_    0.425933 0.926511 0.361740 -0.601429
F17   F     F_    0.574067 0.926511 0.638260 -0.601430
F18   F     F_    0.105789 0.083452 0.773483 -0.594129
F19   F     F_    0.894210 0.083453 0.226517 -0.594129
F20   F     F_    0.716212 0.509853 0.592390 -0.513308
F21   F     F_    0.283788 0.509853 0.407610 -0.513307
F22   F     F_    0.216211 0.009853 0.592390 -0.513308
F23   F     F_    0.783789 0.009852 0.407610 -0.513308
F24   F     F_    0.137084 0.844120 0.122445 -0.670723
H1    H     H_    0.536983 0.602661 0.718043 -0.004690
H2    H     H_    0.218728 0.198945 0.998068 0.132954
H3    H     H_    0.281272 0.698945 0.001932 0.132954
H4    H     H_    0.718727 0.698945 0.998068 0.132955
H5    H     H_    0.922450 0.243265 0.163419 0.223151
H6    H     H_    0.077550 0.243265 0.836581 0.223151
H7    H     H_    0.422450 0.743265 0.163419 0.223151
H8    H     H_    0.577550 0.743265 0.836581 0.223151
H9    H     H_    0.802743 0.445015 0.928606 0.131839
H10   H     H_    0.197257 0.445015 0.071394 0.131840
H11   H     H_    0.302743 0.945015 0.928606 0.131840
H12   H     H_    0.463017 0.602661 0.281957 -0.004690
H13   H     H_    0.697257 0.945015 0.071395 0.131839
H14   H     H_    0.182472 0.238179 0.371878 0.225582
H15   H     H_    0.817528 0.238179 0.628121 0.225583
H16   H     H_    0.682472 0.738179 0.371878 0.225582
H17   H     H_    0.317528 0.738179 0.628122 0.225583
H18   H     H_    0.881932 0.885536 0.048122 0.370839
H19   H     H_    0.118066 0.885536 0.951879 0.370839
H20   H     H_    0.381932 0.385536 0.048122 0.370838
H21   H     H_    0.618066 0.385536 0.951879 0.370838
H22   H     H_    0.931053 0.354687 0.666191 0.375071
H23   H     H_    0.036983 0.102661 0.718043 -0.004689
H24   H     H_    0.068947 0.354686 0.333808 0.375071
H25   H     H_    0.431053 0.854686 0.666191 0.375071
H26   H     H_    0.568947 0.854687 0.333809 0.375071
H27   H     H_    0.886479 0.137559 0.079107 0.400348
H28   H     H_    0.113520 0.137559 0.920893 0.400347
H29   H     H_    0.386480 0.637559 0.079107 0.400347
H30   H     H_    0.613520 0.637559 0.920893 0.400347
H31   H     H_    0.924047 0.497896 0.682516 0.379989
H32   H     H_    0.075953 0.497895 0.317484 0.379989
H33   H     H_    0.424047 0.997895 0.682516 0.379989
H34   H     H_    0.963017 0.102661 0.281955 -0.004689
H35   H     H_    0.575954 0.997896 0.317484 0.379988
H36   H     H_    0.640472 0.533164 0.548034 -0.082889
H37   H     H_    0.359528 0.533163 0.451965 -0.082888
H38   H     H_    0.140471 0.033163 0.548035 -0.082889
H39   H     H_    0.859530 0.033164 0.451964 -0.082889
H40   H     H_    0.781273 0.198945 0.001932 0.132956
N1    N     N_R   0.908660 0.628630 0.995840 -0.097495
N2    N     N_R   0.096530 0.421430 0.063580 -0.049138
N3    N     N_R   0.403470 0.921430 0.936420 -0.049138
N4    N     N_R   0.596530 0.921430 0.063580 -0.049139
N5    N     N_R   0.927500 0.575670 0.211370 -0.157501
N6    N     N_R   0.072500 0.575670 0.788630 -0.157501
N7    N     N_R   0.427500 0.075670 0.211370 -0.157501
N8    N     N_R   0.572500 0.075670 0.788630 -0.157501
N9    N     N_R   0.908660 0.365680 0.995820 -0.063841
N10   N     N_R   0.091340 0.365680 0.004180 -0.063841
N11   N     N_R   0.408660 0.865680 0.995820 -0.063841
N12   N     N_R   0.091340 0.628630 0.004160 -0.097495
N13   N     N_R   0.591340 0.865680 0.004180 -0.063841
N14   N     N_R   0.922310 0.631420 0.151980 -0.162067
N15   N     N_R   0.077690 0.631420 0.848020 -0.162067
N16   N     N_R   0.422310 0.131420 0.151980 -0.162067
N17   N     N_R   0.577690 0.131420 0.848020 -0.162067
N18   N     N_R   0.927500 0.426330 0.211360 -0.137942
N19   N     N_R   0.072500 0.426330 0.788640 -0.137942
N20   N     N_R   0.427500 0.926330 0.211360 -0.137942
N21   N     N_R   0.572500 0.926330 0.788640 -0.137942
N22   N     N_R   0.903470 0.570760 0.936440 -0.075780
N23   N     N_R   0.408660 0.128630 0.995840 -0.097495
N24   N     N_R   0.096530 0.570760 0.063560 -0.075780
N25   N     N_R   0.403470 0.070760 0.936440 -0.075780
N26   N     N_R   0.596530 0.070760 0.063560 -0.075780
N27   N     N_R   0.591340 0.128630 0.004160 -0.097496
N28   N     N_R   0.922310 0.368460 0.151950 -0.111029
N29   N     N_R   0.077690 0.368460 0.848050 -0.111029
N30   N     N_R   0.422310 0.868460 0.151950 -0.111029
N31   N     N_R   0.577690 0.868460 0.848050 -0.111029
N32   N     N_R   0.903470 0.421430 0.936420 -0.049138
Ni1   Ni    Ni4+2 1.000000 0.630300 0.000000 0.268383
Ni2   Ni    Ni4+2 0.500000 0.130300 0.000000 0.268383
Ni3   Ni    Ni4+2 0.000000 0.369700 0.000000 0.239936
Ni4   Ni    Ni4+2 0.500000 0.869700 0.000000 0.239936
Ni5   Ni    Ni4+2 0.988090 0.497570 0.863760 0.302751
Ni6   Ni    Ni4+2 0.011910 0.497570 0.136240 0.302751
Ni7   Ni    Ni4+2 0.488090 0.997570 0.863760 0.302751
Ni8   Ni    Ni4+2 0.511910 0.997570 0.136240 0.302751
O1    O     O_2   0.984660 0.786121 0.927703 -0.607067
O2    O     O_R   0.967060 0.309451 0.657719 -0.803702
O3    O     O_2   0.928258 0.357950 0.514478 -0.543416
O4    O     O_R   0.032940 0.309451 0.342281 -0.803702
O5    O     O_2   0.571742 0.857950 0.485522 -0.543416
O6    O     O_R   0.467060 0.809450 0.657719 -0.803702
O7    O     O_2   0.428258 0.857950 0.514478 -0.543416
O8    O     O_R   0.532940 0.809451 0.342281 -0.803702
O9    O     O_2   0.770926 0.228850 0.195338 -0.533333
O10   O     O_R   0.899680 0.189150 0.038628 -0.771159
O11   O     O_2   0.229073 0.228850 0.804662 -0.533332
O12   O     O_R   0.851748 0.834583 0.058211 -0.702720
O13   O     O_R   0.100320 0.189150 0.961372 -0.771161
O14   O     O_2   0.270927 0.728850 0.195338 -0.533332
O15   O     O_R   0.399680 0.689150 0.038628 -0.771160
O16   O     O_2   0.729073 0.728850 0.804662 -0.533332
O17   O     O_R   0.600320 0.689150 0.961372 -0.771160
O18   O     O_2   0.824130 0.601450 0.791288 -0.541129
O19   O     O_R   0.925130 0.512319 0.744256 -0.737727
O20   O     O_2   0.175869 0.601451 0.208713 -0.541128
O21   O     O_R   0.074870 0.512319 0.255744 -0.737727
O22   O     O_2   0.324131 0.101450 0.791288 -0.541128
O23   O     O_2   0.015339 0.786121 0.072300 -0.607065
O24   O     O_R   0.425130 0.012319 0.744256 -0.737727
O25   O     O_2   0.675874 0.101447 0.208706 -0.541131
O26   O     O_R   0.574869 0.012321 0.255746 -0.737723
O27   O     O_R   0.148251 0.834583 0.941789 -0.702718
O28   O     O_2   0.484660 0.286121 0.927703 -0.607069
O29   O     O_R   0.351748 0.334583 0.058211 -0.702720
O30   O     O_2   0.515339 0.286121 0.072300 -0.607064
O31   O     O_R   0.648251 0.334583 0.941789 -0.702718
O32   O     O_2   0.071742 0.357950 0.485521 -0.543417

loop_
_geom_bond_atom_site_label_1
_geom_bond_atom_site_label_2
_ccdc_geom_bond_type
C12   C69   A    
C13   C79   A    
C27   C98   S    
C58   F24   S    
C3    O16   D    
N25   Ni7   S    
C87   C91   A    
N14   Ni1   S    
C96   O29   S    
C57   H4    S    
C78   F11   S    
C82   F16   S    
C7    O25   D    
C9    C75   A    
N30   Ni4   S    
N8    N17   A    
C66   H13   S    
C54   C60   D    
C10   C67   A    
C97   O30   D    
C98   O2    S    
C63   C94   A    
C100  O6    S    
N32   Ni5   S    
C57   C89   S    
N2    N10   A    
C93   O12   S    
C31   C101  S    
N8    Ni7   S    
N18   N28   A    
C60   C94   S    
C35   C37   A    
C95   O23   D    
C32   C61   S    
N2    Ni6   S    
C6    O24   S    
C14   C36   A    
C29   C99   S    
C43   C52   S    
C57   C59   D    
C14   C49   S    
C98   O32   D    
C13   C70   A    
C101  O8    S    
C55   C62   D    
C30   C100  S    
C63   N32   A    
H27   O10   S    
C79   F13   S    
C4    O19   S    
C41   C49   S    
C37   C42   S    
C7    C88   S    
C18   C40   A    
C24   C29   A    
C15   C37   A    
C49   H36   S    
C55   C91   S    
C11   C77   A    
C102  O9    D    
C52   H38   S    
C9    C66   A    
C10   C76   A    
N4    N13   A    
C67   F5    S    
C74   N11   A    
C88   C92   A    
C29   C33   A    
N9    N32   A    
C12   C78   A    
N6    Ni5   S    
N9    Ni3   S    
C47   N30   A    
N5    Ni6   S    
C17   C95   S    
N23   Ni2   S    
C23   C27   A    
C3    C75   S    
C3    O17   S    
C104  O15   S    
C34   C36   A    
C18   C53   S    
C42   C51   S    
C8    C58   S    
N21   N31   A    
C45   N28   A    
C56   C90   S    
N26   N27   A    
H24   O4    S    
C7    O26   S    
C26   C31   A    
N10   Ni3   S    
C93   O1    D    
C63   H9    S    
N3    N11   A    
C36   C41   S    
C95   O27   S    
N1    N22   A    
C76   N14   A    
C44   C53   S    
C104  O14   D    
H25   O6    S    
C2    C64   A    
C99   O4    S    
C15   C20   A    
C97   O31   S    
C80   F14   S    
C100  O5    D    
C33   C40   A    
N16   Ni2   S    
C30   C34   A    
C46   C61   A    
C42   H12   S    
H20   O29   S    
C51   F21   S    
C88   N26   A    
N4    Ni8   S    
C87   N25   A    
H26   O8    S    
N12   Ni1   S    
N12   N24   A    
N27   Ni2   S    
N18   Ni6   S    
C46   N29   A    
C99   O3    D    
C4    C85   S    
C48   N31   A    
C33   C50   S    
C49   F20   S    
C39   N27   A    
C11   C20   S    
C6    C87   S    
C101  O7    D    
C82   N20   A    
H28   O13   S    
C9    C59   S    
N15   Ni1   S    
N17   Ni2   S    
C26   H17   S    
N7    Ni8   S    
N23   N25   A    
C54   C92   S    
C5    O21   S    
C46   H6    S    
H33   O24   S    
C68   N6    A    
N22   Ni5   S    
C8    C65   A    
C83   C84   A    
H30   O17   S    
N20   N30   A    
C10   C19   S    
C55   H2    S    
N19   Ni5   S    
C8    C74   A    
C76   F9    S    
C96   O28   D    
C84   N21   A    
C23   H14   S    
C85   C89   A    
N21   Ni7   S    
N28   Ni3   S    
C60   F3    S    
C43   F18   S    
C2    C73   A    
C41   F1    S    
C5    C86   S    
C17   N12   A    
C42   F12   S    
C71   C102  S    
C65   N3    A    
N5    N14   A    
C32   C38   A    
H31   O19   S    
C21   C23   A    
C86   C90   A    
N31   Ni4   S    
C73   C103  S    
C15   C51   S    
C77   N15   A    
C51   H37   S    
C68   F6    S    
C34   C83   S    
C73   N10   A    
N3    Ni7   S    
C77   F10   S    
C75   N13   A    
C28   N23   A    
H22   O2    S    
C39   C92   A    
C64   H10   S    
C43   H23   S    
C11   C68   A    
C74   C104  S    
C66   N4    A    
C25   C30   A    
N20   Ni8   S    
C1    C89   A    
C79   N17   A    
C47   H7    S    
C27   C32   A    
C18   C22   A    
N24   Ni6   S    
C14   C19   A    
C48   H8    S    
C17   C90   A    
C16   C52   S    
C54   H40   S    
C50   C80   A    
N6    N15   A    
C35   C72   S    
C5    O20   D    
C16   C21   A    
C45   H5    S    
N26   Ni8   S    
C81   F15   S    
C44   F19   S    
C86   N24   A    
C48   C83   A    
C28   C96   S    
C69   N7    A    
C71   N9    A    
C6    O22   D    
C85   N22   A    
H18   O12   S    
C38   C43   S    
C44   H34   S    
H35   O26   S    
C61   C81   A    
C103  O13   S    
C41   H1    S    
C69   F7    S    
C53   F23   S    
C59   F2    S    
C20   C26   A    
C45   C50   A    
C67   N5    A    
N19   N29   A    
C12   C21   S    
C31   C35   A    
C1    N1    A    
H21   O31   S    
C56   C58   D    
C13   C22   S    
N29   Ni3   S    
C28   C91   A    
C78   N16   A    
C64   N2    A    
C70   F8    S    
C65   H11   S    
C47   C72   A    
C56   H3    S    
C39   C97   S    
C52   F22   S    
C102  O10   S    
C19   C25   A    
N1    Ni1   S    
C25   H16   S    
C40   C44   S    
C62   F4    S    
N11   Ni4   S    
C1    C93   S    
C16   C38   A    
N13   Ni4   S    
H29   O15   S    
C80   N18   A    
H32   O21   S    
C22   C24   A    
C71   C94   A    
C24   H15   S    
C53   H39   S    
C70   N8    A    
C4    O18   D    
C81   N19   A    
C72   C82   A    
C2    C62   S    
C103  O11   D    
N7    N16   A    
C84   F17   S    
H19   O27   S    
