data_mof_unit_7514.cif
_audit_creation_date              2013-03-05T15:55:53-0500
_audit_creation_method            fapswitch 2.2
_symmetry_space_group_name_H-M    P1
_symmetry_Int_Tables_number       1
_space_group_crystal_system       triclinic
_cell_length_a                    12.347675
_cell_length_b                    13.173482
_cell_length_c                    15.861225
_cell_angle_alpha                 77.681742
_cell_angle_beta                  101.313284
_cell_angle_gamma                 116.65081
_cell_volume                      2237.85481749

loop_
_atom_site_label
_atom_site_type_symbol
_atom_site_description
_atom_site_fract_x
_atom_site_fract_y
_atom_site_fract_z
_atom_type_partial_charge
O1    O     O_R   0.972510 0.318130 0.524770 -0.544190
O2    O     O_R   0.806530 0.359650 0.491510 -0.615805
C1    C     C_R   0.854776 0.286858 0.504289 0.793618
O3    O     O_R   0.082970 0.479240 0.637550 -0.521205
O4    O     O_R   0.916990 0.520750 0.604290 -0.606234
C2    C     C_R   0.999538 0.499616 0.659919 0.826361
Cu1   Cu    Cu3+1 0.098270 0.475420 0.519690 1.021666
Cu2   Cu    Cu3+1 0.901730 0.524580 0.480310 0.949494
O5    O     O_R   0.193470 0.640350 0.508490 -0.597118
O6    O     O_R   0.027490 0.681870 0.475230 -0.589151
O7    O     O_R   0.083010 0.479250 0.395710 -0.566859
O8    O     O_R   0.917030 0.520760 0.362450 -0.583809
C3    C     C_R   0.145085 0.713595 0.487225 0.827054
C4    C     C_R   0.000317 0.500178 0.340079 0.801439
C5    C     C_3   0.981211 0.396046 0.043842 0.672247
C6    C     C_3   0.889835 0.419842 0.969906 -0.372559
H1    H     H_    0.801040 0.354337 0.944767 0.213298
H2    H     H_    0.836176 0.548632 0.019080 0.206782
C7    C     C_1   0.998686 0.498957 0.749588 -0.095919
C8    C     C_1   0.000569 0.500041 0.250452 -0.124090
C9    C     C_3   0.087553 0.473055 0.990224 0.584222
C10   C     C_3   0.997747 0.497864 0.916833 -0.148771
C11   C     C_3   0.108316 0.578400 0.030341 -0.365770
C12   C     C_3   0.000112 0.500194 0.083152 -0.121066
C13   C     C_3   0.016609 0.601759 0.956456 0.663208
C14   C     C_3   0.908847 0.525476 0.010142 -0.245549
C15   C     C_1   0.998133 0.498365 0.825157 0.141018
C16   C     C_1   0.000492 0.500032 0.174882 0.117709
H3    H     H_    0.197530 0.643509 0.055320 0.206939
C17   C     C_R   0.266321 0.025554 0.391669 0.676785
H4    H     H_    0.088267 0.887278 0.397064 0.182805
C18   C     C_R   0.227170 0.835422 0.468940 -0.135346
C19   C     C_R   0.816147 0.081581 0.536393 -0.122716
C20   C     C_R   0.737664 0.965778 0.545497 -0.127352
C21   C     C_R   0.613054 0.930810 0.522203 -0.159831
C22   C     C_R   0.564519 0.011744 0.484866 0.121599
C23   C     C_R   0.646964 0.127909 0.464966 0.028446
C24   C     C_R   0.437083 0.980243 0.464617 -0.032142
C25   C     C_R   0.393512 0.061132 0.414831 -0.107177
C26   C     C_R   0.478535 0.173113 0.386780 0.328500
C27   C     C_R   0.602787 0.203338 0.409368 -0.268668
C28   C     C_R   0.351656 0.870151 0.494119 -0.218591
C29   C     C_R   0.184675 0.913678 0.418480 -0.259447
C30   C     C_R   0.771927 0.164417 0.499829 -0.096079
H5    H     H_    0.379767 0.809119 0.537435 0.167156
H6    H     H_    0.911685 0.106034 0.558507 0.213719
H7    H     H_    0.557858 0.839464 0.531061 0.128802
H8    H     H_    0.773278 0.902657 0.572917 0.164213
H9    H     H_    0.663961 0.286884 0.380694 0.207572
C31   C     C_R   0.350077 0.330960 0.638466 -0.295352
H10   H     H_    0.547419 0.295235 0.665509 0.164427
H11   H     H_    0.351835 0.266479 0.693514 0.183499
N1    N     N_R   0.246280 0.438200 0.549540 -0.245976
C32   C     C_R   0.760128 0.645943 0.383490 0.101846
C33   C     C_R   0.663778 0.677623 0.357467 -0.210807
C34   C     C_R   0.559771 0.622217 0.400667 -0.159237
C35   C     C_R   0.551098 0.534070 0.470940 0.039553
C36   C     C_R   0.652698 0.504856 0.495396 0.289799
C37   C     C_R   0.446620 0.474557 0.518403 0.004444
C38   C     C_R   0.447575 0.388529 0.589008 0.106042
C39   C     C_R   0.546707 0.361131 0.611367 -0.230290
C40   C     C_R   0.647007 0.418215 0.565832 -0.168966
C41   C     C_R   0.340856 0.496303 0.499756 -0.014027
C42   C     C_R   0.250652 0.357824 0.618902 0.533132
N2    N     N_R   0.754330 0.561180 0.450980 -0.214488
H12   H     H_    0.332130 0.559372 0.446528 0.140855
H13   H     H_    0.840409 0.689444 0.349510 0.137793
H14   H     H_    0.488040 0.650293 0.378088 0.141395
H15   H     H_    0.669785 0.745416 0.303653 0.169689
H16   H     H_    0.718724 0.391975 0.589056 0.205041
N3    N     N_R   0.156202 0.302483 0.674466 0.136634
O9    O     O_R   0.173003 0.341329 0.747049 -0.302304
O10   O     O_R   0.081499 0.195781 0.669537 -0.371168
F1    F     F_    0.964289 0.289618 0.090448 -0.581738
F2    F     F_    0.034434 0.708285 0.909658 -0.609132
F3    F     F_    0.178232 0.444371 0.979208 -0.565306
N4    N     N_R   0.441502 0.259707 0.338297 0.183606
O11   O     O_R   0.489748 0.318939 0.267603 -0.307670
O12   O     O_R   0.383505 0.297146 0.374810 -0.294534
F4    F     F_    0.219449 0.095432 0.339037 -0.585968

loop_
_geom_bond_atom_site_label_1
_geom_bond_atom_site_label_2
_geom_bond_distance
_ccdc_geom_bond_type
C36   C40   1.403767 A    
C33   C34   1.393722 A    
C31   C42   1.386422 A    
C3    C18   1.464417 S    
C21   C22   1.418149 A    
H2    C14   1.110074 S    
C21   H7    1.077955 S    
Cu1   Cu2   2.709527 S    
C32   N2    1.358752 A    
N4    O11   1.301085 A    
Cu1   O7    1.930255 S    
C2    C7    1.422509 S    
C9    F3    1.382550 S    
H4    C29   1.083414 S    
C11   H3    1.110074 S    
C22   C23   1.414282 A    
C12   C14   1.543371 S    
C24   C28   1.402378 A    
C24   C25   1.427267 A    
N1    C42   1.365767 A    
C35   C37   1.437883 A    
C5    C6    1.545261 S    
C34   C35   1.408988 A    
C40   H16   1.063781 S    
C20   C21   1.389203 A    
C42   N3    1.426428 S    
O5    C3    1.304200 A    
C6    H1    1.110085 S    
C10   C13   1.531676 S    
H10   C39   1.084852 S    
C31   H11   1.084904 S    
C11   C12   1.544065 S    
C7    C15   1.198304 T    
C17   F4    1.356372 S    
C41   H12   1.077034 S    
C37   C38   1.415590 A    
C9    C10   1.532285 S    
C19   H6    1.078607 S    
O3    Cu1   1.928763 S    
C27   H9    1.078949 S    
N4    O12   1.301129 A    
C6    C14   1.557537 S    
C1    C30   1.480954 S    
C4    C8    1.422601 S    
O3    C2    1.300522 A    
C25   C26   1.410729 A    
N3    O10   1.299304 A    
C32   H13   1.081542 S    
C8    C16   1.198463 T    
C13   C14   1.544458 S    
C34   H14   1.078172 S    
C38   C39   1.387718 A    
O1    C1    1.312686 A    
C28   H5    1.077047 S    
C36   N2    1.382092 A    
Cu2   N2    2.029974 S    
Cu2   O8    1.928763 S    
C19   C20   1.386315 A    
C33   H15   1.082500 S    
C26   C27   1.392096 A    
O8    C4    1.300532 A    
C10   C15   1.453638 S    
C9    C11   1.546000 S    
C17   C29   1.391810 A    
C20   H8    1.082889 S    
Cu1   N1    2.042050 S    
Cu1   O5    1.939078 S    
C32   C33   1.392544 A    
C5    C12   1.531738 S    
C6    C10   1.543637 S    
O1    Cu1   1.950023 S    
C19   C30   1.401966 A    
O2    Cu2   1.939078 S    
C12   C16   1.453597 S    
O6    C3    1.303990 A    
O4    Cu2   1.930255 S    
C37   C41   1.422301 A    
C31   C38   1.391924 A    
C23   C30   1.425099 A    
C22   C24   1.422732 A    
O2    C1    1.302954 A    
N3    O9    1.301055 A    
N1    C41   1.369371 A    
C35   C36   1.432107 A    
O4    C2    1.300719 A    
O7    C4    1.300933 A    
C18   C29   1.395397 A    
C17   C25   1.416999 A    
C11   C13   1.545434 S    
C23   C27   1.409330 A    
C39   C40   1.380090 A    
C5    C9    1.533487 S    
C5    F1    1.382526 S    
Cu2   O6    1.950023 S    
C18   C28   1.392028 A    
C26   N4    1.434368 S    
C13   F2    1.382494 S    
