data_mof_unit_65278.cif
_audit_creation_date              2012-12-10T17:10:14-0500
_audit_creation_method            fapswitch 2.2
_symmetry_space_group_name_H-M    P1
_symmetry_Int_Tables_number       1
_space_group_crystal_system       triclinic
_cell_length_a                    18.628855
_cell_length_b                    18.628855
_cell_length_c                    32.676041
_cell_angle_alpha                 89.999516
_cell_angle_beta                  89.999516
_cell_angle_gamma                 90.009837
_cell_volume                      11339.7048413

loop_
_atom_site_label
_atom_site_type_symbol
_atom_type_description
_atom_site_fract_x
_atom_site_fract_y
_atom_site_fract_z
_atom_type_partial_charge
C1    C     C_R   0.000000 0.500000 0.896107 0.535354
C2    C     C_1   0.500000 0.000000 0.231188 0.087870
C3    C     C_R   0.300579 0.806677 0.997473 0.001515
C4    C     C_R   0.693325 0.199420 0.497472 0.001507
C5    C     C_R   0.800594 0.693342 0.497463 0.001350
C6    C     C_R   0.306676 0.800579 0.497473 0.001508
C7    C     C_R   0.199406 0.306658 0.497463 0.001352
C8    C     C_R   0.306658 0.199406 0.497463 0.001352
C9    C     C_R   0.199420 0.693325 0.497472 0.001507
C10   C     C_R   0.693342 0.800594 0.497463 0.001350
C11   C     C_R   0.800579 0.306676 0.497473 0.001508
C12   C     C_R   0.213930 0.733087 0.034313 0.243587
C13   C     C_1   0.500000 1.000000 0.731188 0.087870
C14   C     C_R   0.266595 0.213621 0.034266 0.243561
C15   C     C_R   0.786069 0.266911 0.034313 0.243587
C16   C     C_R   0.733397 0.786371 0.034267 0.243562
C17   C     C_R   0.786371 0.733397 0.034267 0.243562
C18   C     C_R   0.733087 0.213930 0.034313 0.243587
C19   C     C_R   0.213621 0.266595 0.034266 0.243561
C20   C     C_R   0.266911 0.786069 0.034313 0.243587
C21   C     C_R   0.713920 0.233097 0.534312 0.243586
C22   C     C_R   0.766607 0.713632 0.534268 0.243563
C23   C     C_R   0.286079 0.766900 0.534312 0.243585
C24   C     C_1   1.000000 0.500000 0.731188 0.087870
C25   C     C_R   0.233390 0.286365 0.534268 0.243564
C26   C     C_R   0.286365 0.233390 0.534268 0.243564
C27   C     C_R   0.233097 0.713920 0.534312 0.243586
C28   C     C_R   0.713632 0.766607 0.534268 0.243563
C29   C     C_R   0.766900 0.286079 0.534312 0.243585
C30   C     C_1   1.000000 0.499999 0.149084 0.085681
C31   C     C_1   0.499999 0.000000 0.149084 0.085681
C32   C     C_1   0.500000 0.999999 0.649084 0.085681
C33   C     C_1   0.999999 0.500000 0.649084 0.085681
C34   C     C_1   0.500000 0.000000 0.768843 0.095126
C35   C     C_1   0.000000 0.500000 0.768843 0.095126
C36   C     C_1   1.000000 0.500000 0.268843 0.095126
C37   C     C_1   0.500000 0.000000 0.268843 0.095126
C38   C     C_1   0.500000 0.000001 0.813278 0.073984
C39   C     C_1   0.000001 0.500000 0.813278 0.073984
C40   C     C_1   1.000000 0.500001 0.313278 0.073984
C41   C     C_R   0.500000 0.000000 0.896107 0.535354
C42   C     C_1   0.500001 0.000000 0.313278 0.073984
C43   C     C_1   0.500000 0.000001 0.850922 0.105466
C44   C     C_1   0.000001 0.500000 0.850922 0.105466
C45   C     C_1   0.000000 0.500001 0.350922 0.105466
C46   C     C_1   0.500001 0.000000 0.350922 0.105466
C47   C     C_R   1.000000 0.500000 0.103879 0.517270
C48   C     C_R   0.500000 0.000000 0.103879 0.517270
C49   C     C_R   0.500000 1.000000 0.603879 0.517270
C50   C     C_R   1.000000 0.500000 0.603879 0.517270
C51   C     C_R   0.859859 0.640932 0.999590 0.566214
C52   C     C_R   0.500000 0.000000 0.396106 0.535354
C53   C     C_R   0.359077 0.859852 0.999601 0.566335
C54   C     C_R   0.140141 0.359067 0.999590 0.566213
C55   C     C_R   0.640923 0.140147 0.999600 0.566334
C56   C     C_R   0.140147 0.640923 0.999600 0.566334
C57   C     C_R   0.640932 0.859859 0.999590 0.566214
C58   C     C_R   0.859852 0.359077 0.999601 0.566335
C59   C     C_R   0.359067 0.140141 0.999590 0.566213
C60   C     C_R   0.359858 0.140932 0.499590 0.566218
C61   C     C_R   0.859077 0.359853 0.499600 0.566328
C62   C     C_R   0.640142 0.859068 0.499590 0.566220
C63   C     C_R   0.000000 0.500000 0.396106 0.535354
C64   C     C_R   0.140923 0.640147 0.499600 0.566328
C65   C     C_R   0.640147 0.140923 0.499600 0.566328
C66   C     C_R   0.140932 0.359858 0.499590 0.566218
C67   C     C_R   0.359853 0.859077 0.499600 0.566328
C68   C     C_R   0.859068 0.640142 0.499590 0.566220
C69   C     C_R   0.207696 0.688010 0.921615 0.098524
C70   C     C_R   0.312782 0.208526 0.921696 0.098933
C71   C     C_R   0.792315 0.311989 0.921616 0.098523
C72   C     C_R   0.687234 0.791489 0.921694 0.098926
C73   C     C_R   0.791489 0.687234 0.921694 0.098926
C74   C     C_1   0.000000 0.499999 0.186743 0.054620
C75   C     C_R   0.688010 0.207696 0.921615 0.098524
C76   C     C_R   0.208526 0.312782 0.921696 0.098933
C77   C     C_R   0.311989 0.792315 0.921616 0.098523
C78   C     C_R   0.707720 0.187985 0.421618 0.098537
C79   C     C_R   0.812751 0.708494 0.421693 0.098917
C80   C     C_R   0.292286 0.812016 0.421618 0.098537
C81   C     C_R   0.187256 0.291512 0.421692 0.098915
C82   C     C_R   0.291512 0.187256 0.421692 0.098915
C83   C     C_R   0.187985 0.707720 0.421618 0.098537
C84   C     C_R   0.708494 0.812751 0.421693 0.098917
C85   C     C_1   0.499999 0.000000 0.186743 0.054620
C86   C     C_R   0.812016 0.292286 0.421618 0.098537
C87   C     C_R   0.255683 0.691432 0.888705 0.271979
C88   C     C_R   0.309812 0.256927 0.888971 0.271623
C89   C     C_R   0.744331 0.308574 0.888705 0.271980
C90   C     C_R   0.690212 0.743097 0.888967 0.271629
C91   C     C_R   0.743097 0.690212 0.888967 0.271629
C92   C     C_R   0.691432 0.255683 0.888705 0.271979
C93   C     C_R   0.256927 0.309812 0.888971 0.271623
C94   C     C_R   0.308574 0.744331 0.888705 0.271980
C95   C     C_R   0.755721 0.191391 0.388714 0.271967
C96   C     C_1   0.500000 0.999999 0.686743 0.054620
C97   C     C_R   0.809763 0.756878 0.388961 0.271636
C98   C     C_R   0.244287 0.808614 0.388714 0.271968
C99   C     C_R   0.190246 0.243131 0.388959 0.271638
C100  C     C_R   0.243131 0.190246 0.388959 0.271638
C101  C     C_R   0.191391 0.755721 0.388714 0.271967
C102  C     C_R   0.756878 0.809763 0.388961 0.271636
C103  C     C_R   0.808614 0.244287 0.388714 0.271968
C104  C     C_R   0.280919 0.773088 0.959885 -0.087055
C105  C     C_R   0.227316 0.281308 0.959925 -0.087139
C106  C     C_R   0.719082 0.226916 0.959885 -0.087054
C107  C     C_1   0.999999 0.500000 0.686743 0.054620
C108  C     C_R   0.772691 0.718699 0.959924 -0.087137
C109  C     C_R   0.718699 0.772691 0.959924 -0.087137
C110  C     C_R   0.773088 0.280919 0.959885 -0.087055
C111  C     C_R   0.281308 0.227316 0.959925 -0.087139
C112  C     C_R   0.226916 0.719082 0.959885 -0.087054
C113  C     C_R   0.780932 0.273075 0.459886 -0.087057
C114  C     C_R   0.727301 0.781293 0.459923 -0.087135
C115  C     C_R   0.219069 0.726928 0.459886 -0.087057
C116  C     C_R   0.272703 0.218710 0.459923 -0.087135
C117  C     C_R   0.218710 0.272703 0.459923 -0.087135
C118  C     C_1   1.000000 0.500000 0.231188 0.087870
C119  C     C_R   0.273075 0.780932 0.459886 -0.087057
C120  C     C_R   0.781293 0.727301 0.459923 -0.087135
C121  C     C_R   0.726928 0.219069 0.459886 -0.087057
C122  C     C_R   0.193325 0.699420 0.997472 0.001512
C123  C     C_R   0.300595 0.193343 0.997463 0.001344
C124  C     C_R   0.806677 0.300579 0.997473 0.001515
C125  C     C_R   0.699405 0.806657 0.997463 0.001348
C126  C     C_R   0.806657 0.699405 0.997463 0.001348
C127  C     C_R   0.699420 0.193325 0.997472 0.001512
C128  C     C_R   0.193343 0.300595 0.997463 0.001344
Cl1   Cl    Cl    0.177932 0.705206 0.082083 -0.396292
Cl2   Cl    Cl    0.794070 0.677271 0.582026 -0.395975
Cl3   Cl    Cl    0.322089 0.794764 0.582082 -0.396272
Cl4   Cl    Cl    0.205922 0.322722 0.582026 -0.395982
Cl5   Cl    Cl    0.322722 0.205922 0.582026 -0.395982
Cl6   Cl    Cl    0.205230 0.677910 0.582081 -0.396275
Cl7   Cl    Cl    0.677271 0.794070 0.582026 -0.395975
Cl8   Cl    Cl    0.794764 0.322089 0.582082 -0.396272
Cl9   Cl    Cl    0.242540 0.637271 0.844959 -0.357068
Cl10  Cl    Cl    0.364489 0.244284 0.845389 -0.356854
Cl11  Cl    Cl    0.757485 0.362733 0.844959 -0.357088
Cl12  Cl    Cl    0.294043 0.177245 0.082024 -0.395958
Cl13  Cl    Cl    0.635544 0.755749 0.845382 -0.356864
Cl14  Cl    Cl    0.755749 0.635544 0.845382 -0.356864
Cl15  Cl    Cl    0.637271 0.242540 0.844959 -0.357068
Cl16  Cl    Cl    0.244284 0.364490 0.845389 -0.356854
Cl17  Cl    Cl    0.362733 0.757485 0.844959 -0.357088
Cl18  Cl    Cl    0.742592 0.137213 0.344973 -0.357067
Cl19  Cl    Cl    0.864420 0.744216 0.345372 -0.356865
Cl20  Cl    Cl    0.257422 0.862792 0.344973 -0.357075
Cl21  Cl    Cl    0.135593 0.255797 0.345370 -0.356868
Cl22  Cl    Cl    0.255797 0.135593 0.345370 -0.356868
Cl23  Cl    Cl    0.822066 0.294788 0.082083 -0.396288
Cl24  Cl    Cl    0.137213 0.742592 0.344973 -0.357066
Cl25  Cl    Cl    0.744216 0.864420 0.345372 -0.356865
Cl26  Cl    Cl    0.862792 0.257422 0.344973 -0.357075
Cl27  Cl    Cl    0.705938 0.822737 0.082025 -0.395968
Cl28  Cl    Cl    0.822737 0.705938 0.082025 -0.395968
Cl29  Cl    Cl    0.705206 0.177932 0.082083 -0.396292
Cl30  Cl    Cl    0.177245 0.294043 0.082024 -0.395958
Cl31  Cl    Cl    0.294788 0.822066 0.082083 -0.396288
Cl32  Cl    Cl    0.677910 0.205230 0.582081 -0.396275
I1    I     I_    0.098680 0.673568 0.904302 -0.162997
I2    I     I_    0.826870 0.599652 0.403970 -0.162421
I3    I     I_    0.401298 0.826442 0.404294 -0.162986
I4    I     I_    0.173133 0.400356 0.403972 -0.162425
I5    I     I_    0.400356 0.173133 0.403972 -0.162425
I6    I     I_    0.173556 0.598710 0.404292 -0.162981
I7    I     I_    0.599652 0.826871 0.403970 -0.162421
I8    I     I_    0.826442 0.401298 0.404294 -0.162987
I9    I     I_    0.326889 0.099691 0.903956 -0.162401
I10   I     I_    0.901335 0.326424 0.904307 -0.163009
I11   I     I_    0.673120 0.900328 0.903962 -0.162409
I12   I     I_    0.900328 0.673120 0.903962 -0.162409
I13   I     I_    0.673568 0.098680 0.904302 -0.162997
I14   I     I_    0.099691 0.326889 0.903956 -0.162400
I15   I     I_    0.326424 0.901335 0.904307 -0.163009
I16   I     I_    0.598710 0.173556 0.404292 -0.162981
O1    O     O_3   0.000000 0.500000 0.999990 -0.484027
O2    O     O_R   0.000000 0.560760 0.415980 -0.497847
O3    O     O_R   0.439240 0.000000 0.415980 -0.497844
O4    O     O_R   1.000000 0.439240 0.415980 -0.497844
O5    O     O_R   0.000000 0.560700 0.083990 -0.495188
O6    O     O_R   0.439300 0.000000 0.083990 -0.495191
O7    O     O_R   1.000000 0.439300 0.083990 -0.495191
O8    O     O_R   0.560700 0.000000 0.083990 -0.495188
O9    O     O_R   0.500000 0.060700 0.583990 -0.495188
O10   O     O_R   0.939300 0.500000 0.583990 -0.495191
O11   O     O_R   0.500000 0.939300 0.583990 -0.495191
O12   O     O_3   0.500000 0.000000 0.999990 -0.484027
O13   O     O_R   0.060700 0.500000 0.583990 -0.495188
O14   O     O_R   0.853840 0.585420 0.977960 -0.523428
O15   O     O_R   0.414580 0.853840 0.977960 -0.523294
O16   O     O_R   0.146160 0.414580 0.977960 -0.523430
O17   O     O_R   0.585420 0.146160 0.977960 -0.523295
O18   O     O_R   0.146160 0.585420 0.977960 -0.523295
O19   O     O_R   0.585420 0.853840 0.977960 -0.523428
O20   O     O_R   0.853840 0.414580 0.977960 -0.523294
O21   O     O_R   0.414580 0.146160 0.977960 -0.523430
O22   O     O_R   0.353840 0.085420 0.477960 -0.523424
O23   O     O_3   0.500000 0.000000 0.499990 -0.484027
O24   O     O_R   0.914580 0.353840 0.477960 -0.523299
O25   O     O_R   0.646160 0.914580 0.477960 -0.523424
O26   O     O_R   0.085420 0.646160 0.477960 -0.523300
O27   O     O_R   0.646160 0.085420 0.477960 -0.523300
O28   O     O_R   0.085420 0.353840 0.477960 -0.523424
O29   O     O_R   0.353840 0.914580 0.477960 -0.523299
O30   O     O_R   0.914580 0.646160 0.477960 -0.523424
O31   O     O_R   0.085460 0.353830 0.022010 -0.478727
O32   O     O_R   0.646170 0.085460 0.022010 -0.478831
O33   O     O_R   0.914540 0.646170 0.022010 -0.478730
O34   O     O_3   0.000000 0.500000 0.499990 -0.484027
O35   O     O_R   0.353830 0.914540 0.022010 -0.478832
O36   O     O_R   0.914540 0.353830 0.022010 -0.478832
O37   O     O_R   0.353830 0.085460 0.022010 -0.478727
O38   O     O_R   0.085460 0.646170 0.022010 -0.478831
O39   O     O_R   0.646170 0.914540 0.022010 -0.478730
O40   O     O_R   0.585460 0.853830 0.522010 -0.478730
O41   O     O_R   0.146170 0.585460 0.522010 -0.478828
O42   O     O_R   0.414540 0.146170 0.522010 -0.478731
O43   O     O_R   0.853830 0.414540 0.522010 -0.478829
O44   O     O_R   0.414540 0.853830 0.522010 -0.478829
O45   O     O_R   0.060760 0.500000 0.915980 -0.497847
O46   O     O_R   0.853830 0.585460 0.522010 -0.478730
O47   O     O_R   0.585460 0.146170 0.522010 -0.478828
O48   O     O_R   0.146170 0.414540 0.522010 -0.478731
O49   O     O_R   0.500000 0.060760 0.915980 -0.497847
O50   O     O_R   0.939240 0.500000 0.915980 -0.497844
O51   O     O_R   0.500000 0.939240 0.915980 -0.497844
O52   O     O_R   0.560760 0.000000 0.415980 -0.497847
Zn1   Zn    Zn3+2 0.000000 0.586740 0.031450 1.074359
Zn2   Zn    Zn3+2 0.500000 0.913250 0.968520 1.029464
Zn3   Zn    Zn3+2 0.086750 0.500000 0.968520 1.029463
Zn4   Zn    Zn3+2 0.500000 0.086750 0.968520 1.029463
Zn5   Zn    Zn3+2 0.413250 0.000000 0.468520 1.029464
Zn6   Zn    Zn3+2 1.000000 0.413250 0.468520 1.029464
Zn7   Zn    Zn3+2 0.586750 0.000000 0.468520 1.029464
Zn8   Zn    Zn3+2 0.000000 0.586750 0.468520 1.029464
Zn9   Zn    Zn3+2 0.413260 0.000000 0.031450 1.074362
Zn10  Zn    Zn3+2 0.000000 0.413260 0.031450 1.074362
Zn11  Zn    Zn3+2 0.586740 0.000000 0.031450 1.074359
Zn12  Zn    Zn3+2 0.500000 0.086740 0.531450 1.074360
Zn13  Zn    Zn3+2 0.913260 0.500000 0.531450 1.074361
Zn14  Zn    Zn3+2 0.500000 0.913260 0.531450 1.074361
Zn15  Zn    Zn3+2 0.086740 0.500000 0.531450 1.074360
Zn16  Zn    Zn3+2 0.913250 0.500000 0.968520 1.029464

loop_
_geom_bond_atom_site_label_1
_geom_bond_atom_site_label_2
_ccdc_geom_bond_type
C1    O50   A    
C3    C104  A    
O16   Zn3   S    
C48   O6    A    
C41   O51   A    
O6    Zn9   S    
O14   Zn16  S    
C76   C105  A    
C31   C85   T    
C81   C117  A    
C75   I13   S    
C28   Cl7   S    
C8    C26   A    
C7    C117  A    
C15   C18   A    
C33   C107  T    
O42   Zn12  S    
O3    Zn5   S    
C70   C88   A    
O23   Zn12  S    
C15   Cl23  S    
C2    C37   T    
C54   C128  S    
C80   I3    S    
O12   Zn11  S    
C108  C109  A    
C112  C122  A    
C55   O32   A    
C99   Cl21  S    
C63   O2    A    
C54   O16   A    
C64   O41   A    
O20   Zn16  S    
C86   C113  A    
C1    O45   A    
C67   O44   A    
C70   I9    S    
O24   Zn6   S    
O34   Zn15  S    
C25   Cl4   S    
O37   Zn9   S    
O47   Zn12  S    
O23   Zn5   S    
O7    Zn10  S    
C57   C125  S    
C4    C65   S    
C30   C74   T    
C69   C112  A    
C17   C126  A    
O25   Zn7   S    
O9    Zn12  S    
C70   C111  A    
C9    C64   S    
C87   C94   A    
C46   C52   S    
C77   C94   A    
C69   I1    S    
C84   C102  A    
C116  C117  A    
C61   O24   A    
C2    C85   S    
O30   Zn8   S    
C42   C46   T    
C37   C42   S    
C92   Cl15  S    
C50   O13   A    
O52   Zn7   S    
O28   Zn6   S    
O12   Zn9   S    
C103  Cl26  S    
O31   Zn10  S    
C110  C124  A    
C88   C93   A    
C52   O52   A    
C19   C128  A    
C57   O39   A    
O5    Zn1   S    
C16   C17   A    
C89   Cl11  S    
C20   Cl31  S    
C49   O11   A    
O13   Zn15  S    
C18   Cl29  S    
O35   Zn9   S    
C23   C27   A    
C36   C118  T    
C16   C125  A    
C41   C43   S    
O8    Zn11  S    
C56   O38   A    
C97   C102  A    
C67   O29   A    
C60   O22   A    
C91   Cl14  S    
C66   O28   A    
C94   Cl17  S    
C105  C111  A    
C80   C119  A    
O4    Zn6   S    
C77   I15   S    
C18   C127  A    
C22   C28   A    
C22   Cl2   S    
C78   I16   S    
C97   Cl19  S    
C12   C20   A    
C10   C62   S    
C95   Cl18  S    
C82   C100  A    
C87   Cl9   S    
C5    C68   S    
O12   Zn2   S    
C86   C103  A    
C14   C19   A    
O32   Zn11  S    
C19   Cl30  S    
O46   Zn13  S    
C95   C103  A    
C59   C123  S    
C40   C45   T    
C74   C118  S    
C83   I6    S    
C41   O49   A    
C24   C35   T    
C12   Cl1   S    
C5    C22   A    
C13   C96   S    
C111  C123  A    
O49   Zn4   S    
C72   I11   S    
C83   C115  A    
C30   C47   S    
C36   C40   S    
C86   I8    S    
C73   C91   A    
C12   C122  A    
C47   O7    A    
C10   C114  A    
C15   C124  A    
C9    C115  A    
C48   O8    A    
C73   C108  A    
C5    C120  A    
C100  Cl22  S    
C25   C26   A    
O44   Zn14  S    
C106  C127  A    
C45   C63   S    
C63   O4    A    
O43   Zn13  S    
O19   Zn2   S    
C73   I12   S    
C56   C122  S    
C35   C39   S    
O41   Zn15  S    
C62   O25   A    
O27   Zn7   S    
C60   O42   A    
C76   C93   A    
C72   C90   A    
C51   O33   A    
C1    C44   S    
O50   Zn16  S    
C99   C100  A    
C65   O27   A    
C78   C95   A    
C53   O35   A    
C79   C120  A    
O45   Zn3   S    
C16   Cl27  S    
C3    C53   S    
C71   I10   S    
C113  C121  A    
C3    C20   A    
C24   C107  S    
O33   Zn1   S    
C89   C92   A    
C53   O15   A    
C102  Cl25  S    
C88   Cl10  S    
C51   O14   A    
C71   C89   A    
C93   Cl16  S    
C56   O18   A    
C75   C92   A    
C109  C125  A    
C6    C67   S    
C32   C96   T    
C55   C127  S    
C115  C119  A    
C31   C48   S    
C68   O30   A    
C21   Cl32  S    
O39   Zn11  S    
O51   Zn2   S    
C79   I2    S    
C50   O10   A    
O23   Zn7   S    
C65   O47   A    
C9    C27   A    
C66   O48   A    
C104  C112  A    
C106  C110  A    
O21   Zn4   S    
C10   C28   A    
O34   Zn8   S    
C64   O26   A    
C72   C109  A    
C84   C114  A    
C14   C123  A    
C83   C101  A    
C105  C128  A    
C80   C98   A    
C6    C119  A    
C34   C38   S    
C27   Cl6   S    
C62   O40   A    
O18   Zn3   S    
C79   C97   A    
C68   O46   A    
C61   O43   A    
O34   Zn13  S    
C14   Cl12  S    
C51   C126  S    
O22   Zn5   S    
C69   C87   A    
C21   C29   A    
O1    Zn3   S    
O10   Zn13  S    
C59   O37   A    
O48   Zn15  S    
C39   C44   T    
C58   O36   A    
C98   C101  A    
C81   C99   A    
O1    Zn16  S    
C101  Cl24  S    
C58   C124  S    
C47   O5    A    
C7    C25   A    
C71   C110  A    
C108  C126  A    
C78   C121  A    
O29   Zn5   S    
C33   C50   S    
C52   O3    A    
C82   C116  A    
C13   C34   T    
C84   I7    S    
C8    C60   S    
C7    C66   S    
O2    Zn8   S    
C4    C21   A    
O38   Zn1   S    
O40   Zn14  S    
C90   C91   A    
C98   Cl20  S    
C59   O21   A    
O15   Zn2   S    
C6    C23   A    
C58   O20   A    
C81   I4    S    
C4    C121  A    
C76   I14   S    
O34   Zn6   S    
C11   C61   S    
C11   C113  A    
C114  C120  A    
C32   C49   S    
C90   Cl13  S    
C55   O17   A    
C8    C116  A    
O26   Zn8   S    
C57   O19   A    
C38   C43   T    
C29   Cl8   S    
C49   O9    A    
C11   C29   A    
C75   C106  A    
C54   O31   A    
C23   Cl3   S    
C26   Cl5   S    
O1    Zn1   S    
C77   C104  A    
O17   Zn4   S    
O11   Zn14  S    
O12   Zn4   S    
C17   Cl28  S    
O36   Zn10  S    
O23   Zn14  S    
O1    Zn10  S    
C82   I5    S    
