data_mof_unit_38279.cif
_audit_creation_date              2013-03-05T16:44:35-0500
_audit_creation_method            fapswitch 2.2
_symmetry_space_group_name_H-M    P1
_symmetry_Int_Tables_number       1
_space_group_crystal_system       triclinic
_cell_length_a                    27.427556
_cell_length_b                    10.73306
_cell_length_c                    9.879145
_cell_angle_alpha                 88.843996
_cell_angle_beta                  88.939374
_cell_angle_gamma                 90.024011
_cell_volume                      2907.1475544

loop_
_atom_site_label
_atom_site_type_symbol
_atom_site_description
_atom_site_fract_x
_atom_site_fract_y
_atom_site_fract_z
_atom_type_partial_charge
O1    O     O_R   0.500010 0.316790 0.614690 -0.597410
O2    O     O_R   0.500000 0.316760 0.385350 -0.625604
C1    C     C_R   0.501816 0.260245 0.500728 0.902752
O3    O     O_R   0.428760 0.500040 0.614660 -0.616803
O4    O     O_R   0.428750 0.500000 0.385310 -0.611511
C2    C     C_R   0.405941 0.503843 0.500716 0.951440
Zn1   Zn    Zn3+2 0.500000 0.500020 0.653130 1.030631
Zn2   Zn    Zn3+2 0.500000 0.499980 0.346870 1.067460
O5    O     O_R   0.500000 0.683240 0.614650 -0.624463
O6    O     O_R   0.499990 0.683210 0.385310 -0.545604
O7    O     O_R   0.571250 0.500000 0.614690 -0.598604
O8    O     O_R   0.571240 0.499960 0.385340 -0.593254
C3    C     C_R   0.500374 0.740260 0.498016 0.989462
C4    C     C_R   0.594133 0.498937 0.498610 0.942647
C5    C     C_R   0.180187 0.375630 0.426155 0.576187
O9    O     O_2   0.209071 0.274348 0.415637 -0.496611
N1    N     N_R   0.199935 0.489831 0.451048 -0.340838
C6    C     C_R   0.170972 0.593278 0.460951 0.627866
C7    C     C_R   0.279372 0.589119 0.390484 0.262257
C8    C     C_R   0.329870 0.599852 0.411752 0.170920
C9    C     C_R   0.325180 0.427359 0.575333 -0.187085
C10   C     C_R   0.274934 0.424224 0.563559 -0.058530
C11   C     C_R   0.251753 0.501174 0.468235 0.110590
C12   C     C_R   0.100808 0.470586 0.401173 -0.083993
C13   C     C_R   0.129867 0.363139 0.411777 -0.034452
C14   C     C_R   0.108056 0.245801 0.413197 -0.068917
C15   C     C_R   0.121957 0.588862 0.421087 -0.149503
C16   C     C_R   0.352848 0.513635 0.499731 -0.212306
H1    H     H_    0.129467 0.162143 0.429347 0.239388
C17   C     C_R   0.647022 0.483832 0.492438 -0.156382
C18   C     C_R   0.975909 0.330498 0.370343 -0.043100
C19   C     C_R   0.972378 0.557490 0.326731 -0.018311
C20   C     C_R   0.948817 0.442851 0.356701 0.028217
C21   C     C_R   0.949009 0.216301 0.379180 0.267855
C22   C     C_R   0.899096 0.218657 0.411096 -0.145541
C23   C     C_R   0.873516 0.331048 0.413320 -0.079424
C24   C     C_R   0.897704 0.441856 0.375288 -0.054661
C25   C     C_R   0.870857 0.552488 0.358189 -0.081449
C26   C     C_R   0.821003 0.552264 0.389883 0.569298
N2    N     N_R   0.798749 0.445292 0.436403 -0.351875
C27   C     C_R   0.823544 0.334961 0.445582 0.562763
C28   C     C_R   0.715989 0.390602 0.376228 -0.047915
C29   C     C_R   0.666174 0.407874 0.390277 -0.176376
C30   C     C_R   0.678612 0.540564 0.584576 0.283589
C31   C     C_R   0.728915 0.520358 0.570370 -0.128109
C32   C     C_R   0.747508 0.448054 0.464702 0.214181
O10   O     O_2   0.799977 0.229968 0.486304 -0.509875
C33   C     C_R   0.027822 0.339051 0.378846 0.054570
C34   C     C_R   0.050340 0.458961 0.375668 0.095810
C35   C     C_R   0.022410 0.567859 0.354307 0.016094
C36   C     C_R   0.057806 0.234649 0.406197 -0.107223
O11   O     O_2   0.189458 0.698411 0.512171 -0.448096
C37   C     C_R   0.092888 0.696872 0.407247 0.345160
C38   C     C_R   0.944047 0.659203 0.277548 0.254764
C39   C     C_R   0.893764 0.658536 0.302705 -0.149819
O12   O     O_2   0.794794 0.657796 0.373510 -0.500923
C40   C     C_R   0.043840 0.684860 0.376110 -0.168168
H2    H     H_    0.753973 0.566387 0.636558 0.191544
H3    H     H_    0.022316 0.769161 0.373047 0.222589
C41   C     C_R   0.518151 0.060272 0.615700 0.074404
C42   C     C_R   0.509425 0.129303 0.498326 -0.205811
C43   C     C_R   0.509176 0.070025 0.373242 -0.207771
C44   C     C_R   0.506334 0.941771 0.368424 0.334010
C45   C     C_R   0.506159 0.872472 0.492492 -0.207055
C46   C     C_R   0.516343 0.933001 0.612541 0.082764
C47   C     C_3   0.492713 0.921623 0.750034 -0.443205
C48   C     C_3   0.494639 0.063082 0.753544 0.135653
H4    H     H_    0.516585 0.873391 0.824267 0.265197
H5    H     H_    0.458175 0.108030 0.755522 0.176716
C49   C     C_R   0.462947 0.444935 0.074745 0.124975
N3    N     N_R   0.499670 0.499140 0.142800 -0.161079
C50   C     C_R   0.539205 0.543321 0.067484 0.337130
C51   C     C_R   0.538895 0.542716 0.923917 -0.128067
N4    N     N_R   0.499670 0.499180 0.857150 -0.164985
C52   C     C_R   0.463055 0.443567 0.932284 0.222843
C53   C     C_3   0.410007 0.477175 0.930608 0.084914
C54   C     C_3   0.410807 0.481277 0.083986 -0.473164
H6    H     H_    0.402236 0.568186 0.879637 0.141216
H7    H     H_    0.342658 0.358789 0.639258 0.234492
N5    N     N_R   0.256171 0.666097 0.290117 0.250085
O13   O     O_R   0.257598 0.786923 0.298065 -0.209259
O14   O     O_R   0.230675 0.615486 0.195985 -0.323153
N6    N     N_R   0.112660 0.820137 0.416785 0.255117
O15   O     O_R   0.089638 0.903089 0.487813 -0.359379
O16   O     O_R   0.147258 0.856368 0.333083 -0.243027
N7    N     N_R   0.964597 0.754175 0.188149 0.223973
O17   O     O_R   0.940670 0.856611 0.163740 -0.281477
O18   O     O_R   0.002285 0.728899 0.111513 -0.319546
N8    N     N_R   0.660949 0.624428 0.686001 0.215826
O19   O     O_R   0.683184 0.631744 0.800795 -0.306864
O20   O     O_R   0.627853 0.706984 0.656523 -0.362331
H8    H     H_    0.872280 0.739082 0.273779 0.235951
H9    H     H_    0.506169 0.122569 0.278890 0.228887
N9    N     N_R   0.498782 0.887619 0.238700 0.238570
O21   O     O_R   0.456889 0.837258 0.213198 -0.303859
O22   O     O_R   0.527375 0.919612 0.137293 -0.306585
H10   H     H_    0.454897 0.884502 0.746667 0.202073
H11   H     H_    0.254085 0.357974 0.625184 0.208659
N10   N     N_R   0.527631 0.108888 0.856175 0.265238
O23   O     O_R   0.573277 0.075569 0.857031 -0.296306
O24   O     O_R   0.510853 0.180413 0.950885 -0.362327
N11   N     N_R   0.580936 0.593879 0.131285 0.228498
O25   O     O_R   0.624372 0.560182 0.091562 -0.336562
O26   O     O_R   0.576330 0.691840 0.205487 -0.301675
H12   H     H_    0.569453 0.581181 0.866332 0.225974
N12   N     N_R   0.378860 0.376072 0.885655 0.231143
O27   O     O_R   0.331885 0.383460 0.904476 -0.333057
O28   O     O_R   0.397388 0.276935 0.831106 -0.391766
H13   H     H_    0.406425 0.576770 0.122726 0.249591
H14   H     H_    0.388221 0.408765 0.137228 0.243969
H15   H     H_    0.642461 0.362477 0.319842 0.196281
H16   H     H_    0.730281 0.335801 0.293638 0.176633
H17   H     H_    0.879668 0.131276 0.425155 0.231229
N13   N     N_R   0.969285 0.099332 0.339140 0.202946
O29   O     O_R   0.958338 0.997636 0.407024 -0.356879
O30   O     O_R   0.993555 0.091927 0.225101 -0.296456
H18   H     H_    0.043924 0.143028 0.428604 0.222434
N14   N     N_R   0.357617 0.699404 0.348167 0.236848
O31   O     O_R   0.350685 0.732345 0.222541 -0.296440
O32   O     O_R   0.387233 0.764488 0.420004 -0.371459

loop_
_geom_bond_atom_site_label_1
_geom_bond_atom_site_label_2
_geom_bond_distance
_ccdc_geom_bond_type
C47   H4    1.112305 S    
C10   H11   1.082847 S    
C51   N4    1.359837 A    
C7    C8    1.409731 A    
C12   C15   1.414352 A    
C8    N14   1.438749 S    
N13   O29   1.301542 A    
C6    O11   1.348508 S    
C31   C32   1.401914 A    
Zn1   O7    1.983858 S    
C44   N9    1.436281 S    
N1    C11   1.439849 S    
C50   N11   1.428913 S    
C47   H10   1.112256 S    
C23   C24   1.402783 A    
C24   C25   1.406393 A    
C53   H6    1.112426 S    
O4    C2    1.291681 A    
O7    C4    1.297309 A    
N7    O18   1.301868 A    
C40   H3    1.080788 S    
N12   O27   1.301019 A    
C5    O9    1.349947 S    
C5    N1    1.368512 A    
C21   C22   1.399482 A    
C28   C32   1.393126 A    
C28   H16   1.083080 S    
N14   O31   1.300961 A    
O5    C3    1.293610 A    
C33   C36   1.414834 A    
C2    C16   1.460246 S    
C25   C39   1.397221 A    
N6    O15   1.301173 A    
C41   C48   1.496796 S    
C18   C20   1.422107 A    
C49   N3    1.358427 A    
N8    O20   1.301524 A    
C42   C43   1.401394 A    
C48   N10   1.463646 S    
N9    O22   1.301302 A    
C47   C48   1.520302 S    
C9    C10   1.385606 A    
C49   C54   1.484140 S    
C17   C30   1.414627 A    
C23   C27   1.402272 A    
N9    O21   1.300617 A    
C29   H15   1.083885 S    
C4    C17   1.459993 S    
O3    Zn1   1.997450 S    
C19   C38   1.423009 A    
Zn1   N4    2.015234 S    
C1    C42   1.421508 S    
C31   H2    1.083233 S    
N4    C52   1.367411 A    
N11   O25   1.301099 A    
C12   C13   1.405395 A    
N5    O14   1.301158 A    
C26   N2    1.367370 A    
C38   N7    1.442754 S    
C37   C40   1.392025 A    
N7    O17   1.301294 A    
C50   C51   1.418651 A    
C8    C16   1.413245 A    
C13   C14   1.393724 A    
C20   C24   1.410518 A    
C41   C42   1.388010 A    
C48   H5    1.110577 S    
C22   C23   1.396093 A    
C7    C11   1.415425 A    
C52   C53   1.499488 S    
C43   C44   1.380551 A    
C51   H12   1.081264 S    
C26   O12   1.350354 S    
Zn2   O8    1.997450 S    
C9    H7    1.078444 S    
N1    C6    1.369546 A    
C27   O10   1.349462 S    
C18   C21   1.430679 A    
C53   C54   1.517336 S    
N11   O26   1.298695 A    
C19   C35   1.408766 A    
O3    C2    1.297986 A    
N2    C27   1.368073 A    
N10   O24   1.299966 A    
C39   H8    1.083024 S    
O8    C4    1.293096 A    
C41   C46   1.367889 A    
C34   C35   1.412187 A    
C18   C33   1.430889 A    
C17   C29   1.404678 A    
C28   C29   1.383692 A    
N2    C32   1.428322 S    
C30   C31   1.401620 A    
C12   C34   1.417438 A    
Zn1   O5    1.995373 S    
C38   C39   1.396801 A    
C54   H13   1.107084 S    
Zn2   N3    2.016427 S    
C53   N12   1.461934 S    
N6    O16   1.301206 A    
O1    Zn1   2.010457 S    
C35   C40   1.408492 A    
C9    C16   1.393448 A    
O2    Zn2   1.995374 S    
C6    C15   1.408875 A    
N5    O13   1.301410 A    
O6    C3    1.281694 A    
O4    Zn2   1.983861 S    
N13   O30   1.301767 A    
C15   C37   1.413053 A    
C21   N13   1.433298 S    
N10   O23   1.302301 A    
C37   N6    1.435140 S    
C45   C46   1.396367 A    
O2    C1    1.282136 A    
N3    C50   1.381941 A    
C14   C36   1.386478 A    
C19   C20   1.413071 A    
C25   C26   1.397107 A    
C3    C45   1.427645 S    
N12   O28   1.301650 A    
C33   C34   1.426819 A    
C36   H18   1.071818 S    
C22   H17   1.083692 S    
C7    N5    1.435782 S    
N14   O32   1.300888 A    
C5    C13   1.396727 A    
C44   C45   1.420754 A    
C14   H1    1.083840 S    
Zn2   O6    2.010456 S    
C46   C47   1.496866 S    
C43   H9    1.084141 S    
C49   C52   1.407716 A    
C10   C11   1.401588 A    
O1    C1    1.289903 A    
N8    O19   1.301293 A    
C54   H14   1.112283 S    
C30   N8    1.437949 S    
