data_mof_unit_66844.cif
_audit_creation_date              2013-03-05T15:53:40-0500
_audit_creation_method            fapswitch 2.2
_symmetry_space_group_name_H-M    P1
_symmetry_Int_Tables_number       1
_space_group_crystal_system       triclinic
_cell_length_a                    8.51612
_cell_length_b                    13.079225
_cell_length_c                    16.626185
_cell_angle_alpha                 96.049014
_cell_angle_beta                  94.614338
_cell_angle_gamma                 96.983778
_cell_volume                      1819.74308065

loop_
_atom_site_label
_atom_site_type_symbol
_atom_site_description
_atom_site_fract_x
_atom_site_fract_y
_atom_site_fract_z
_atom_type_partial_charge
P1    P     P_3+3 0.983580 0.746680 0.563420 0.545845
O1    O     O_2   0.158840 0.763480 0.539220 -0.308827
O2    O     O_3   0.888900 0.629060 0.541050 -0.371653
O3    O     O_3   0.391330 0.697380 0.393380 -0.336469
O4    O     O_2   0.312415 0.879298 0.450551 -0.312052
O5    O     O_3   0.008584 0.763789 0.669778 -0.548139
O6    O     O_3   0.378795 0.864186 0.301798 -0.447953
H1    H     H_    0.485108 0.733759 0.259872 0.052520
C1    C     C_3   0.381503 0.800161 0.160510 -0.140152
H2    H     H_    0.263076 0.754147 0.159365 0.199887
P2    P     P_3+3 0.350740 0.415080 0.315970 0.531218
P3    P     P_3+3 0.928038 0.620161 0.245433 0.585384
O7    O     O_2   0.182780 0.447540 0.303450 -0.378049
O8    O     O_3   0.969510 0.643060 0.352850 -0.263478
O9    O     O_2   0.050544 0.551836 0.213866 -0.354117
O10   O     O_3   0.321138 0.282230 0.281527 -0.622413
O11   O     O_3   0.983324 0.735397 0.203110 -0.498811
C2    C     C_3   0.852029 0.790207 0.192367 0.140309
H3    H     H_    0.826859 0.824286 0.253063 0.097469
H4    H     H_    0.744608 0.739769 0.162592 0.040970
C3    C     C_3   0.892346 0.876501 0.137901 0.259203
H5    H     H_    0.013022 0.917017 0.157751 0.128660
C4    C     C_3   0.745372 0.301472 0.292925 0.371276
H6    H     H_    0.640907 0.326656 0.321027 0.136105
H7    H     H_    0.842562 0.367041 0.295909 0.102591
C5    C     C_3   0.694619 0.261897 0.204188 -0.794170
H8    H     H_    0.596780 0.196521 0.199675 0.300785
H9    H     H_    0.652335 0.324469 0.171737 0.191104
H10   H     H_    0.796646 0.234732 0.174509 0.274008
Ba1   Ba    Ba6+2 0.162890 0.552530 0.460820 1.738534
C6    C     C_3   0.021102 0.672024 0.704320 0.235451
H11   H     H_    0.139180 0.648543 0.695638 0.110471
H12   H     H_    0.926776 0.608742 0.678150 0.104462
C7    C     C_3   0.998556 0.693450 0.794584 -0.258660
H13   H     H_    0.949330 0.622952 0.819483 0.177134
H14   H     H_    0.918835 0.752722 0.804527 0.175144
C8    C     C_3   0.217749 0.224706 0.325857 0.674735
H15   H     H_    0.124435 0.269055 0.349461 -0.002014
C9    C     C_3   0.135270 0.129799 0.269045 -0.332538
H16   H     H_    0.027962 0.150310 0.235309 0.184616
H17   H     H_    0.216175 0.105922 0.223665 0.215628
P4    P     P_3+3 0.826720 0.253310 0.436510 0.526764
O12   O     O_2   0.651450 0.236450 0.460750 -0.276569
O13   O     O_3   0.921400 0.370930 0.458880 -0.387464
O14   O     O_3   0.418970 0.302610 0.606550 -0.367973
O15   O     O_3   0.800033 0.220659 0.330958 -0.548200
P5    P     P_3+3 0.889057 0.386399 0.754587 0.481232
O16   O     O_3   0.377910 0.555000 0.596240 -0.347645
O17   O     O_3   0.840790 0.356930 0.647080 -0.361452
O18   O     O_2   0.770173 0.456996 0.784026 -0.355428
O19   O     O_3   0.839825 0.285490 0.813846 -0.598400
Ba2   Ba    Ba6+2 0.647290 0.447460 0.539110 1.694608
P6    P     P_3+3 0.436499 0.834015 0.399102 0.590279
C10   C     C_3   0.466644 0.812934 0.245900 0.234960
H18   H     H_    0.582438 0.860163 0.246304 0.095360
H19   H     H_    0.451611 0.757518 0.117969 0.134633
O20   O     O_3   0.432390 0.444990 0.403690 -0.309932
C11   C     C_3   0.628792 0.761203 0.739802 0.244896
H20   H     H_    0.666270 0.744262 0.801360 0.130311
H21   H     H_    0.706774 0.733547 0.693980 0.058103
C12   C     C_3   0.641448 0.876476 0.740685 0.125591
H22   H     H_    0.768852 0.908488 0.745104 0.075164
P7    P     P_3+3 0.456755 0.585745 0.698264 0.511824
O21   O     O_2   0.627510 0.552390 0.696520 -0.376306
O22   O     O_3   0.470647 0.719422 0.718557 -0.518866
C13   C     C_3   0.926604 0.200799 0.802987 0.667145
C14   C     C_3   0.913001 0.138803 0.877741 0.108797
H23   H     H_    0.802709 0.085519 0.869299 0.098726
P8    P     P_3+3 0.374277 0.169057 0.607619 0.620946
C15   C     C_3   0.482656 0.238486 0.755921 0.499112
H24   H     H_    0.401992 0.298160 0.752727 0.122343
O23   O     O_2   0.497634 0.120464 0.557505 -0.310248
O24   O     O_3   0.424424 0.144588 0.707668 -0.488231
H25   H     H_    0.593675 0.271559 0.734154 0.144837
H26   H     H_    0.531511 0.294193 0.884454 0.232100
C16   C     C_3   0.508802 0.219405 0.844362 -0.684968
H27   H     H_    0.610105 0.176735 0.852963 0.230838
H28   H     H_    0.406058 0.169868 0.862470 0.300718
C17   C     C_R   0.073381 0.181442 0.527046 -0.403507
C18   C     C_R   0.730771 0.827602 0.487097 -0.302643
C19   C     C_R   0.709364 0.995704 0.441651 -0.117403
C20   C     C_R   0.643773 0.891191 0.444015 0.184855
C21   C     C_R   0.884843 0.858431 0.522894 0.223157
C22   C     C_R   0.948981 0.968406 0.526763 -0.101135
C23   C     C_R   0.858774 0.038197 0.484647 -0.020229
C24   C     C_R   0.921998 0.148055 0.487725 0.217223
C25   C     C_R   0.165349 0.114997 0.563950 0.291882
C26   C     C_R   0.095119 0.013518 0.572600 0.156650
H29   H     H_    0.642616 0.043692 0.407235 0.218159
H30   H     H_    0.121075 0.262205 0.529207 0.179656
H31   H     H_    0.673181 0.752228 0.496869 0.184580
C27   C     C_R   0.616861 0.531793 0.265321 -0.047773
C28   C     C_R   0.462854 0.482664 0.241583 0.160723
C29   C     C_R   0.407055 0.468978 0.158640 -0.334706
C30   C     C_R   0.510902 0.495583 0.099730 0.112874
C31   C     C_R   0.673074 0.528204 0.125019 0.091744
C32   C     C_R   0.724180 0.553718 0.208212 -0.019906
C33   C     C_R   0.389529 0.541234 0.858989 0.209425
C34   C     C_R   0.346510 0.523011 0.773401 0.104997
C35   C     C_R   0.280116 0.502807 0.912294 0.106187
N1    N     N_2   0.459985 0.486426 0.014918 -0.000397
N2    N     N_2   0.320905 0.504447 0.997864 -0.020879
C36   C     C_R   0.197764 0.472370 0.743409 -0.452820
C37   C     C_R   0.084053 0.451413 0.795863 0.268030
C38   C     C_R   0.124079 0.466657 0.880137 -0.169208
H32   H     H_    0.286540 0.433003 0.139826 0.211378
H33   H     H_    0.037328 0.441204 0.919968 0.208394
H34   H     H_    0.165027 0.457301 0.678505 0.164694
I1    I     I_    0.206419 0.758271 0.867676 -0.155296
N3    N     N_R   0.312895 0.194146 0.392798 0.205071
O25   O     O_R   0.356138 0.264342 0.453783 -0.371688
O26   O     O_R   0.400983 0.120810 0.379170 -0.364839
I2    I     I_    0.071098 0.996291 0.329544 -0.267215
I3    I     I_    0.517928 0.903945 0.630688 -0.189915
I4    I     I_    0.535783 0.942920 0.842103 -0.137204
I5    I     I_    0.354751 0.945786 0.117464 -0.131109
N4    N     N_R   0.780369 0.953343 0.141364 0.220822
O27   O     O_R   0.723282 0.985356 0.074908 -0.300322
O28   O     O_R   0.762814 0.005492 0.210332 -0.414939
I6    I     I_    0.814963 0.113376 0.694764 -0.321744
N5    N     N_R   0.092919 0.232202 0.793464 0.214942
O29   O     O_R   0.136390 0.240569 0.721186 -0.485217
O30   O     O_R   0.191249 0.268245 0.856694 -0.460467
I7    I     I_    0.090835 0.040967 0.901906 -0.142900
I8    I     I_    0.906963 0.234763 0.990159 -0.245847
I9    I     I_    0.154211 0.971664 0.689149 -0.146566
N6    N     N_R   0.528022 0.611017 0.892628 0.243970
O31   O     O_R   0.667236 0.595233 0.872227 -0.378826
O32   O     O_R   0.518522 0.681630 0.952696 -0.358215
I10   I     I_    0.839097 0.529935 0.037097 -0.218641
N7    N     N_R   0.662838 0.565452 0.348194 0.252016
O33   O     O_R   0.743078 0.508600 0.390887 -0.353369
O34   O     O_R   0.677683 0.664108 0.369646 -0.472602
I11   I     I_    0.900043 0.810139 0.015073 -0.125518

loop_
_geom_bond_atom_site_label_1
_geom_bond_atom_site_label_2
_geom_bond_distance
_ccdc_geom_bond_type
C34   C36   1.384456 A    
C25   C26   1.414590 A    
P7    O22   1.733107 S    
C28   C29   1.407619 A    
O3    P6    1.772511 S    
P8    O23   1.547043 D    
C2    C3    1.543702 S    
C30   C31   1.411267 A    
C14   I7    2.138725 S    
C17   C25   1.394895 A    
C19   C20   1.418199 A    
P5    O17   1.791775 S    
C23   C24   1.465948 A    
C38   H33   1.077285 S    
C5    H8    1.110939 S    
N1    N2    1.251690 D    
Ba1   O16   2.780353 S    
C16   H28   1.105281 S    
P1    O1    1.572684 D    
C14   I8    2.146645 S    
O12   Ba2   2.930660 S    
C11   H21   1.110867 S    
Ba1   O20   3.000372 S    
C7    H13   1.100765 S    
P4    O15   1.751580 S    
C4    C5    1.521001 S    
P7    C34   1.825577 S    
N3    O25   1.291561 A    
P1    Ba1   3.484112 S    
C17   H30   1.080459 S    
C26   I9    2.107483 S    
C21   C22   1.468065 A    
P2    Ba1   3.463780 S    
C9    I2    2.141528 S    
P3    O11   1.758616 S    
C15   H25   1.095699 S    
C3    N4    1.467133 S    
C4    H6    1.106322 S    
C6    H12   1.107180 S    
P8    O24   1.755823 S    
C15   H24   1.103231 S    
P4    C24   1.919935 S    
C1    H2    1.107524 S    
C2    H4    1.108458 S    
P8    C25   1.889677 S    
C19   C23   1.427181 A    
O10   C8    1.394542 S    
C19   H29   1.074518 S    
P2    C28   1.854111 S    
C11   C12   1.496826 S    
O5    C6    1.395795 S    
C4    O15   1.395315 S    
C13   I6    2.115591 S    
C3    H5    1.105456 S    
Ba1   O13   2.942331 S    
C29   C30   1.413825 A    
P4    O13   1.638473 S    
O8    Ba1   2.789822 S    
C18   C21   1.390515 A    
C37   C38   1.402472 A    
C27   C32   1.397265 A    
P5    O18   1.526099 D    
C13   N5    1.451951 S    
N5    O29   1.297135 A    
O14   P8    1.744231 S    
C14   H23   1.089310 S    
O7    Ba1   2.851465 S    
C27   N7    1.410345 S    
C16   H27   1.090978 S    
C18   C20   1.394169 A    
Ba2   O21   2.851556 S    
H1    C10   1.111521 S    
C9    H16   1.109296 S    
C2    H3    1.107351 S    
O16   P7    1.759886 S    
P5    O19   1.759088 S    
O14   Ba2   2.920593 S    
C11   H20   1.100416 S    
P1    O5    1.751238 S    
P6    C20   1.892594 S    
P1    O2    1.638472 S    
O19   C13   1.408580 S    
O2    Ba1   3.002168 S    
H26   C16   1.111025 S    
N6    O32   1.301415 A    
C12   I4    2.129247 S    
C8    H15   1.111883 S    
P2    O10   1.752477 S    
C11   O22   1.393208 S    
C6    H11   1.102466 S    
P3    O9    1.542228 D    
O17   Ba2   2.790425 S    
C31   C32   1.408726 A    
C15   O24   1.406441 S    
C35   N2    1.434389 S    
O11   C2    1.409174 S    
C35   C38   1.398144 A    
C6    C7    1.529189 S    
C1    H19   1.110680 S    
C22   C23   1.460270 A    
P3    C32   1.870571 S    
C36   H34   1.083717 S    
C33   N6    1.435755 S    
P3    O8    1.778780 S    
C33   C35   1.420950 A    
C15   C16   1.520589 S    
C8    N3    1.443069 S    
P4    O12   1.573037 D    
O6    P6    1.751642 S    
N7    O33   1.296330 A    
C3    I11   2.142401 S    
C36   C37   1.376660 A    
C31   I10   2.113801 S    
O4    P6    1.545957 D    
Ba1   Ba2   4.635926 S    
C10   H18   1.097257 S    
C29   H32   1.082803 S    
P5    C37   1.817126 S    
C1    I5    2.135045 S    
C22   C26   1.432428 A    
N7    O34   1.290057 A    
O2    Ba2   2.942945 S    
P1    C21   1.926819 S    
C5    H9    1.106343 S    
O1    Ba1   2.930036 S    
C18   H31   1.080656 S    
N4    O28   1.299984 A    
C8    C9    1.536399 S    
N4    O27   1.301173 A    
P2    O7    1.545287 D    
O13   Ba2   3.003042 S    
C27   C28   1.395393 A    
C13   C14   1.558325 S    
C7    H14   1.099206 S    
C4    H7    1.111212 S    
C12   H22   1.108202 S    
N3    O26   1.300242 A    
N5    O30   1.298677 A    
Ba2   O20   2.779750 S    
P7    O21   1.569768 D    
C30   N1    1.429732 S    
O16   Ba2   2.999504 S    
C9    H17   1.108065 S    
C5    H10   1.109849 S    
C33   C34   1.428067 A    
C12   I3    2.121566 S    
C7    I1    2.097844 S    
C1    C10   1.524516 S    
O6    C10   1.405441 S    
P2    O20   1.553720 S    
C17   C24   1.395499 A    
O3    Ba1   2.921226 S    
N6    O31   1.293325 A    
P4    Ba2   3.484692 S    
